MODEL 1
REMARK VINA RESULT:      -5.0      0.000      0.000
REMARK  Name = 
REMARK  22 active torsions:
REMARK  status: ('A' for Active; 'I' for Inactive)
REMARK    1  A    between atoms: C_2  and  N_3
REMARK    2  A    between atoms: C_2  and  C_4
REMARK    3  A    between atoms: C_2  and  C_25
REMARK    4  A    between atoms: C_4  and  O_5
REMARK    5  A    between atoms: O_5  and  S_6
REMARK    6  A    between atoms: S_6  and  C_9
REMARK    7  A    between atoms: C_9  and  C_10
REMARK    8  A    between atoms: C_10  and  C_11
REMARK    9  A    between atoms: C_11  and  C_12
REMARK   10  A    between atoms: C_12  and  C_13
REMARK   11  A    between atoms: C_13  and  C_14
REMARK   12  A    between atoms: C_14  and  C_15
REMARK   13  A    between atoms: C_15  and  C_16
REMARK   14  A    between atoms: C_16  and  C_17
REMARK   15  A    between atoms: C_17  and  C_18
REMARK   16  A    between atoms: C_18  and  C_19
REMARK   17  A    between atoms: C_19  and  C_20
REMARK   18  A    between atoms: C_20  and  C_21
REMARK   19  A    between atoms: C_21  and  C_22
REMARK   20  A    between atoms: C_22  and  C_23
REMARK   21  A    between atoms: C_23  and  C_24
REMARK   22  A    between atoms: C_25  and  O_26
REMARK                            x       y       z     vdW  Elec       q    Type
REMARK                         _______ _______ _______ _____ _____    ______ ____
ROOT
ATOM      1  C   UNK     1       8.274  -2.652  22.574  0.00  0.00    +0.025 C 
ENDROOT
BRANCH   1   2
ATOM      2  C   UNK     1       9.388  -1.854  23.252  0.00  0.00    +0.002 C 
BRANCH   2   3
ATOM      3  C   UNK     1       9.112  -1.602  24.734  0.00  0.00    +0.000 C 
BRANCH   3   4
ATOM      4  C   UNK     1       9.793  -0.328  25.220  0.00  0.00    +0.000 C 
BRANCH   4   5
ATOM      5  C   UNK     1      10.636   0.281  24.101  0.00  0.00    +0.000 C 
BRANCH   5   6
ATOM      6  C   UNK     1      10.683   1.799  24.224  0.00  0.00    -0.000 C 
BRANCH   6   7
ATOM      7  C   UNK     1      10.104   2.461  22.979  0.00  0.00    -0.000 C 
BRANCH   7   8
ATOM      8  C   UNK     1       9.965   1.449  21.848  0.00  0.00    -0.000 C 
BRANCH   8   9
ATOM      9  C   UNK     1       8.514   1.328  21.400  0.00  0.00    -0.000 C 
BRANCH   9  10
ATOM     10  C   UNK     1       7.703   2.531  21.868  0.00  0.00    -0.000 C 
BRANCH  10  11
ATOM     11  C   UNK     1       6.434   2.084  22.585  0.00  0.00    -0.000 C 
BRANCH  11  12
ATOM     12  C   UNK     1       6.697   0.847  23.439  0.00  0.00    -0.000 C 
BRANCH  12  13
ATOM     13  C   UNK     1       6.329   1.107  24.898  0.00  0.00    -0.000 C 
BRANCH  13  14
ATOM     14  C   UNK     1       7.207   2.202  25.500  0.00  0.00    -0.003 C 
ATOM     15  C   UNK     1       6.363   3.275  26.167  0.00  0.00    +0.004 C 
ENDBRANCH  13  14
ENDBRANCH  12  13
ENDBRANCH  11  12
ENDBRANCH  10  11
ENDBRANCH   9  10
ENDBRANCH   8   9
ENDBRANCH   7   8
ENDBRANCH   6   7
ENDBRANCH   5   6
ENDBRANCH   4   5
ENDBRANCH   3   4
ENDBRANCH   2   3
ENDBRANCH   1   2
BRANCH   1  16
ATOM     16  C   UNK     1       7.057  -2.861  23.468  0.00  0.00    +0.198 C 
BRANCH  16  17
ATOM     17  S   UNK     1       6.126  -4.324  23.039  0.00  0.00    +0.082 S 
ATOM     18  O   UNK     1       4.840  -3.929  22.506  0.00  0.00    -0.147 OA
ATOM     19  O   UNK     1       7.001  -5.230  22.325  0.00  0.00    -0.147 OA
BRANCH  17  20
ATOM     20  O   UNK     1       5.895  -4.908  24.546  0.00  0.00    -0.236 OA
BRANCH  20  21
ATOM     21  C   UNK     1       6.781  -4.413  25.549  0.00  0.00    +0.223 C 
BRANCH  21  22
ATOM     22  C   UNK     1       7.693  -5.524  26.081  0.00  0.00    +0.189 C 
BRANCH  22  23
ATOM     23  N   UNK     1       7.540  -5.709  27.540  0.00  0.00    -0.317 NA
ATOM     24  H   UNK     1       6.901  -5.050  27.976  0.00  0.00    +0.119 HD
ATOM     25  H   UNK     1       7.416  -6.678  27.820  0.00  0.00    +0.119 HD
ENDBRANCH  22  23
BRANCH  22  26
ATOM     26  C   UNK     1       9.141  -5.235  25.665  0.00  0.00    +0.324 C 
ATOM     27  O   UNK     1       9.547  -5.291  24.512  0.00  0.00    -0.249 OA
BRANCH  26  28
ATOM     28  O   UNK     1       9.956  -4.911  26.697  0.00  0.00    -0.479 OA
ATOM     29  H   UNK     1       9.441  -4.514  27.423  0.00  0.00    +0.295 HD
ENDBRANCH  26  28
ENDBRANCH  22  26
ENDBRANCH  21  22
ENDBRANCH  20  21
ENDBRANCH  17  20
ENDBRANCH  16  17
ENDBRANCH   1  16
TORSDOF 21
ENDMDL
MODEL 2
REMARK VINA RESULT:      -4.8      2.407      4.019
REMARK  Name = 
REMARK  22 active torsions:
REMARK  status: ('A' for Active; 'I' for Inactive)
REMARK    1  A    between atoms: C_2  and  N_3
REMARK    2  A    between atoms: C_2  and  C_4
REMARK    3  A    between atoms: C_2  and  C_25
REMARK    4  A    between atoms: C_4  and  O_5
REMARK    5  A    between atoms: O_5  and  S_6
REMARK    6  A    between atoms: S_6  and  C_9
REMARK    7  A    between atoms: C_9  and  C_10
REMARK    8  A    between atoms: C_10  and  C_11
REMARK    9  A    between atoms: C_11  and  C_12
REMARK   10  A    between atoms: C_12  and  C_13
REMARK   11  A    between atoms: C_13  and  C_14
REMARK   12  A    between atoms: C_14  and  C_15
REMARK   13  A    between atoms: C_15  and  C_16
REMARK   14  A    between atoms: C_16  and  C_17
REMARK   15  A    between atoms: C_17  and  C_18
REMARK   16  A    between atoms: C_18  and  C_19
REMARK   17  A    between atoms: C_19  and  C_20
REMARK   18  A    between atoms: C_20  and  C_21
REMARK   19  A    between atoms: C_21  and  C_22
REMARK   20  A    between atoms: C_22  and  C_23
REMARK   21  A    between atoms: C_23  and  C_24
REMARK   22  A    between atoms: C_25  and  O_26
REMARK                            x       y       z     vdW  Elec       q    Type
REMARK                         _______ _______ _______ _____ _____    ______ ____
ROOT
ATOM      1  C   UNK     1       7.976  -5.184  23.524  0.00  0.00    +0.025 C 
ENDROOT
BRANCH   1   2
ATOM      2  C   UNK     1       8.547  -5.062  24.937  0.00  0.00    +0.002 C 
BRANCH   2   3
ATOM      3  C   UNK     1       7.491  -5.286  26.019  0.00  0.00    +0.000 C 
BRANCH   3   4
ATOM      4  C   UNK     1       7.228  -4.013  26.814  0.00  0.00    +0.000 C 
BRANCH   4   5
ATOM      5  C   UNK     1       8.363  -3.013  26.603  0.00  0.00    +0.000 C 
BRANCH   5   6
ATOM      6  C   UNK     1       7.813  -1.637  26.252  0.00  0.00    -0.000 C 
BRANCH   6   7
ATOM      7  C   UNK     1       8.193  -1.249  24.827  0.00  0.00    -0.000 C 
BRANCH   7   8
ATOM      8  C   UNK     1       9.680  -1.480  24.588  0.00  0.00    -0.000 C 
BRANCH   8   9
ATOM      9  C   UNK     1       9.930  -2.011  23.182  0.00  0.00    -0.000 C 
BRANCH   9  10
ATOM     10  C   UNK     1       8.912  -1.440  22.200  0.00  0.00    -0.000 C 
BRANCH  10  11
ATOM     11  C   UNK     1       9.548  -0.367  21.323  0.00  0.00    -0.000 C 
BRANCH  11  12
ATOM     12  C   UNK     1       8.940   1.003  21.608  0.00  0.00    -0.000 C 
BRANCH  12  13
ATOM     13  C   UNK     1      10.012   1.986  22.070  0.00  0.00    -0.000 C 
BRANCH  13  14
ATOM     14  C   UNK     1      10.348   1.781  23.545  0.00  0.00    -0.003 C 
ATOM     15  C   UNK     1       9.282   2.390  24.440  0.00  0.00    +0.004 C 
ENDBRANCH  13  14
ENDBRANCH  12  13
ENDBRANCH  11  12
ENDBRANCH  10  11
ENDBRANCH   9  10
ENDBRANCH   8   9
ENDBRANCH   7   8
ENDBRANCH   6   7
ENDBRANCH   5   6
ENDBRANCH   4   5
ENDBRANCH   3   4
ENDBRANCH   2   3
ENDBRANCH   1   2
BRANCH   1  16
ATOM     16  C   UNK     1       6.754  -4.301  23.294  0.00  0.00    +0.198 C 
BRANCH  16  17
ATOM     17  S   UNK     1       5.777  -4.825  21.893  0.00  0.00    +0.082 S 
ATOM     18  O   UNK     1       5.738  -3.759  20.916  0.00  0.00    -0.147 OA
ATOM     19  O   UNK     1       6.174  -6.171  21.537  0.00  0.00    -0.147 OA
BRANCH  17  20
ATOM     20  O   UNK     1       4.323  -4.893  22.631  0.00  0.00    -0.236 OA
BRANCH  20  21
ATOM     21  C   UNK     1       4.299  -4.495  24.001  0.00  0.00    +0.223 C 
BRANCH  21  22
ATOM     22  C   UNK     1       3.475  -5.469  24.848  0.00  0.00    +0.189 C 
BRANCH  22  23
ATOM     23  N   UNK     1       3.056  -4.865  26.131  0.00  0.00    -0.317 NA
ATOM     24  H   UNK     1       2.629  -5.523  26.778  0.00  0.00    +0.119 HD
ATOM     25  H   UNK     1       3.752  -4.249  26.541  0.00  0.00    +0.119 HD
ENDBRANCH  22  23
BRANCH  22  26
ATOM     26  C   UNK     1       4.261  -6.774  25.032  0.00  0.00    +0.324 C 
ATOM     27  O   UNK     1       4.616  -7.212  26.118  0.00  0.00    -0.249 OA
BRANCH  26  28
ATOM     28  O   UNK     1       4.543  -7.415  23.874  0.00  0.00    -0.479 OA
ATOM     29  H   UNK     1       4.714  -6.770  23.163  0.00  0.00    +0.295 HD
ENDBRANCH  26  28
ENDBRANCH  22  26
ENDBRANCH  21  22
ENDBRANCH  20  21
ENDBRANCH  17  20
ENDBRANCH  16  17
ENDBRANCH   1  16
TORSDOF 21
ENDMDL
MODEL 3
REMARK VINA RESULT:      -4.6      2.331      4.057
REMARK  Name = 
REMARK  22 active torsions:
REMARK  status: ('A' for Active; 'I' for Inactive)
REMARK    1  A    between atoms: C_2  and  N_3
REMARK    2  A    between atoms: C_2  and  C_4
REMARK    3  A    between atoms: C_2  and  C_25
REMARK    4  A    between atoms: C_4  and  O_5
REMARK    5  A    between atoms: O_5  and  S_6
REMARK    6  A    between atoms: S_6  and  C_9
REMARK    7  A    between atoms: C_9  and  C_10
REMARK    8  A    between atoms: C_10  and  C_11
REMARK    9  A    between atoms: C_11  and  C_12
REMARK   10  A    between atoms: C_12  and  C_13
REMARK   11  A    between atoms: C_13  and  C_14
REMARK   12  A    between atoms: C_14  and  C_15
REMARK   13  A    between atoms: C_15  and  C_16
REMARK   14  A    between atoms: C_16  and  C_17
REMARK   15  A    between atoms: C_17  and  C_18
REMARK   16  A    between atoms: C_18  and  C_19
REMARK   17  A    between atoms: C_19  and  C_20
REMARK   18  A    between atoms: C_20  and  C_21
REMARK   19  A    between atoms: C_21  and  C_22
REMARK   20  A    between atoms: C_22  and  C_23
REMARK   21  A    between atoms: C_23  and  C_24
REMARK   22  A    between atoms: C_25  and  O_26
REMARK                            x       y       z     vdW  Elec       q    Type
REMARK                         _______ _______ _______ _____ _____    ______ ____
ROOT
ATOM      1  C   UNK     1       7.117  -2.738  26.133  0.00  0.00    +0.025 C 
ENDROOT
BRANCH   1   2
ATOM      2  C   UNK     1       7.049  -1.235  25.866  0.00  0.00    +0.002 C 
BRANCH   2   3
ATOM      3  C   UNK     1       6.012  -0.874  24.802  0.00  0.00    +0.000 C 
BRANCH   3   4
ATOM      4  C   UNK     1       6.675  -0.368  23.526  0.00  0.00    +0.000 C 
BRANCH   4   5
ATOM      5  C   UNK     1       7.013  -1.538  22.605  0.00  0.00    +0.000 C 
BRANCH   5   6
ATOM      6  C   UNK     1       8.520  -1.668  22.424  0.00  0.00    -0.000 C 
BRANCH   6   7
ATOM      7  C   UNK     1       9.072  -0.497  21.619  0.00  0.00    -0.000 C 
BRANCH   7   8
ATOM      8  C   UNK     1      10.148   0.237  22.410  0.00  0.00    -0.000 C 
BRANCH   8   9
ATOM      9  C   UNK     1      10.422  -0.463  23.736  0.00  0.00    -0.000 C 
BRANCH   9  10
ATOM     10  C   UNK     1      10.224   0.498  24.903  0.00  0.00    -0.000 C 
BRANCH  10  11
ATOM     11  C   UNK     1       9.746   1.859  24.411  0.00  0.00    -0.000 C 
BRANCH  11  12
ATOM     12  C   UNK     1       8.440   2.258  25.093  0.00  0.00    -0.000 C 
BRANCH  12  13
ATOM     13  C   UNK     1       7.715   3.334  24.287  0.00  0.00    -0.000 C 
BRANCH  13  14
ATOM     14  C   UNK     1       8.003   3.190  22.795  0.00  0.00    -0.003 C 
ATOM     15  C   UNK     1       6.716   3.039  22.001  0.00  0.00    +0.004 C 
ENDBRANCH  13  14
ENDBRANCH  12  13
ENDBRANCH  11  12
ENDBRANCH  10  11
ENDBRANCH   9  10
ENDBRANCH   8   9
ENDBRANCH   7   8
ENDBRANCH   6   7
ENDBRANCH   5   6
ENDBRANCH   4   5
ENDBRANCH   3   4
ENDBRANCH   2   3
ENDBRANCH   1   2
BRANCH   1  16
ATOM     16  C   UNK     1       8.398  -3.382  25.614  0.00  0.00    +0.198 C 
BRANCH  16  17
ATOM     17  S   UNK     1       8.264  -5.155  25.450  0.00  0.00    +0.082 S 
ATOM     18  O   UNK     1       9.406  -5.652  24.713  0.00  0.00    -0.147 OA
ATOM     19  O   UNK     1       7.887  -5.707  26.734  0.00  0.00    -0.147 OA
BRANCH  17  20
ATOM     20  O   UNK     1       6.963  -5.204  24.464  0.00  0.00    -0.236 OA
BRANCH  20  21
ATOM     21  C   UNK     1       7.237  -5.131  23.066  0.00  0.00    +0.223 C 
BRANCH  21  22
ATOM     22  C   UNK     1       6.331  -6.079  22.273  0.00  0.00    +0.189 C 
BRANCH  22  23
ATOM     23  N   UNK     1       6.303  -5.739  20.834  0.00  0.00    -0.317 NA
ATOM     24  H   UNK     1       5.636  -6.282  20.294  0.00  0.00    +0.119 HD
ATOM     25  H   UNK     1       6.296  -4.740  20.649  0.00  0.00    +0.119 HD
ENDBRANCH  22  23
BRANCH  22  26
ATOM     26  C   UNK     1       4.935  -6.098  22.908  0.00  0.00    +0.324 C 
ATOM     27  O   UNK     1       4.081  -5.244  22.711  0.00  0.00    -0.249 OA
BRANCH  26  28
ATOM     28  O   UNK     1       4.716  -7.153  23.727  0.00  0.00    -0.479 OA
ATOM     29  H   UNK     1       5.406  -7.197  24.414  0.00  0.00    +0.295 HD
ENDBRANCH  26  28
ENDBRANCH  22  26
ENDBRANCH  21  22
ENDBRANCH  20  21
ENDBRANCH  17  20
ENDBRANCH  16  17
ENDBRANCH   1  16
TORSDOF 21
ENDMDL
MODEL 4
REMARK VINA RESULT:      -4.6      1.694      2.566
REMARK  Name = 
REMARK  22 active torsions:
REMARK  status: ('A' for Active; 'I' for Inactive)
REMARK    1  A    between atoms: C_2  and  N_3
REMARK    2  A    between atoms: C_2  and  C_4
REMARK    3  A    between atoms: C_2  and  C_25
REMARK    4  A    between atoms: C_4  and  O_5
REMARK    5  A    between atoms: O_5  and  S_6
REMARK    6  A    between atoms: S_6  and  C_9
REMARK    7  A    between atoms: C_9  and  C_10
REMARK    8  A    between atoms: C_10  and  C_11
REMARK    9  A    between atoms: C_11  and  C_12
REMARK   10  A    between atoms: C_12  and  C_13
REMARK   11  A    between atoms: C_13  and  C_14
REMARK   12  A    between atoms: C_14  and  C_15
REMARK   13  A    between atoms: C_15  and  C_16
REMARK   14  A    between atoms: C_16  and  C_17
REMARK   15  A    between atoms: C_17  and  C_18
REMARK   16  A    between atoms: C_18  and  C_19
REMARK   17  A    between atoms: C_19  and  C_20
REMARK   18  A    between atoms: C_20  and  C_21
REMARK   19  A    between atoms: C_21  and  C_22
REMARK   20  A    between atoms: C_22  and  C_23
REMARK   21  A    between atoms: C_23  and  C_24
REMARK   22  A    between atoms: C_25  and  O_26
REMARK                            x       y       z     vdW  Elec       q    Type
REMARK                         _______ _______ _______ _____ _____    ______ ____
ROOT
ATOM      1  C   UNK     1       5.456  -2.073  24.633  0.00  0.00    +0.025 C 
ENDROOT
BRANCH   1   2
ATOM      2  C   UNK     1       6.097  -2.105  26.020  0.00  0.00    +0.002 C 
BRANCH   2   3
ATOM      3  C   UNK     1       6.313  -0.708  26.601  0.00  0.00    +0.000 C 
BRANCH   3   4
ATOM      4  C   UNK     1       7.786  -0.446  26.891  0.00  0.00    +0.000 C 
BRANCH   4   5
ATOM      5  C   UNK     1       8.650  -1.544  26.275  0.00  0.00    +0.000 C 
BRANCH   5   6
ATOM      6  C   UNK     1       9.222  -1.097  24.936  0.00  0.00    -0.000 C 
BRANCH   6   7
ATOM      7  C   UNK     1      10.136   0.110  25.114  0.00  0.00    -0.000 C 
BRANCH   7   8
ATOM      8  C   UNK     1      10.585   0.647  23.760  0.00  0.00    -0.000 C 
BRANCH   8   9
ATOM      9  C   UNK     1      10.156  -0.287  22.634  0.00  0.00    -0.000 C 
BRANCH   9  10
ATOM     10  C   UNK     1       9.424   0.485  21.542  0.00  0.00    -0.000 C 
BRANCH  10  11
ATOM     11  C   UNK     1       8.557   1.585  22.142  0.00  0.00    -0.000 C 
BRANCH  11  12
ATOM     12  C   UNK     1       7.195   1.037  22.564  0.00  0.00    -0.000 C 
BRANCH  12  13
ATOM     13  C   UNK     1       6.699   1.735  23.827  0.00  0.00    -0.000 C 
BRANCH  13  14
ATOM     14  C   UNK     1       7.650   2.853  24.248  0.00  0.00    -0.003 C 
ATOM     15  C   UNK     1       7.719   2.972  25.762  0.00  0.00    +0.004 C 
ENDBRANCH  13  14
ENDBRANCH  12  13
ENDBRANCH  11  12
ENDBRANCH  10  11
ENDBRANCH   9  10
ENDBRANCH   8   9
ENDBRANCH   7   8
ENDBRANCH   6   7
ENDBRANCH   5   6
ENDBRANCH   4   5
ENDBRANCH   3   4
ENDBRANCH   2   3
ENDBRANCH   1   2
BRANCH   1  16
ATOM     16  C   UNK     1       4.835  -3.406  24.228  0.00  0.00    +0.198 C 
BRANCH  16  17
ATOM     17  S   UNK     1       5.647  -4.147  22.820  0.00  0.00    +0.082 S 
ATOM     18  O   UNK     1       5.331  -5.558  22.778  0.00  0.00    -0.147 OA
ATOM     19  O   UNK     1       5.447  -3.287  21.672  0.00  0.00    -0.147 OA
BRANCH  17  20
ATOM     20  O   UNK     1       7.191  -3.985  23.324  0.00  0.00    -0.236 OA
BRANCH  20  21
ATOM     21  C   UNK     1       7.841  -5.187  23.736  0.00  0.00    +0.223 C 
BRANCH  21  22
ATOM     22  C   UNK     1       8.497  -5.019  25.110  0.00  0.00    +0.189 C 
BRANCH  22  23
ATOM     23  N   UNK     1       9.849  -5.617  25.152  0.00  0.00    -0.317 NA
ATOM     24  H   UNK     1       9.851  -6.627  25.269  0.00  0.00    +0.119 HD
ATOM     25  H   UNK     1      10.475  -5.266  24.432  0.00  0.00    +0.119 HD
ENDBRANCH  22  23
BRANCH  22  26
ATOM     26  C   UNK     1       7.564  -5.581  26.191  0.00  0.00    +0.324 C 
ATOM     27  O   UNK     1       6.410  -5.934  25.984  0.00  0.00    -0.249 OA
BRANCH  26  28
ATOM     28  O   UNK     1       8.126  -5.655  27.420  0.00  0.00    -0.479 OA
ATOM     29  H   UNK     1       7.461  -5.465  28.108  0.00  0.00    +0.295 HD
ENDBRANCH  26  28
ENDBRANCH  22  26
ENDBRANCH  21  22
ENDBRANCH  20  21
ENDBRANCH  17  20
ENDBRANCH  16  17
ENDBRANCH   1  16
TORSDOF 21
ENDMDL
MODEL 5
REMARK VINA RESULT:      -4.6      2.017      2.801
REMARK  Name = 
REMARK  22 active torsions:
REMARK  status: ('A' for Active; 'I' for Inactive)
REMARK    1  A    between atoms: C_2  and  N_3
REMARK    2  A    between atoms: C_2  and  C_4
REMARK    3  A    between atoms: C_2  and  C_25
REMARK    4  A    between atoms: C_4  and  O_5
REMARK    5  A    between atoms: O_5  and  S_6
REMARK    6  A    between atoms: S_6  and  C_9
REMARK    7  A    between atoms: C_9  and  C_10
REMARK    8  A    between atoms: C_10  and  C_11
REMARK    9  A    between atoms: C_11  and  C_12
REMARK   10  A    between atoms: C_12  and  C_13
REMARK   11  A    between atoms: C_13  and  C_14
REMARK   12  A    between atoms: C_14  and  C_15
REMARK   13  A    between atoms: C_15  and  C_16
REMARK   14  A    between atoms: C_16  and  C_17
REMARK   15  A    between atoms: C_17  and  C_18
REMARK   16  A    between atoms: C_18  and  C_19
REMARK   17  A    between atoms: C_19  and  C_20
REMARK   18  A    between atoms: C_20  and  C_21
REMARK   19  A    between atoms: C_21  and  C_22
REMARK   20  A    between atoms: C_22  and  C_23
REMARK   21  A    between atoms: C_23  and  C_24
REMARK   22  A    between atoms: C_25  and  O_26
REMARK                            x       y       z     vdW  Elec       q    Type
REMARK                         _______ _______ _______ _____ _____    ______ ____
ROOT
ATOM      1  C   UNK     1       7.529  -1.598  23.268  0.00  0.00    +0.025 C 
ENDROOT
BRANCH   1   2
ATOM      2  C   UNK     1       8.249  -1.048  24.499  0.00  0.00    +0.002 C 
BRANCH   2   3
ATOM      3  C   UNK     1       9.769  -1.033  24.333  0.00  0.00    +0.000 C 
BRANCH   3   4
ATOM      4  C   UNK     1      10.375   0.263  24.859  0.00  0.00    +0.000 C 
BRANCH   4   5
ATOM      5  C   UNK     1       9.551   1.460  24.391  0.00  0.00    +0.000 C 
BRANCH   5   6
ATOM      6  C   UNK     1      10.117   2.035  23.099  0.00  0.00    -0.000 C 
BRANCH   6   7
ATOM      7  C   UNK     1       9.071   2.006  21.990  0.00  0.00    -0.000 C 
BRANCH   7   8
ATOM      8  C   UNK     1       7.666   1.992  22.579  0.00  0.00    -0.000 C 
BRANCH   8   9
ATOM      9  C   UNK     1       6.813   3.105  21.982  0.00  0.00    -0.000 C 
BRANCH   9  10
ATOM     10  C   UNK     1       7.343   4.473  22.397  0.00  0.00    -0.000 C 
BRANCH  10  11
ATOM     11  C   UNK     1       6.962   4.788  23.839  0.00  0.00    -0.000 C 
BRANCH  11  12
ATOM     12  C   UNK     1       7.877   5.862  24.423  0.00  0.00    -0.000 C 
BRANCH  12  13
ATOM     13  C   UNK     1       9.303   5.336  24.571  0.00  0.00    -0.000 C 
BRANCH  13  14
ATOM     14  C   UNK     1      10.272   6.118  23.688  0.00  0.00    -0.003 C 
ATOM     15  C   UNK     1      11.633   5.445  23.640  0.00  0.00    +0.004 C 
ENDBRANCH  13  14
ENDBRANCH  12  13
ENDBRANCH  11  12
ENDBRANCH  10  11
ENDBRANCH   9  10
ENDBRANCH   8   9
ENDBRANCH   7   8
ENDBRANCH   6   7
ENDBRANCH   5   6
ENDBRANCH   4   5
ENDBRANCH   3   4
ENDBRANCH   2   3
ENDBRANCH   1   2
BRANCH   1  16
ATOM     16  C   UNK     1       6.175  -2.220  23.594  0.00  0.00    +0.198 C 
BRANCH  16  17
ATOM     17  S   UNK     1       5.970  -3.844  22.881  0.00  0.00    +0.082 S 
ATOM     18  O   UNK     1       4.558  -4.138  22.768  0.00  0.00    -0.147 OA
ATOM     19  O   UNK     1       6.866  -3.964  21.751  0.00  0.00    -0.147 OA
BRANCH  17  20
ATOM     20  O   UNK     1       6.576  -4.724  24.116  0.00  0.00    -0.236 OA
BRANCH  20  21
ATOM     21  C   UNK     1       7.914  -5.189  23.951  0.00  0.00    +0.223 C 
BRANCH  21  22
ATOM     22  C   UNK     1       8.779  -4.833  25.166  0.00  0.00    +0.189 C 
BRANCH  22  23
ATOM     23  N   UNK     1       9.962  -5.714  25.276  0.00  0.00    -0.317 NA
ATOM     24  H   UNK     1      10.211  -6.182  24.409  0.00  0.00    +0.119 HD
ATOM     25  H   UNK     1      10.739  -5.295  25.778  0.00  0.00    +0.119 HD
ENDBRANCH  22  23
BRANCH  22  26
ATOM     26  C   UNK     1       7.908  -4.843  26.429  0.00  0.00    +0.324 C 
ATOM     27  O   UNK     1       7.654  -5.849  27.078  0.00  0.00    -0.249 OA
BRANCH  26  28
ATOM     28  O   UNK     1       7.428  -3.626  26.777  0.00  0.00    -0.479 OA
ATOM     29  H   UNK     1       6.939  -3.230  26.032  0.00  0.00    +0.295 HD
ENDBRANCH  26  28
ENDBRANCH  22  26
ENDBRANCH  21  22
ENDBRANCH  20  21
ENDBRANCH  17  20
ENDBRANCH  16  17
ENDBRANCH   1  16
TORSDOF 21
ENDMDL
MODEL 6
REMARK VINA RESULT:      -4.6      2.525      4.432
REMARK  Name = 
REMARK  22 active torsions:
REMARK  status: ('A' for Active; 'I' for Inactive)
REMARK    1  A    between atoms: C_2  and  N_3
REMARK    2  A    between atoms: C_2  and  C_4
REMARK    3  A    between atoms: C_2  and  C_25
REMARK    4  A    between atoms: C_4  and  O_5
REMARK    5  A    between atoms: O_5  and  S_6
REMARK    6  A    between atoms: S_6  and  C_9
REMARK    7  A    between atoms: C_9  and  C_10
REMARK    8  A    between atoms: C_10  and  C_11
REMARK    9  A    between atoms: C_11  and  C_12
REMARK   10  A    between atoms: C_12  and  C_13
REMARK   11  A    between atoms: C_13  and  C_14
REMARK   12  A    between atoms: C_14  and  C_15
REMARK   13  A    between atoms: C_15  and  C_16
REMARK   14  A    between atoms: C_16  and  C_17
REMARK   15  A    between atoms: C_17  and  C_18
REMARK   16  A    between atoms: C_18  and  C_19
REMARK   17  A    between atoms: C_19  and  C_20
REMARK   18  A    between atoms: C_20  and  C_21
REMARK   19  A    between atoms: C_21  and  C_22
REMARK   20  A    between atoms: C_22  and  C_23
REMARK   21  A    between atoms: C_23  and  C_24
REMARK   22  A    between atoms: C_25  and  O_26
REMARK                            x       y       z     vdW  Elec       q    Type
REMARK                         _______ _______ _______ _____ _____    ______ ____
ROOT
ATOM      1  C   UNK     1       9.771   0.906  24.160  0.00  0.00    +0.025 C 
ENDROOT
BRANCH   1   2
ATOM      2  C   UNK     1      10.240   1.324  22.767  0.00  0.00    +0.002 C 
BRANCH   2   3
ATOM      3  C   UNK     1       9.157   1.143  21.703  0.00  0.00    +0.000 C 
BRANCH   3   4
ATOM      4  C   UNK     1       8.133   2.272  21.751  0.00  0.00    +0.000 C 
BRANCH   4   5
ATOM      5  C   UNK     1       6.784   1.743  22.233  0.00  0.00    +0.000 C 
BRANCH   5   6
ATOM      6  C   UNK     1       5.850   2.891  22.592  0.00  0.00    -0.000 C 
BRANCH   6   7
ATOM      7  C   UNK     1       6.623   4.038  23.234  0.00  0.00    -0.000 C 
BRANCH   7   8
ATOM      8  C   UNK     1       6.463   4.010  24.749  0.00  0.00    -0.000 C 
BRANCH   8   9
ATOM      9  C   UNK     1       7.788   3.694  25.431  0.00  0.00    -0.000 C 
BRANCH   9  10
ATOM     10  C   UNK     1       8.934   4.437  24.753  0.00  0.00    -0.000 C 
BRANCH  10  11
ATOM     11  C   UNK     1       9.119   5.822  25.363  0.00  0.00    -0.000 C 
BRANCH  11  12
ATOM     12  C   UNK     1      10.232   6.588  24.652  0.00  0.00    -0.000 C 
BRANCH  12  13
ATOM     13  C   UNK     1      10.893   5.717  23.587  0.00  0.00    -0.000 C 
BRANCH  13  14
ATOM     14  C   UNK     1      12.412   5.717  23.741  0.00  0.00    -0.003 C 
ATOM     15  C   UNK     1      13.099   5.482  22.406  0.00  0.00    +0.004 C 
ENDBRANCH  13  14
ENDBRANCH  12  13
ENDBRANCH  11  12
ENDBRANCH  10  11
ENDBRANCH   9  10
ENDBRANCH   8   9
ENDBRANCH   7   8
ENDBRANCH   6   7
ENDBRANCH   5   6
ENDBRANCH   4   5
ENDBRANCH   3   4
ENDBRANCH   2   3
ENDBRANCH   1   2
BRANCH   1  16
ATOM     16  C   UNK     1      10.077  -0.552  24.484  0.00  0.00    +0.198 C 
BRANCH  16  17
ATOM     17  S   UNK     1       8.625  -1.591  24.438  0.00  0.00    +0.082 S 
ATOM     18  O   UNK     1       7.546  -0.928  25.138  0.00  0.00    -0.147 OA
ATOM     19  O   UNK     1       8.464  -2.093  23.091  0.00  0.00    -0.147 OA
BRANCH  17  20
ATOM     20  O   UNK     1       9.173  -2.806  25.381  0.00  0.00    -0.236 OA
BRANCH  20  21
ATOM     21  C   UNK     1       8.230  -3.354  26.302  0.00  0.00    +0.223 C 
BRANCH  21  22
ATOM     22  C   UNK     1       7.983  -4.840  26.023  0.00  0.00    +0.189 C 
BRANCH  22  23
ATOM     23  N   UNK     1       8.089  -5.655  27.253  0.00  0.00    -0.317 NA
ATOM     24  H   UNK     1       8.035  -6.658  27.090  0.00  0.00    +0.119 HD
ATOM     25  H   UNK     1       8.834  -5.360  27.877  0.00  0.00    +0.119 HD
ENDBRANCH  22  23
BRANCH  22  26
ATOM     26  C   UNK     1       8.929  -5.313  24.911  0.00  0.00    +0.324 C 
ATOM     27  O   UNK     1       8.585  -5.492  23.751  0.00  0.00    -0.249 OA
BRANCH  26  28
ATOM     28  O   UNK     1      10.200  -5.528  25.323  0.00  0.00    -0.479 OA
ATOM     29  H   UNK     1      10.710  -5.980  24.627  0.00  0.00    +0.295 HD
ENDBRANCH  26  28
ENDBRANCH  22  26
ENDBRANCH  21  22
ENDBRANCH  20  21
ENDBRANCH  17  20
ENDBRANCH  16  17
ENDBRANCH   1  16
TORSDOF 21
ENDMDL
MODEL 7
REMARK VINA RESULT:      -4.6      2.097      4.152
REMARK  Name = 
REMARK  22 active torsions:
REMARK  status: ('A' for Active; 'I' for Inactive)
REMARK    1  A    between atoms: C_2  and  N_3
REMARK    2  A    between atoms: C_2  and  C_4
REMARK    3  A    between atoms: C_2  and  C_25
REMARK    4  A    between atoms: C_4  and  O_5
REMARK    5  A    between atoms: O_5  and  S_6
REMARK    6  A    between atoms: S_6  and  C_9
REMARK    7  A    between atoms: C_9  and  C_10
REMARK    8  A    between atoms: C_10  and  C_11
REMARK    9  A    between atoms: C_11  and  C_12
REMARK   10  A    between atoms: C_12  and  C_13
REMARK   11  A    between atoms: C_13  and  C_14
REMARK   12  A    between atoms: C_14  and  C_15
REMARK   13  A    between atoms: C_15  and  C_16
REMARK   14  A    between atoms: C_16  and  C_17
REMARK   15  A    between atoms: C_17  and  C_18
REMARK   16  A    between atoms: C_18  and  C_19
REMARK   17  A    between atoms: C_19  and  C_20
REMARK   18  A    between atoms: C_20  and  C_21
REMARK   19  A    between atoms: C_21  and  C_22
REMARK   20  A    between atoms: C_22  and  C_23
REMARK   21  A    between atoms: C_23  and  C_24
REMARK   22  A    between atoms: C_25  and  O_26
REMARK                            x       y       z     vdW  Elec       q    Type
REMARK                         _______ _______ _______ _____ _____    ______ ____
ROOT
ATOM      1  C   UNK     1       8.330  -2.408  26.256  0.00  0.00    +0.025 C 
ENDROOT
BRANCH   1   2
ATOM      2  C   UNK     1       7.968  -0.968  25.891  0.00  0.00    +0.002 C 
BRANCH   2   3
ATOM      3  C   UNK     1       7.035  -0.885  24.683  0.00  0.00    +0.000 C 
BRANCH   3   4
ATOM      4  C   UNK     1       6.492   0.526  24.493  0.00  0.00    +0.000 C 
BRANCH   4   5
ATOM      5  C   UNK     1       6.601   0.943  23.028  0.00  0.00    +0.000 C 
BRANCH   5   6
ATOM      6  C   UNK     1       6.246   2.414  22.855  0.00  0.00    -0.000 C 
BRANCH   6   7
ATOM      7  C   UNK     1       7.374   3.165  22.157  0.00  0.00    -0.000 C 
BRANCH   7   8
ATOM      8  C   UNK     1       7.810   4.368  22.984  0.00  0.00    -0.000 C 
BRANCH   8   9
ATOM      9  C   UNK     1       8.783   3.953  24.080  0.00  0.00    -0.000 C 
BRANCH   9  10
ATOM     10  C   UNK     1       9.848   3.012  23.528  0.00  0.00    -0.000 C 
BRANCH  10  11
ATOM     11  C   UNK     1       9.988   1.775  24.408  0.00  0.00    -0.000 C 
BRANCH  11  12
ATOM     12  C   UNK     1      10.598   0.615  23.626  0.00  0.00    -0.000 C 
BRANCH  12  13
ATOM     13  C   UNK     1      10.037   0.564  22.207  0.00  0.00    -0.000 C 
BRANCH  13  14
ATOM     14  C   UNK     1       9.636  -0.858  21.824  0.00  0.00    -0.003 C 
ATOM     15  C   UNK     1      10.136  -1.863  22.849  0.00  0.00    +0.004 C 
ENDBRANCH  13  14
ENDBRANCH  12  13
ENDBRANCH  11  12
ENDBRANCH  10  11
ENDBRANCH   9  10
ENDBRANCH   8   9
ENDBRANCH   7   8
ENDBRANCH   6   7
ENDBRANCH   5   6
ENDBRANCH   4   5
ENDBRANCH   3   4
ENDBRANCH   2   3
ENDBRANCH   1   2
BRANCH   1  16
ATOM     16  C   UNK     1       7.140  -3.359  26.194  0.00  0.00    +0.198 C 
BRANCH  16  17
ATOM     17  S   UNK     1       7.599  -5.008  25.685  0.00  0.00    +0.082 S 
ATOM     18  O   UNK     1       8.749  -4.932  24.809  0.00  0.00    -0.147 OA
ATOM     19  O   UNK     1       7.585  -5.867  26.850  0.00  0.00    -0.147 OA
BRANCH  17  20
ATOM     20  O   UNK     1       6.288  -5.350  24.775  0.00  0.00    -0.236 OA
BRANCH  20  21
ATOM     21  C   UNK     1       5.401  -4.260  24.526  0.00  0.00    +0.223 C 
BRANCH  21  22
ATOM     22  C   UNK     1       4.951  -4.234  23.062  0.00  0.00    +0.189 C 
BRANCH  22  23
ATOM     23  N   UNK     1       3.722  -5.029  22.849  0.00  0.00    -0.317 NA
ATOM     24  H   UNK     1       3.047  -4.957  23.607  0.00  0.00    +0.119 HD
ATOM     25  H   UNK     1       3.331  -4.939  21.916  0.00  0.00    +0.119 HD
ENDBRANCH  22  23
BRANCH  22  26
ATOM     26  C   UNK     1       6.112  -4.682  22.165  0.00  0.00    +0.324 C 
ATOM     27  O   UNK     1       6.050  -5.618  21.380  0.00  0.00    -0.249 OA
BRANCH  26  28
ATOM     28  O   UNK     1       7.239  -3.948  22.316  0.00  0.00    -0.479 OA
ATOM     29  H   UNK     1       8.022  -4.529  22.333  0.00  0.00    +0.295 HD
ENDBRANCH  26  28
ENDBRANCH  22  26
ENDBRANCH  21  22
ENDBRANCH  20  21
ENDBRANCH  17  20
ENDBRANCH  16  17
ENDBRANCH   1  16
TORSDOF 21
ENDMDL
MODEL 8
REMARK VINA RESULT:      -4.6      2.195      3.497
REMARK  Name = 
REMARK  22 active torsions:
REMARK  status: ('A' for Active; 'I' for Inactive)
REMARK    1  A    between atoms: C_2  and  N_3
REMARK    2  A    between atoms: C_2  and  C_4
REMARK    3  A    between atoms: C_2  and  C_25
REMARK    4  A    between atoms: C_4  and  O_5
REMARK    5  A    between atoms: O_5  and  S_6
REMARK    6  A    between atoms: S_6  and  C_9
REMARK    7  A    between atoms: C_9  and  C_10
REMARK    8  A    between atoms: C_10  and  C_11
REMARK    9  A    between atoms: C_11  and  C_12
REMARK   10  A    between atoms: C_12  and  C_13
REMARK   11  A    between atoms: C_13  and  C_14
REMARK   12  A    between atoms: C_14  and  C_15
REMARK   13  A    between atoms: C_15  and  C_16
REMARK   14  A    between atoms: C_16  and  C_17
REMARK   15  A    between atoms: C_17  and  C_18
REMARK   16  A    between atoms: C_18  and  C_19
REMARK   17  A    between atoms: C_19  and  C_20
REMARK   18  A    between atoms: C_20  and  C_21
REMARK   19  A    between atoms: C_21  and  C_22
REMARK   20  A    between atoms: C_22  and  C_23
REMARK   21  A    between atoms: C_23  and  C_24
REMARK   22  A    between atoms: C_25  and  O_26
REMARK                            x       y       z     vdW  Elec       q    Type
REMARK                         _______ _______ _______ _____ _____    ______ ____
ROOT
ATOM      1  C   UNK     1       8.439  -1.983  26.193  0.00  0.00    +0.025 C 
ENDROOT
BRANCH   1   2
ATOM      2  C   UNK     1       7.733  -0.740  25.651  0.00  0.00    +0.002 C 
BRANCH   2   3
ATOM      3  C   UNK     1       8.705   0.395  25.330  0.00  0.00    +0.000 C 
BRANCH   3   4
ATOM      4  C   UNK     1      10.140  -0.110  25.236  0.00  0.00    +0.000 C 
BRANCH   4   5
ATOM      5  C   UNK     1      10.967   0.810  24.339  0.00  0.00    +0.000 C 
BRANCH   5   6
ATOM      6  C   UNK     1      10.105   1.931  23.773  0.00  0.00    -0.000 C 
BRANCH   6   7
ATOM      7  C   UNK     1      10.156   1.937  22.249  0.00  0.00    -0.000 C 
BRANCH   7   8
ATOM      8  C   UNK     1       8.961   1.190  21.670  0.00  0.00    -0.000 C 
BRANCH   8   9
ATOM      9  C   UNK     1       7.767   2.121  21.499  0.00  0.00    -0.000 C 
BRANCH   9  10
ATOM     10  C   UNK     1       6.717   1.854  22.572  0.00  0.00    -0.000 C 
BRANCH  10  11
ATOM     11  C   UNK     1       6.527   3.077  23.462  0.00  0.00    -0.000 C 
BRANCH  11  12
ATOM     12  C   UNK     1       7.250   4.291  22.883  0.00  0.00    -0.000 C 
BRANCH  12  13
ATOM     13  C   UNK     1       8.059   5.005  23.963  0.00  0.00    -0.000 C 
BRANCH  13  14
ATOM     14  C   UNK     1       8.995   6.044  23.351  0.00  0.00    -0.003 C 
ATOM     15  C   UNK     1      10.440   5.773  23.735  0.00  0.00    +0.004 C 
ENDBRANCH  13  14
ENDBRANCH  12  13
ENDBRANCH  11  12
ENDBRANCH  10  11
ENDBRANCH   9  10
ENDBRANCH   8   9
ENDBRANCH   7   8
ENDBRANCH   6   7
ENDBRANCH   5   6
ENDBRANCH   4   5
ENDBRANCH   3   4
ENDBRANCH   2   3
ENDBRANCH   1   2
BRANCH   1  16
ATOM     16  C   UNK     1       7.614  -3.256  26.038  0.00  0.00    +0.198 C 
BRANCH  16  17
ATOM     17  S   UNK     1       8.314  -4.392  24.851  0.00  0.00    +0.082 S 
ATOM     18  O   UNK     1       9.156  -3.659  23.931  0.00  0.00    -0.147 OA
ATOM     19  O   UNK     1       8.795  -5.558  25.562  0.00  0.00    -0.147 OA
BRANCH  17  20
ATOM     20  O   UNK     1       6.938  -4.796  24.070  0.00  0.00    -0.236 OA
BRANCH  20  21
ATOM     21  C   UNK     1       5.764  -4.093  24.473  0.00  0.00    +0.223 C 
BRANCH  21  22
ATOM     22  C   UNK     1       4.906  -3.707  23.263  0.00  0.00    +0.189 C 
BRANCH  22  23
ATOM     23  N   UNK     1       3.960  -4.782  22.893  0.00  0.00    -0.317 NA
ATOM     24  H   UNK     1       4.368  -5.714  22.906  0.00  0.00    +0.119 HD
ATOM     25  H   UNK     1       3.053  -4.704  23.344  0.00  0.00    +0.119 HD
ENDBRANCH  22  23
BRANCH  22  26
ATOM     26  C   UNK     1       5.820  -3.293  22.102  0.00  0.00    +0.324 C 
ATOM     27  O   UNK     1       5.723  -3.731  20.964  0.00  0.00    -0.249 OA
BRANCH  26  28
ATOM     28  O   UNK     1       6.767  -2.388  22.444  0.00  0.00    -0.479 OA
ATOM     29  H   UNK     1       6.379  -1.681  22.991  0.00  0.00    +0.295 HD
ENDBRANCH  26  28
ENDBRANCH  22  26
ENDBRANCH  21  22
ENDBRANCH  20  21
ENDBRANCH  17  20
ENDBRANCH  16  17
ENDBRANCH   1  16
TORSDOF 21
ENDMDL
MODEL 9
REMARK VINA RESULT:      -4.6      1.915      2.802
REMARK  Name = 
REMARK  22 active torsions:
REMARK  status: ('A' for Active; 'I' for Inactive)
REMARK    1  A    between atoms: C_2  and  N_3
REMARK    2  A    between atoms: C_2  and  C_4
REMARK    3  A    between atoms: C_2  and  C_25
REMARK    4  A    between atoms: C_4  and  O_5
REMARK    5  A    between atoms: O_5  and  S_6
REMARK    6  A    between atoms: S_6  and  C_9
REMARK    7  A    between atoms: C_9  and  C_10
REMARK    8  A    between atoms: C_10  and  C_11
REMARK    9  A    between atoms: C_11  and  C_12
REMARK   10  A    between atoms: C_12  and  C_13
REMARK   11  A    between atoms: C_13  and  C_14
REMARK   12  A    between atoms: C_14  and  C_15
REMARK   13  A    between atoms: C_15  and  C_16
REMARK   14  A    between atoms: C_16  and  C_17
REMARK   15  A    between atoms: C_17  and  C_18
REMARK   16  A    between atoms: C_18  and  C_19
REMARK   17  A    between atoms: C_19  and  C_20
REMARK   18  A    between atoms: C_20  and  C_21
REMARK   19  A    between atoms: C_21  and  C_22
REMARK   20  A    between atoms: C_22  and  C_23
REMARK   21  A    between atoms: C_23  and  C_24
REMARK   22  A    between atoms: C_25  and  O_26
REMARK                            x       y       z     vdW  Elec       q    Type
REMARK                         _______ _______ _______ _____ _____    ______ ____
ROOT
ATOM      1  C   UNK     1       6.570  -1.612  23.853  0.00  0.00    +0.025 C 
ENDROOT
BRANCH   1   2
ATOM      2  C   UNK     1       6.785  -0.857  25.165  0.00  0.00    +0.002 C 
BRANCH   2   3
ATOM      3  C   UNK     1       8.256  -0.531  25.422  0.00  0.00    +0.000 C 
BRANCH   3   4
ATOM      4  C   UNK     1       9.177  -1.553  24.764  0.00  0.00    +0.000 C 
BRANCH   4   5
ATOM      5  C   UNK     1      10.199  -0.848  23.876  0.00  0.00    +0.000 C 
BRANCH   5   6
ATOM      6  C   UNK     1      10.181  -1.426  22.466  0.00  0.00    -0.000 C 
BRANCH   6   7
ATOM      7  C   UNK     1       9.428  -0.505  21.513  0.00  0.00    -0.000 C 
BRANCH   7   8
ATOM      8  C   UNK     1       9.712   0.955  21.843  0.00  0.00    -0.000 C 
BRANCH   8   9
ATOM      9  C   UNK     1       8.474   1.815  21.620  0.00  0.00    -0.000 C 
BRANCH   9  10
ATOM     10  C   UNK     1       7.726   2.035  22.930  0.00  0.00    -0.000 C 
BRANCH  10  11
ATOM     11  C   UNK     1       8.629   2.695  23.966  0.00  0.00    -0.000 C 
BRANCH  11  12
ATOM     12  C   UNK     1       8.996   4.116  23.545  0.00  0.00    -0.000 C 
BRANCH  12  13
ATOM     13  C   UNK     1       7.786   5.040  23.648  0.00  0.00    -0.000 C 
BRANCH  13  14
ATOM     14  C   UNK     1       7.176   5.304  22.274  0.00  0.00    -0.003 C 
ATOM     15  C   UNK     1       7.163   6.790  21.956  0.00  0.00    +0.004 C 
ENDBRANCH  13  14
ENDBRANCH  12  13
ENDBRANCH  11  12
ENDBRANCH  10  11
ENDBRANCH   9  10
ENDBRANCH   8   9
ENDBRANCH   7   8
ENDBRANCH   6   7
ENDBRANCH   5   6
ENDBRANCH   4   5
ENDBRANCH   3   4
ENDBRANCH   2   3
ENDBRANCH   1   2
BRANCH   1  16
ATOM     16  C   UNK     1       5.565  -2.752  23.975  0.00  0.00    +0.198 C 
BRANCH  16  17
ATOM     17  S   UNK     1       5.878  -4.076  22.818  0.00  0.00    +0.082 S 
ATOM     18  O   UNK     1       5.265  -5.291  23.309  0.00  0.00    -0.147 OA
ATOM     19  O   UNK     1       5.625  -3.583  21.480  0.00  0.00    -0.147 OA
BRANCH  17  20
ATOM     20  O   UNK     1       7.492  -4.198  23.027  0.00  0.00    -0.236 OA
BRANCH  20  21
ATOM     21  C   UNK     1       7.945  -5.369  23.706  0.00  0.00    +0.223 C 
BRANCH  21  22
ATOM     22  C   UNK     1       8.673  -5.009  25.006  0.00  0.00    +0.189 C 
BRANCH  22  23
ATOM     23  N   UNK     1       9.903  -5.810  25.187  0.00  0.00    -0.317 NA
ATOM     24  H   UNK     1      10.023  -6.177  26.128  0.00  0.00    +0.119 HD
ATOM     25  H   UNK     1      10.071  -6.478  24.440  0.00  0.00    +0.119 HD
ENDBRANCH  22  23
BRANCH  22  26
ATOM     26  C   UNK     1       7.700  -5.135  26.186  0.00  0.00    +0.324 C 
ATOM     27  O   UNK     1       7.831  -4.541  27.247  0.00  0.00    -0.249 OA
BRANCH  26  28
ATOM     28  O   UNK     1       6.666  -5.978  25.959  0.00  0.00    -0.479 OA
ATOM     29  H   UNK     1       6.366  -6.379  26.795  0.00  0.00    +0.295 HD
ENDBRANCH  26  28
ENDBRANCH  22  26
ENDBRANCH  21  22
ENDBRANCH  20  21
ENDBRANCH  17  20
ENDBRANCH  16  17
ENDBRANCH   1  16
TORSDOF 21
ENDMDL
