MODEL 1
REMARK VINA RESULT:      -5.5      0.000      0.000
REMARK  Name = 
REMARK  4 active torsions:
REMARK  status: ('A' for Active; 'I' for Inactive)
REMARK    1  A    between atoms: C_1  and  C_2
REMARK    2  A    between atoms: N_4  and  C_5
REMARK    3  A    between atoms: C_8  and  C_11
REMARK    4  A    between atoms: C_11  and  O_12
REMARK                            x       y       z     vdW  Elec       q    Type
REMARK                         _______ _______ _______ _____ _____    ______ ____
ROOT
ATOM      1  C   UNL     1      10.432   2.291  23.093  0.00  0.00    +0.033 A 
ATOM      2  C   UNL     1      10.770   1.459  24.169  0.00  0.00    +0.024 A 
ATOM      3  C   UNL     1      10.521   0.082  24.099  0.00  0.00    +0.017 A 
ATOM      4  C   UNL     1       9.952  -0.474  22.950  0.00  0.00    +0.059 A 
ATOM      5  C   UNL     1       9.696   0.341  21.846  0.00  0.00    +0.017 A 
ATOM      6  C   UNL     1       9.930   1.714  21.924  0.00  0.00    +0.024 A 
ENDROOT
BRANCH   1   9
ATOM      7  C   UNL     1      10.199   5.989  23.802  0.00  0.00    +0.109 C 
ATOM      8  C   UNL     1       9.738   4.558  23.856  0.00  0.00    +0.214 C 
ATOM      9  N   UNL     1      10.620   3.683  23.240  0.00  0.00    -0.286 N 
ATOM     10  H   UNL     1      11.530   4.049  22.987  0.00  0.00    +0.155 HD
ATOM     11  O   UNL     1       8.681   4.264  24.405  0.00  0.00    -0.276 OA
ENDBRANCH   1   9
BRANCH   4  12
ATOM     12  C   UNL     1       9.664  -1.928  22.926  0.00  0.00    +0.337 C 
ATOM     13  O   UNL     1      10.240  -2.727  23.644  0.00  0.00    -0.245 OA
BRANCH  12  14
ATOM     14  O   UNL     1       8.672  -2.275  22.079  0.00  0.00    -0.477 OA
ATOM     15  H   UNL     1       8.851  -3.055  21.523  0.00  0.00    +0.295 HD
ENDBRANCH  12  14
ENDBRANCH   4  12
TORSDOF 3
ENDMDL
MODEL 2
REMARK VINA RESULT:      -5.3      3.555      6.456
REMARK  Name = 
REMARK  4 active torsions:
REMARK  status: ('A' for Active; 'I' for Inactive)
REMARK    1  A    between atoms: C_1  and  C_2
REMARK    2  A    between atoms: N_4  and  C_5
REMARK    3  A    between atoms: C_8  and  C_11
REMARK    4  A    between atoms: C_11  and  O_12
REMARK                            x       y       z     vdW  Elec       q    Type
REMARK                         _______ _______ _______ _____ _____    ______ ____
ROOT
ATOM      1  C   UNL     1       7.942  -2.126  22.502  0.00  0.00    +0.033 A 
ATOM      2  C   UNL     1       9.093  -1.721  21.813  0.00  0.00    +0.024 A 
ATOM      3  C   UNL     1       9.369  -0.358  21.643  0.00  0.00    +0.017 A 
ATOM      4  C   UNL     1       8.509   0.606  22.174  0.00  0.00    +0.059 A 
ATOM      5  C   UNL     1       7.410   0.204  22.935  0.00  0.00    +0.017 A 
ATOM      6  C   UNL     1       7.129  -1.154  23.089  0.00  0.00    +0.024 A 
ENDROOT
BRANCH   1   9
ATOM      7  C   UNL     1       6.549  -5.623  22.248  0.00  0.00    +0.109 C 
ATOM      8  C   UNL     1       6.619  -4.155  21.923  0.00  0.00    +0.214 C 
ATOM      9  N   UNL     1       7.658  -3.507  22.574  0.00  0.00    -0.286 N 
ATOM     10  H   UNL     1       8.345  -4.089  23.040  0.00  0.00    +0.155 HD
ATOM     11  O   UNL     1       5.812  -3.649  21.151  0.00  0.00    -0.276 OA
ENDBRANCH   1   9
BRANCH   4  12
ATOM     12  C   UNL     1       8.809   2.040  21.940  0.00  0.00    +0.337 C 
ATOM     13  O   UNL     1       7.987   2.923  22.114  0.00  0.00    -0.245 OA
BRANCH  12  14
ATOM     14  O   UNL     1      10.085   2.277  21.571  0.00  0.00    -0.477 OA
ATOM     15  H   UNL     1      10.717   2.390  22.305  0.00  0.00    +0.295 HD
ENDBRANCH  12  14
ENDBRANCH   4  12
TORSDOF 3
ENDMDL
MODEL 3
REMARK VINA RESULT:      -5.2      2.945      5.822
REMARK  Name = 
REMARK  4 active torsions:
REMARK  status: ('A' for Active; 'I' for Inactive)
REMARK    1  A    between atoms: C_1  and  C_2
REMARK    2  A    between atoms: N_4  and  C_5
REMARK    3  A    between atoms: C_8  and  C_11
REMARK    4  A    between atoms: C_11  and  O_12
REMARK                            x       y       z     vdW  Elec       q    Type
REMARK                         _______ _______ _______ _____ _____    ______ ____
ROOT
ATOM      1  C   UNL     1       9.798  -1.987  23.908  0.00  0.00    +0.033 A 
ATOM      2  C   UNL     1       9.733  -0.949  24.846  0.00  0.00    +0.024 A 
ATOM      3  C   UNL     1       9.862   0.383  24.432  0.00  0.00    +0.017 A 
ATOM      4  C   UNL     1      10.038   0.686  23.079  0.00  0.00    +0.059 A 
ATOM      5  C   UNL     1      10.015  -0.341  22.135  0.00  0.00    +0.017 A 
ATOM      6  C   UNL     1       9.902  -1.668  22.553  0.00  0.00    +0.024 A 
ENDROOT
BRANCH   1   9
ATOM      7  C   UNL     1       8.877  -5.439  25.121  0.00  0.00    +0.109 C 
ATOM      8  C   UNL     1       8.601  -4.076  24.546  0.00  0.00    +0.214 C 
ATOM      9  N   UNL     1       9.750  -3.317  24.380  0.00  0.00    -0.286 N 
ATOM     10  H   UNL     1      10.637  -3.795  24.485  0.00  0.00    +0.155 HD
ATOM     11  O   UNL     1       7.455  -3.736  24.274  0.00  0.00    -0.276 OA
ENDBRANCH   1   9
BRANCH   4  12
ATOM     12  C   UNL     1      10.213   2.104  22.680  0.00  0.00    +0.337 C 
ATOM     13  O   UNL     1      10.665   2.950  23.432  0.00  0.00    -0.245 OA
BRANCH  12  14
ATOM     14  O   UNL     1       9.878   2.356  21.397  0.00  0.00    -0.477 OA
ATOM     15  H   UNL     1       9.165   1.798  21.036  0.00  0.00    +0.295 HD
ENDBRANCH  12  14
ENDBRANCH   4  12
TORSDOF 3
ENDMDL
MODEL 4
REMARK VINA RESULT:      -5.1      3.632      5.643
REMARK  Name = 
REMARK  4 active torsions:
REMARK  status: ('A' for Active; 'I' for Inactive)
REMARK    1  A    between atoms: C_1  and  C_2
REMARK    2  A    between atoms: N_4  and  C_5
REMARK    3  A    between atoms: C_8  and  C_11
REMARK    4  A    between atoms: C_11  and  O_12
REMARK                            x       y       z     vdW  Elec       q    Type
REMARK                         _______ _______ _______ _____ _____    ______ ____
ROOT
ATOM      1  C   UNL     1       8.141  -2.588  23.717  0.00  0.00    +0.033 A 
ATOM      2  C   UNL     1       7.159  -2.291  22.762  0.00  0.00    +0.024 A 
ATOM      3  C   UNL     1       6.540  -3.323  22.045  0.00  0.00    +0.017 A 
ATOM      4  C   UNL     1       6.883  -4.655  22.289  0.00  0.00    +0.059 A 
ATOM      5  C   UNL     1       7.797  -4.956  23.300  0.00  0.00    +0.017 A 
ATOM      6  C   UNL     1       8.423  -3.925  24.002  0.00  0.00    +0.024 A 
ENDROOT
BRANCH   1   9
ATOM      7  C   UNL     1      10.432   0.196  24.826  0.00  0.00    +0.109 C 
ATOM      8  C   UNL     1       9.941  -0.875  23.891  0.00  0.00    +0.214 C 
ATOM      9  N   UNL     1       8.800  -1.514  24.354  0.00  0.00    -0.286 N 
ATOM     10  H   UNL     1       8.327  -1.095  25.147  0.00  0.00    +0.155 HD
ATOM     11  O   UNL     1      10.534  -1.108  22.843  0.00  0.00    -0.276 OA
ENDBRANCH   1   9
BRANCH   4  12
ATOM     12  C   UNL     1       6.238  -5.720  21.482  0.00  0.00    +0.337 C 
ATOM     13  O   UNL     1       5.989  -5.589  20.296  0.00  0.00    -0.245 OA
BRANCH  12  14
ATOM     14  O   UNL     1       6.005  -6.859  22.167  0.00  0.00    -0.477 OA
ATOM     15  H   UNL     1       6.111  -7.682  21.655  0.00  0.00    +0.295 HD
ENDBRANCH  12  14
ENDBRANCH   4  12
TORSDOF 3
ENDMDL
MODEL 5
REMARK VINA RESULT:      -5.0      3.185      6.005
REMARK  Name = 
REMARK  4 active torsions:
REMARK  status: ('A' for Active; 'I' for Inactive)
REMARK    1  A    between atoms: C_1  and  C_2
REMARK    2  A    between atoms: N_4  and  C_5
REMARK    3  A    between atoms: C_8  and  C_11
REMARK    4  A    between atoms: C_11  and  O_12
REMARK                            x       y       z     vdW  Elec       q    Type
REMARK                         _______ _______ _______ _____ _____    ______ ____
ROOT
ATOM      1  C   UNL     1       9.360  -1.992  23.763  0.00  0.00    +0.033 A 
ATOM      2  C   UNL     1       8.522  -1.002  24.295  0.00  0.00    +0.024 A 
ATOM      3  C   UNL     1       8.401   0.236  23.652  0.00  0.00    +0.017 A 
ATOM      4  C   UNL     1       9.100   0.488  22.469  0.00  0.00    +0.059 A 
ATOM      5  C   UNL     1       9.865  -0.527  21.893  0.00  0.00    +0.017 A 
ATOM      6  C   UNL     1       9.996  -1.755  22.543  0.00  0.00    +0.024 A 
ENDROOT
BRANCH   1   9
ATOM      7  C   UNL     1       9.128  -5.427  25.305  0.00  0.00    +0.109 C 
ATOM      8  C   UNL     1       8.743  -4.333  24.346  0.00  0.00    +0.214 C 
ATOM      9  N   UNL     1       9.519  -3.193  24.489  0.00  0.00    -0.286 N 
ATOM     10  H   UNL     1      10.346  -3.268  25.070  0.00  0.00    +0.155 HD
ATOM     11  O   UNL     1       7.829  -4.500  23.546  0.00  0.00    -0.276 OA
ENDBRANCH   1   9
BRANCH   4  12
ATOM     12  C   UNL     1       8.981   1.825  21.838  0.00  0.00    +0.337 C 
ATOM     13  O   UNL     1       7.908   2.360  21.623  0.00  0.00    -0.245 OA
BRANCH  12  14
ATOM     14  O   UNL     1      10.168   2.413  21.577  0.00  0.00    -0.477 OA
ATOM     15  H   UNL     1      10.284   2.729  20.662  0.00  0.00    +0.295 HD
ENDBRANCH  12  14
ENDBRANCH   4  12
TORSDOF 3
ENDMDL
MODEL 6
REMARK VINA RESULT:      -5.0      3.145      4.360
REMARK  Name = 
REMARK  4 active torsions:
REMARK  status: ('A' for Active; 'I' for Inactive)
REMARK    1  A    between atoms: C_1  and  C_2
REMARK    2  A    between atoms: N_4  and  C_5
REMARK    3  A    between atoms: C_8  and  C_11
REMARK    4  A    between atoms: C_11  and  O_12
REMARK                            x       y       z     vdW  Elec       q    Type
REMARK                         _______ _______ _______ _____ _____    ______ ____
ROOT
ATOM      1  C   UNL     1       9.142  -1.030  24.484  0.00  0.00    +0.033 A 
ATOM      2  C   UNL     1       9.570  -2.175  23.799  0.00  0.00    +0.024 A 
ATOM      3  C   UNL     1       9.453  -3.437  24.396  0.00  0.00    +0.017 A 
ATOM      4  C   UNL     1       8.893  -3.565  25.669  0.00  0.00    +0.059 A 
ATOM      5  C   UNL     1       8.386  -2.436  26.315  0.00  0.00    +0.017 A 
ATOM      6  C   UNL     1       8.518  -1.178  25.724  0.00  0.00    +0.024 A 
ENDROOT
BRANCH   1   9
ATOM      7  C   UNL     1      10.384   2.336  23.318  0.00  0.00    +0.109 C 
ATOM      8  C   UNL     1      10.479   1.026  24.052  0.00  0.00    +0.214 C 
ATOM      9  N   UNL     1       9.358   0.229  23.881  0.00  0.00    -0.286 N 
ATOM     10  H   UNL     1       8.695   0.512  23.168  0.00  0.00    +0.155 HD
ATOM     11  O   UNL     1      11.475   0.754  24.713  0.00  0.00    -0.276 OA
ENDBRANCH   1   9
BRANCH   4  12
ATOM     12  C   UNL     1       8.823  -4.911  26.289  0.00  0.00    +0.337 C 
ATOM     13  O   UNL     1       8.060  -5.178  27.201  0.00  0.00    -0.245 OA
BRANCH  12  14
ATOM     14  O   UNL     1       9.639  -5.819  25.714  0.00  0.00    -0.477 OA
ATOM     15  H   UNL     1       9.726  -5.748  24.746  0.00  0.00    +0.295 HD
ENDBRANCH  12  14
ENDBRANCH   4  12
TORSDOF 3
ENDMDL
MODEL 7
REMARK VINA RESULT:      -5.0      2.249      5.599
REMARK  Name = 
REMARK  4 active torsions:
REMARK  status: ('A' for Active; 'I' for Inactive)
REMARK    1  A    between atoms: C_1  and  C_2
REMARK    2  A    between atoms: N_4  and  C_5
REMARK    3  A    between atoms: C_8  and  C_11
REMARK    4  A    between atoms: C_11  and  O_12
REMARK                            x       y       z     vdW  Elec       q    Type
REMARK                         _______ _______ _______ _____ _____    ______ ____
ROOT
ATOM      1  C   UNL     1       9.448  -0.485  22.855  0.00  0.00    +0.033 A 
ATOM      2  C   UNL     1       9.521   0.403  21.773  0.00  0.00    +0.024 A 
ATOM      3  C   UNL     1       9.876   1.741  21.984  0.00  0.00    +0.017 A 
ATOM      4  C   UNL     1      10.177   2.196  23.271  0.00  0.00    +0.059 A 
ATOM      5  C   UNL     1      10.190   1.292  24.334  0.00  0.00    +0.017 A 
ATOM      6  C   UNL     1       9.820  -0.037  24.123  0.00  0.00    +0.024 A 
ENDROOT
BRANCH   1   9
ATOM      7  C   UNL     1       7.537  -3.701  22.369  0.00  0.00    +0.109 C 
ATOM      8  C   UNL     1       7.681  -2.223  22.611  0.00  0.00    +0.214 C 
ATOM      9  N   UNL     1       9.002  -1.802  22.608  0.00  0.00    -0.286 N 
ATOM     10  H   UNL     1       9.696  -2.464  22.280  0.00  0.00    +0.155 HD
ATOM     11  O   UNL     1       6.691  -1.521  22.783  0.00  0.00    -0.276 OA
ENDBRANCH   1   9
BRANCH   4  12
ATOM     12  C   UNL     1      10.508   3.629  23.464  0.00  0.00    +0.337 C 
ATOM     13  O   UNL     1       9.781   4.398  24.067  0.00  0.00    -0.245 OA
BRANCH  12  14
ATOM     14  O   UNL     1      11.709   3.985  22.961  0.00  0.00    -0.477 OA
ATOM     15  H   UNL     1      12.057   4.838  23.278  0.00  0.00    +0.295 HD
ENDBRANCH  12  14
ENDBRANCH   4  12
TORSDOF 3
ENDMDL
MODEL 8
REMARK VINA RESULT:      -4.9      3.857      5.777
REMARK  Name = 
REMARK  4 active torsions:
REMARK  status: ('A' for Active; 'I' for Inactive)
REMARK    1  A    between atoms: C_1  and  C_2
REMARK    2  A    between atoms: N_4  and  C_5
REMARK    3  A    between atoms: C_8  and  C_11
REMARK    4  A    between atoms: C_11  and  O_12
REMARK                            x       y       z     vdW  Elec       q    Type
REMARK                         _______ _______ _______ _____ _____    ______ ____
ROOT
ATOM      1  C   UNL     1       8.115  -2.093  24.114  0.00  0.00    +0.033 A 
ATOM      2  C   UNL     1       7.324  -3.131  23.602  0.00  0.00    +0.024 A 
ATOM      3  C   UNL     1       7.010  -4.236  24.404  0.00  0.00    +0.017 A 
ATOM      4  C   UNL     1       7.468  -4.304  25.722  0.00  0.00    +0.059 A 
ATOM      5  C   UNL     1       8.181  -3.231  26.259  0.00  0.00    +0.017 A 
ATOM      6  C   UNL     1       8.505  -2.138  25.453  0.00  0.00    +0.024 A 
ENDROOT
BRANCH   1   9
ATOM      7  C   UNL     1       9.751   0.288  21.687  0.00  0.00    +0.109 C 
ATOM      8  C   UNL     1       9.622  -0.996  22.462  0.00  0.00    +0.214 C 
ATOM      9  N   UNL     1       8.478  -1.041  23.245  0.00  0.00    -0.286 N 
ATOM     10  H   UNL     1       7.783  -0.319  23.088  0.00  0.00    +0.155 HD
ATOM     11  O   UNL     1      10.475  -1.871  22.365  0.00  0.00    -0.276 OA
ENDBRANCH   1   9
BRANCH   4  12
ATOM     12  C   UNL     1       7.153  -5.508  26.529  0.00  0.00    +0.337 C 
ATOM     13  O   UNL     1       6.170  -6.199  26.326  0.00  0.00    -0.245 OA
BRANCH  12  14
ATOM     14  O   UNL     1       8.080  -5.795  27.466  0.00  0.00    -0.477 OA
ATOM     15  H   UNL     1       8.973  -5.448  27.289  0.00  0.00    +0.295 HD
ENDBRANCH  12  14
ENDBRANCH   4  12
TORSDOF 3
ENDMDL
MODEL 9
REMARK VINA RESULT:      -4.9      1.831      1.948
REMARK  Name = 
REMARK  4 active torsions:
REMARK  status: ('A' for Active; 'I' for Inactive)
REMARK    1  A    between atoms: C_1  and  C_2
REMARK    2  A    between atoms: N_4  and  C_5
REMARK    3  A    between atoms: C_8  and  C_11
REMARK    4  A    between atoms: C_11  and  O_12
REMARK                            x       y       z     vdW  Elec       q    Type
REMARK                         _______ _______ _______ _____ _____    ______ ____
ROOT
ATOM      1  C   UNL     1       9.093   2.492  22.887  0.00  0.00    +0.033 A 
ATOM      2  C   UNL     1       9.065   1.949  24.179  0.00  0.00    +0.024 A 
ATOM      3  C   UNL     1       9.364   0.595  24.379  0.00  0.00    +0.017 A 
ATOM      4  C   UNL     1       9.709  -0.218  23.296  0.00  0.00    +0.059 A 
ATOM      5  C   UNL     1       9.821   0.343  22.023  0.00  0.00    +0.017 A 
ATOM      6  C   UNL     1       9.508   1.688  21.824  0.00  0.00    +0.024 A 
ENDROOT
BRANCH   1   9
ATOM      7  C   UNL     1       7.360   5.769  22.187  0.00  0.00    +0.109 C 
ATOM      8  C   UNL     1       7.445   4.273  22.326  0.00  0.00    +0.214 C 
ATOM      9  N   UNL     1       8.701   3.839  22.721  0.00  0.00    -0.286 N 
ATOM     10  H   UNL     1       9.355   4.546  23.039  0.00  0.00    +0.155 HD
ATOM     11  O   UNL     1       6.467   3.570  22.099  0.00  0.00    -0.276 OA
ENDBRANCH   1   9
BRANCH   4  12
ATOM     12  C   UNL     1       9.978  -1.657  23.538  0.00  0.00    +0.337 C 
ATOM     13  O   UNL     1      10.653  -2.337  22.786  0.00  0.00    -0.245 OA
BRANCH  12  14
ATOM     14  O   UNL     1       9.453  -2.124  24.690  0.00  0.00    -0.477 OA
ATOM     15  H   UNL     1       9.877  -1.796  25.504  0.00  0.00    +0.295 HD
ENDBRANCH  12  14
ENDBRANCH   4  12
TORSDOF 3
ENDMDL
