MODEL 1
REMARK VINA RESULT:      -6.1      0.000      0.000
REMARK  Name = 
REMARK  5 active torsions:
REMARK  status: ('A' for Active; 'I' for Inactive)
REMARK    1  A    between atoms: C_1  and  N_2
REMARK    2  A    between atoms: N_2  and  C_3
REMARK    3  A    between atoms: C_6  and  C_8
REMARK    4  A    between atoms: C_15  and  S_17
REMARK    5  A    between atoms: S_17  and  N_18
REMARK                            x       y       z     vdW  Elec       q    Type
REMARK                         _______ _______ _______ _____ _____    ______ ____
ROOT
ATOM      1  C   UNL     1       9.255   0.351  25.319  0.00  0.00    +0.088 C 
ATOM      2  C   UNL     1       8.902  -1.105  25.191  0.00  0.00    +0.004 A 
ATOM      3  C   UNL     1       8.348  -1.950  26.213  0.00  0.00    +0.043 A 
ATOM      4  C   UNL     1       7.997  -3.201  25.742  0.00  0.00    +0.144 A 
ATOM      5  S   UNL     1       8.512  -3.426  24.130  0.00  0.00    -0.050 S 
ATOM      6  C   UNL     1       9.097  -1.832  24.036  0.00  0.00    +0.132 A 
ATOM      7  S   UNL     1       9.856  -1.347  22.523  0.00  0.00    +0.006 S 
ATOM      8  O   UNL     1      11.136  -2.027  22.521  0.00  0.00    -0.169 OA
ATOM      9  O   UNL     1       8.855  -1.569  21.501  0.00  0.00    -0.169 OA
ATOM     10  C   UNL     1      10.141   0.405  22.768  0.00  0.00    +0.135 C 
ATOM     11  C   UNL     1       9.193   1.256  21.933  0.00  0.00    +0.032 C 
ATOM     12  C   UNL     1      10.278   0.832  24.250  0.00  0.00    +0.049 C 
ENDROOT
BRANCH   1  14
ATOM     13  C   UNL     1       8.315   2.623  25.205  0.00  0.00    +0.101 C 
ATOM     14  N   UNL     1       8.041   1.182  25.256  0.00  0.00    -0.312 NA
ATOM     15  H   UNL     1       7.555   0.953  24.387  0.00  0.00    +0.122 HD
ENDBRANCH   1  14
BRANCH   4  16
ATOM     16  S   UNL     1       7.093  -4.543  26.467  0.00  0.00    +0.062 S 
ATOM     17  O   UNL     1       6.523  -5.245  25.341  0.00  0.00    -0.153 OA
ATOM     18  O   UNL     1       6.290  -3.966  27.523  0.00  0.00    -0.153 OA
BRANCH  16  19
ATOM     19  N   UNL     1       8.224  -5.571  27.156  0.00  0.00    -0.203 NA
ATOM     20  H   UNL     1       8.882  -5.936  26.469  0.00  0.00    +0.144 HD
ATOM     21  H   UNL     1       8.652  -5.168  27.988  0.00  0.00    +0.144 HD
ENDBRANCH  16  19
ENDBRANCH   4  16
TORSDOF 3
ENDMDL
MODEL 2
REMARK VINA RESULT:      -6.0      3.087      5.886
REMARK  Name = 
REMARK  5 active torsions:
REMARK  status: ('A' for Active; 'I' for Inactive)
REMARK    1  A    between atoms: C_1  and  N_2
REMARK    2  A    between atoms: N_2  and  C_3
REMARK    3  A    between atoms: C_6  and  C_8
REMARK    4  A    between atoms: C_15  and  S_17
REMARK    5  A    between atoms: S_17  and  N_18
REMARK                            x       y       z     vdW  Elec       q    Type
REMARK                         _______ _______ _______ _____ _____    ______ ____
ROOT
ATOM      1  C   UNL     1       6.896  -3.328  22.644  0.00  0.00    +0.088 C 
ATOM      2  C   UNL     1       7.888  -2.295  23.103  0.00  0.00    +0.004 A 
ATOM      3  C   UNL     1       8.094  -0.989  22.539  0.00  0.00    +0.043 A 
ATOM      4  C   UNL     1       8.974  -0.220  23.275  0.00  0.00    +0.144 A 
ATOM      5  S   UNL     1       9.700  -1.130  24.525  0.00  0.00    -0.050 S 
ATOM      6  C   UNL     1       8.764  -2.498  24.148  0.00  0.00    +0.132 A 
ATOM      7  S   UNL     1       9.040  -3.946  25.110  0.00  0.00    +0.006 S 
ATOM      8  O   UNL     1      10.320  -4.450  24.654  0.00  0.00    -0.169 OA
ATOM      9  O   UNL     1       8.806  -3.549  26.482  0.00  0.00    -0.169 OA
ATOM     10  C   UNL     1       7.753  -5.054  24.537  0.00  0.00    +0.135 C 
ATOM     11  C   UNL     1       6.655  -5.233  25.578  0.00  0.00    +0.032 C 
ATOM     12  C   UNL     1       7.258  -4.772  23.098  0.00  0.00    +0.049 C 
ENDROOT
BRANCH   1  14
ATOM     13  C   UNL     1       4.569  -4.070  22.945  0.00  0.00    +0.101 C 
ATOM     14  N   UNL     1       5.542  -2.985  23.111  0.00  0.00    -0.312 NA
ATOM     15  H   UNL     1       5.599  -2.804  24.115  0.00  0.00    +0.122 HD
ENDBRANCH   1  14
BRANCH   4  16
ATOM     16  S   UNL     1       9.427   1.492  23.192  0.00  0.00    +0.062 S 
ATOM     17  O   UNL     1      10.701   1.562  23.871  0.00  0.00    -0.153 OA
ATOM     18  O   UNL     1       8.265   2.239  23.621  0.00  0.00    -0.153 OA
BRANCH  16  19
ATOM     19  N   UNL     1       9.720   1.836  21.578  0.00  0.00    -0.203 NA
ATOM     20  H   UNL     1       9.475   1.059  20.968  0.00  0.00    +0.144 HD
ATOM     21  H   UNL     1       9.334   2.738  21.302  0.00  0.00    +0.144 HD
ENDBRANCH  16  19
ENDBRANCH   4  16
TORSDOF 3
ENDMDL
MODEL 3
REMARK VINA RESULT:      -6.0      4.931      5.956
REMARK  Name = 
REMARK  5 active torsions:
REMARK  status: ('A' for Active; 'I' for Inactive)
REMARK    1  A    between atoms: C_1  and  N_2
REMARK    2  A    between atoms: N_2  and  C_3
REMARK    3  A    between atoms: C_6  and  C_8
REMARK    4  A    between atoms: C_15  and  S_17
REMARK    5  A    between atoms: S_17  and  N_18
REMARK                            x       y       z     vdW  Elec       q    Type
REMARK                         _______ _______ _______ _____ _____    ______ ____
ROOT
ATOM      1  C   UNL     1       4.548  -5.330  24.072  0.00  0.00    +0.088 C 
ATOM      2  C   UNL     1       5.349  -5.388  25.344  0.00  0.00    +0.004 A 
ATOM      3  C   UNL     1       4.858  -5.708  26.657  0.00  0.00    +0.043 A 
ATOM      4  C   UNL     1       5.867  -5.823  27.593  0.00  0.00    +0.144 A 
ATOM      5  S   UNL     1       7.375  -5.355  26.943  0.00  0.00    -0.050 S 
ATOM      6  C   UNL     1       6.698  -5.109  25.403  0.00  0.00    +0.132 A 
ATOM      7  S   UNL     1       7.779  -4.540  24.135  0.00  0.00    +0.006 S 
ATOM      8  O   UNL     1       8.031  -3.152  24.464  0.00  0.00    -0.169 OA
ATOM      9  O   UNL     1       8.837  -5.526  24.060  0.00  0.00    -0.169 OA
ATOM     10  C   UNL     1       6.743  -4.602  22.675  0.00  0.00    +0.135 C 
ATOM     11  C   UNL     1       7.139  -5.743  21.747  0.00  0.00    +0.032 C 
ATOM     12  C   UNL     1       5.226  -4.479  22.958  0.00  0.00    +0.049 C 
ENDROOT
BRANCH   1  14
ATOM     13  C   UNL     1       2.924  -7.165  23.852  0.00  0.00    +0.101 C 
ATOM     14  N   UNL     1       4.282  -6.687  23.569  0.00  0.00    -0.312 NA
ATOM     15  H   UNL     1       4.370  -6.663  22.551  0.00  0.00    +0.122 HD
ENDBRANCH   1  14
BRANCH   4  16
ATOM     16  S   UNL     1       5.885  -6.400  29.269  0.00  0.00    +0.062 S 
ATOM     17  O   UNL     1       6.007  -5.199  30.064  0.00  0.00    -0.153 OA
ATOM     18  O   UNL     1       6.852  -7.475  29.316  0.00  0.00    -0.153 OA
BRANCH  16  19
ATOM     19  N   UNL     1       4.364  -7.032  29.578  0.00  0.00    -0.203 NA
ATOM     20  H   UNL     1       4.288  -7.409  30.521  0.00  0.00    +0.144 HD
ATOM     21  H   UNL     1       3.620  -6.390  29.310  0.00  0.00    +0.144 HD
ENDBRANCH  16  19
ENDBRANCH   4  16
TORSDOF 3
ENDMDL
MODEL 4
REMARK VINA RESULT:      -5.9      1.958      2.123
REMARK  Name = 
REMARK  5 active torsions:
REMARK  status: ('A' for Active; 'I' for Inactive)
REMARK    1  A    between atoms: C_1  and  N_2
REMARK    2  A    between atoms: N_2  and  C_3
REMARK    3  A    between atoms: C_6  and  C_8
REMARK    4  A    between atoms: C_15  and  S_17
REMARK    5  A    between atoms: S_17  and  N_18
REMARK                            x       y       z     vdW  Elec       q    Type
REMARK                         _______ _______ _______ _____ _____    ______ ____
ROOT
ATOM      1  C   UNL     1       7.275   0.434  25.047  0.00  0.00    +0.088 C 
ATOM      2  C   UNL     1       8.054  -0.828  24.797  0.00  0.00    +0.004 A 
ATOM      3  C   UNL     1       7.757  -2.139  25.309  0.00  0.00    +0.043 A 
ATOM      4  C   UNL     1       8.575  -3.118  24.779  0.00  0.00    +0.144 A 
ATOM      5  S   UNL     1       9.818  -2.442  23.825  0.00  0.00    -0.050 S 
ATOM      6  C   UNL     1       9.201  -0.872  24.033  0.00  0.00    +0.132 A 
ATOM      7  S   UNL     1      10.089   0.445  23.274  0.00  0.00    +0.006 S 
ATOM      8  O   UNL     1      11.283   0.594  24.080  0.00  0.00    -0.169 OA
ATOM      9  O   UNL     1      10.138   0.115  21.865  0.00  0.00    -0.169 OA
ATOM     10  C   UNL     1       9.025   1.857  23.561  0.00  0.00    +0.135 C 
ATOM     11  C   UNL     1       8.332   2.315  22.284  0.00  0.00    +0.032 C 
ATOM     12  C   UNL     1       8.105   1.727  24.800  0.00  0.00    +0.049 C 
ENDROOT
BRANCH   1  14
ATOM     13  C   UNL     1       5.278   1.695  24.357  0.00  0.00    +0.101 C 
ATOM     14  N   UNL     1       6.057   0.459  24.221  0.00  0.00    -0.312 NA
ATOM     15  H   UNL     1       6.346   0.410  23.243  0.00  0.00    +0.122 HD
ENDBRANCH   1  14
BRANCH   4  16
ATOM     16  S   UNL     1       8.533  -4.889  24.865  0.00  0.00    +0.062 S 
ATOM     17  O   UNL     1       8.337  -5.313  23.498  0.00  0.00    -0.153 OA
ATOM     18  O   UNL     1       7.612  -5.220  25.931  0.00  0.00    -0.153 OA
BRANCH  16  19
ATOM     19  N   UNL     1      10.069  -5.387  25.311  0.00  0.00    -0.203 NA
ATOM     20  H   UNL     1      10.663  -4.607  25.586  0.00  0.00    +0.144 HD
ATOM     21  H   UNL     1      10.044  -6.162  25.973  0.00  0.00    +0.144 HD
ENDBRANCH  16  19
ENDBRANCH   4  16
TORSDOF 3
ENDMDL
MODEL 5
REMARK VINA RESULT:      -5.7      2.073      2.256
REMARK  Name = 
REMARK  5 active torsions:
REMARK  status: ('A' for Active; 'I' for Inactive)
REMARK    1  A    between atoms: C_1  and  N_2
REMARK    2  A    between atoms: N_2  and  C_3
REMARK    3  A    between atoms: C_6  and  C_8
REMARK    4  A    between atoms: C_15  and  S_17
REMARK    5  A    between atoms: S_17  and  N_18
REMARK                            x       y       z     vdW  Elec       q    Type
REMARK                         _______ _______ _______ _____ _____    ______ ____
ROOT
ATOM      1  C   UNL     1       8.478   0.378  25.019  0.00  0.00    +0.088 C 
ATOM      2  C   UNL     1       7.919  -0.862  24.378  0.00  0.00    +0.004 A 
ATOM      3  C   UNL     1       6.840  -1.674  24.871  0.00  0.00    +0.043 A 
ATOM      4  C   UNL     1       6.462  -2.661  23.981  0.00  0.00    +0.144 A 
ATOM      5  S   UNL     1       7.526  -2.737  22.648  0.00  0.00    -0.050 S 
ATOM      6  C   UNL     1       8.410  -1.396  23.206  0.00  0.00    +0.132 A 
ATOM      7  S   UNL     1       9.796  -0.895  22.243  0.00  0.00    +0.006 S 
ATOM      8  O   UNL     1      10.800  -1.910  22.490  0.00  0.00    -0.169 OA
ATOM      9  O   UNL     1       9.271  -0.626  20.921  0.00  0.00    -0.169 OA
ATOM     10  C   UNL     1      10.308   0.622  23.047  0.00  0.00    +0.135 C 
ATOM     11  C   UNL     1       9.972   1.849  22.209  0.00  0.00    +0.032 C 
ATOM     12  C   UNL     1       9.920   0.719  24.542  0.00  0.00    +0.049 C 
ENDROOT
BRANCH   1  14
ATOM     13  C   UNL     1       8.099   2.790  25.324  0.00  0.00    +0.101 C 
ATOM     14  N   UNL     1       7.590   1.528  24.777  0.00  0.00    -0.312 NA
ATOM     15  H   UNL     1       7.525   1.661  23.766  0.00  0.00    +0.122 HD
ENDBRANCH   1  14
BRANCH   4  16
ATOM     16  S   UNL     1       5.090  -3.784  23.950  0.00  0.00    +0.062 S 
ATOM     17  O   UNL     1       5.535  -4.919  24.725  0.00  0.00    -0.153 OA
ATOM     18  O   UNL     1       4.684  -3.887  22.565  0.00  0.00    -0.153 OA
BRANCH  16  19
ATOM     19  N   UNL     1       3.853  -3.059  24.818  0.00  0.00    -0.203 NA
ATOM     20  H   UNL     1       3.639  -2.124  24.476  0.00  0.00    +0.144 HD
ATOM     21  H   UNL     1       3.048  -3.673  24.923  0.00  0.00    +0.144 HD
ENDBRANCH  16  19
ENDBRANCH   4  16
TORSDOF 3
ENDMDL
MODEL 6
REMARK VINA RESULT:      -5.7      2.957      5.899
REMARK  Name = 
REMARK  5 active torsions:
REMARK  status: ('A' for Active; 'I' for Inactive)
REMARK    1  A    between atoms: C_1  and  N_2
REMARK    2  A    between atoms: N_2  and  C_3
REMARK    3  A    between atoms: C_6  and  C_8
REMARK    4  A    between atoms: C_15  and  S_17
REMARK    5  A    between atoms: S_17  and  N_18
REMARK                            x       y       z     vdW  Elec       q    Type
REMARK                         _______ _______ _______ _____ _____    ______ ____
ROOT
ATOM      1  C   UNL     1       8.702  -3.041  25.421  0.00  0.00    +0.088 C 
ATOM      2  C   UNL     1       8.425  -1.733  24.733  0.00  0.00    +0.004 A 
ATOM      3  C   UNL     1       9.276  -0.575  24.711  0.00  0.00    +0.043 A 
ATOM      4  C   UNL     1       8.809   0.417  23.870  0.00  0.00    +0.144 A 
ATOM      5  S   UNL     1       7.259   0.040  23.263  0.00  0.00    -0.050 S 
ATOM      6  C   UNL     1       7.266  -1.477  24.031  0.00  0.00    +0.132 A 
ATOM      7  S   UNL     1       5.832  -2.479  23.837  0.00  0.00    +0.006 S 
ATOM      8  O   UNL     1       4.826  -1.843  24.665  0.00  0.00    -0.169 OA
ATOM      9  O   UNL     1       5.669  -2.648  22.409  0.00  0.00    -0.169 OA
ATOM     10  C   UNL     1       6.318  -4.020  24.611  0.00  0.00    +0.135 C 
ATOM     11  C   UNL     1       6.557  -5.119  23.584  0.00  0.00    +0.032 C 
ATOM     12  C   UNL     1       7.416  -3.877  25.692  0.00  0.00    +0.049 C 
ENDROOT
BRANCH   1  14
ATOM     13  C   UNL     1       9.977  -5.139  25.248  0.00  0.00    +0.101 C 
ATOM     14  N   UNL     1       9.660  -3.841  24.641  0.00  0.00    -0.312 NA
ATOM     15  H   UNL     1       9.227  -4.047  23.738  0.00  0.00    +0.122 HD
ENDBRANCH   1  14
BRANCH   4  16
ATOM     16  S   UNL     1       9.529   1.929  23.287  0.00  0.00    +0.062 S 
ATOM     17  O   UNL     1      10.886   1.898  23.782  0.00  0.00    -0.153 OA
ATOM     18  O   UNL     1       8.592   2.979  23.624  0.00  0.00    -0.153 OA
BRANCH  16  19
ATOM     19  N   UNL     1       9.619   1.808  21.618  0.00  0.00    -0.203 NA
ATOM     20  H   UNL     1       9.095   2.544  21.149  0.00  0.00    +0.144 HD
ATOM     21  H   UNL     1      10.578   1.690  21.293  0.00  0.00    +0.144 HD
ENDBRANCH  16  19
ENDBRANCH   4  16
TORSDOF 3
ENDMDL
MODEL 7
REMARK VINA RESULT:      -5.6      2.784      3.051
REMARK  Name = 
REMARK  5 active torsions:
REMARK  status: ('A' for Active; 'I' for Inactive)
REMARK    1  A    between atoms: C_1  and  N_2
REMARK    2  A    between atoms: N_2  and  C_3
REMARK    3  A    between atoms: C_6  and  C_8
REMARK    4  A    between atoms: C_15  and  S_17
REMARK    5  A    between atoms: S_17  and  N_18
REMARK                            x       y       z     vdW  Elec       q    Type
REMARK                         _______ _______ _______ _____ _____    ______ ____
ROOT
ATOM      1  C   UNL     1       6.635  -0.693  24.816  0.00  0.00    +0.088 C 
ATOM      2  C   UNL     1       6.632  -2.054  24.176  0.00  0.00    +0.004 A 
ATOM      3  C   UNL     1       5.610  -3.059  24.294  0.00  0.00    +0.043 A 
ATOM      4  C   UNL     1       5.830  -4.145  23.469  0.00  0.00    +0.144 A 
ATOM      5  S   UNL     1       7.354  -4.049  22.706  0.00  0.00    -0.050 S 
ATOM      6  C   UNL     1       7.662  -2.522  23.388  0.00  0.00    +0.132 A 
ATOM      7  S   UNL     1       9.211  -1.775  23.013  0.00  0.00    +0.006 S 
ATOM      8  O   UNL     1      10.179  -2.534  23.780  0.00  0.00    -0.169 OA
ATOM      9  O   UNL     1       9.259  -1.691  21.568  0.00  0.00    -0.169 OA
ATOM     10  C   UNL     1       9.053  -0.147  23.743  0.00  0.00    +0.135 C 
ATOM     11  C   UNL     1       8.891   0.936  22.684  0.00  0.00    +0.032 C 
ATOM     12  C   UNL     1       8.056  -0.067  24.924  0.00  0.00    +0.049 C 
ENDROOT
BRANCH   1  14
ATOM     13  C   UNL     1       5.714   1.582  24.631  0.00  0.00    +0.101 C 
ATOM     14  N   UNL     1       5.744   0.222  24.082  0.00  0.00    -0.312 NA
ATOM     15  H   UNL     1       6.104   0.306  23.130  0.00  0.00    +0.122 HD
ENDBRANCH   1  14
BRANCH   4  16
ATOM     16  S   UNL     1       4.827  -5.541  23.036  0.00  0.00    +0.062 S 
ATOM     17  O   UNL     1       3.513  -4.985  22.808  0.00  0.00    -0.153 OA
ATOM     18  O   UNL     1       5.090  -6.554  24.035  0.00  0.00    -0.153 OA
BRANCH  16  19
ATOM     19  N   UNL     1       5.382  -6.093  21.554  0.00  0.00    -0.203 NA
ATOM     20  H   UNL     1       4.803  -6.842  21.180  0.00  0.00    +0.144 HD
ATOM     21  H   UNL     1       5.569  -5.329  20.906  0.00  0.00    +0.144 HD
ENDBRANCH  16  19
ENDBRANCH   4  16
TORSDOF 3
ENDMDL
MODEL 8
REMARK VINA RESULT:      -5.6      2.323      2.772
REMARK  Name = 
REMARK  5 active torsions:
REMARK  status: ('A' for Active; 'I' for Inactive)
REMARK    1  A    between atoms: C_1  and  N_2
REMARK    2  A    between atoms: N_2  and  C_3
REMARK    3  A    between atoms: C_6  and  C_8
REMARK    4  A    between atoms: C_15  and  S_17
REMARK    5  A    between atoms: S_17  and  N_18
REMARK                            x       y       z     vdW  Elec       q    Type
REMARK                         _______ _______ _______ _____ _____    ______ ____
ROOT
ATOM      1  C   UNL     1      10.127  -0.251  25.011  0.00  0.00    +0.088 C 
ATOM      2  C   UNL     1       9.330  -1.238  24.203  0.00  0.00    +0.004 A 
ATOM      3  C   UNL     1       9.285  -2.663  24.386  0.00  0.00    +0.043 A 
ATOM      4  C   UNL     1       8.346  -3.277  23.580  0.00  0.00    +0.144 A 
ATOM      5  S   UNL     1       7.662  -2.174  22.470  0.00  0.00    -0.050 S 
ATOM      6  C   UNL     1       8.534  -0.876  23.137  0.00  0.00    +0.132 A 
ATOM      7  S   UNL     1       8.314   0.703  22.391  0.00  0.00    +0.006 S 
ATOM      8  O   UNL     1       9.024   0.615  21.130  0.00  0.00    -0.169 OA
ATOM      9  O   UNL     1       6.894   0.971  22.465  0.00  0.00    -0.169 OA
ATOM     10  C   UNL     1       9.227   1.789  23.486  0.00  0.00    +0.135 C 
ATOM     11  C   UNL     1       8.300   2.660  24.322  0.00  0.00    +0.032 C 
ATOM     12  C   UNL     1      10.368   1.097  24.271  0.00  0.00    +0.049 C 
ENDROOT
BRANCH   1  14
ATOM     13  C   UNL     1       8.049  -0.351  26.325  0.00  0.00    +0.101 C 
ATOM     14  N   UNL     1       9.472   0.002  26.305  0.00  0.00    -0.312 NA
ATOM     15  H   UNL     1       9.924  -0.593  27.002  0.00  0.00    +0.122 HD
ENDBRANCH   1  14
BRANCH   4  16
ATOM     16  S   UNL     1       7.707  -4.930  23.531  0.00  0.00    +0.062 S 
ATOM     17  O   UNL     1       6.483  -4.868  24.295  0.00  0.00    -0.153 OA
ATOM     18  O   UNL     1       8.810  -5.800  23.881  0.00  0.00    -0.153 OA
BRANCH  16  19
ATOM     19  N   UNL     1       7.271  -5.232  21.941  0.00  0.00    -0.203 NA
ATOM     20  H   UNL     1       6.262  -5.292  21.823  0.00  0.00    +0.144 HD
ATOM     21  H   UNL     1       7.744  -4.608  21.289  0.00  0.00    +0.144 HD
ENDBRANCH  16  19
ENDBRANCH   4  16
TORSDOF 3
ENDMDL
MODEL 9
REMARK VINA RESULT:      -5.5      4.131      5.423
REMARK  Name = 
REMARK  5 active torsions:
REMARK  status: ('A' for Active; 'I' for Inactive)
REMARK    1  A    between atoms: C_1  and  N_2
REMARK    2  A    between atoms: N_2  and  C_3
REMARK    3  A    between atoms: C_6  and  C_8
REMARK    4  A    between atoms: C_15  and  S_17
REMARK    5  A    between atoms: S_17  and  N_18
REMARK                            x       y       z     vdW  Elec       q    Type
REMARK                         _______ _______ _______ _____ _____    ______ ____
ROOT
ATOM      1  C   UNL     1       7.287  -5.010  25.120  0.00  0.00    +0.088 C 
ATOM      2  C   UNL     1       5.962  -5.571  24.681  0.00  0.00    +0.004 A 
ATOM      3  C   UNL     1       5.078  -6.399  25.456  0.00  0.00    +0.043 A 
ATOM      4  C   UNL     1       3.871  -6.630  24.825  0.00  0.00    +0.144 A 
ATOM      5  S   UNL     1       3.875  -6.021  23.231  0.00  0.00    -0.050 S 
ATOM      6  C   UNL     1       5.431  -5.364  23.426  0.00  0.00    +0.132 A 
ATOM      7  S   UNL     1       6.133  -4.543  22.036  0.00  0.00    +0.006 S 
ATOM      8  O   UNL     1       6.482  -5.609  21.118  0.00  0.00    -0.169 OA
ATOM      9  O   UNL     1       5.193  -3.497  21.691  0.00  0.00    -0.169 OA
ATOM     10  C   UNL     1       7.643  -3.850  22.707  0.00  0.00    +0.135 C 
ATOM     11  C   UNL     1       7.550  -2.338  22.866  0.00  0.00    +0.032 C 
ATOM     12  C   UNL     1       8.208  -4.608  23.932  0.00  0.00    +0.049 C 
ENDROOT
BRANCH   1  14
ATOM     13  C   UNL     1       8.334  -3.190  26.403  0.00  0.00    +0.101 C 
ATOM     14  N   UNL     1       7.086  -3.852  26.007  0.00  0.00    -0.312 NA
ATOM     15  H   UNL     1       6.546  -3.156  25.489  0.00  0.00    +0.122 HD
ENDBRANCH   1  14
BRANCH   4  16
ATOM     16  S   UNL     1       2.356  -7.369  25.375  0.00  0.00    +0.062 S 
ATOM     17  O   UNL     1       1.363  -6.899  24.436  0.00  0.00    -0.153 OA
ATOM     18  O   UNL     1       2.275  -7.117  26.797  0.00  0.00    -0.153 OA
BRANCH  16  19
ATOM     19  N   UNL     1       2.509  -9.020  25.132  0.00  0.00    -0.203 NA
ATOM     20  H   UNL     1       1.886  -9.362  24.403  0.00  0.00    +0.144 HD
ATOM     21  H   UNL     1       3.482  -9.306  25.035  0.00  0.00    +0.144 HD
ENDBRANCH  16  19
ENDBRANCH   4  16
TORSDOF 3
ENDMDL
