MODEL 1
REMARK VINA RESULT:      -5.2      0.000      0.000
REMARK  Name = 
REMARK  2 active torsions:
REMARK  status: ('A' for Active; 'I' for Inactive)
REMARK    1  A    between atoms: C_1  and  N_2
REMARK    2  A    between atoms: N_12  and  C_13
REMARK                            x       y       z     vdW  Elec       q    Type
REMARK                         _______ _______ _______ _____ _____    ______ ____
ROOT
ATOM      1  C   UNL     1       9.697  -2.260  23.399  0.00  0.00    +0.150 C 
ATOM      2  N   UNL     1       8.617  -2.465  24.329  0.00  0.00    -0.328 N 
ATOM      3  C   UNL     1       8.481  -3.504  25.202  0.00  0.00    +0.151 A 
ATOM      4  C   UNL     1       9.290  -4.640  25.464  0.00  0.00    +0.280 A 
ATOM      5  N   UNL     1       8.758  -5.445  26.447  0.00  0.00    -0.273 N 
ATOM      6  H   UNL     1       9.282  -6.272  26.687  0.00  0.00    +0.173 HD
ATOM      7  C   UNL     1       7.582  -5.250  27.147  0.00  0.00    +0.331 A 
ATOM      8  N   UNL     1       6.839  -4.115  26.837  0.00  0.00    -0.280 N 
ATOM      9  C   UNL     1       5.593  -3.835  27.523  0.00  0.00    +0.155 C 
ATOM     10  O   UNL     1       7.255  -6.077  27.999  0.00  0.00    -0.246 OA
ATOM     11  O   UNL     1      10.346  -4.898  24.898  0.00  0.00    -0.265 OA
ATOM     12  C   UNL     1       7.310  -3.262  25.862  0.00  0.00    +0.168 A 
ATOM     13  N   UNL     1       6.715  -2.114  25.434  0.00  0.00    -0.218 NA
ATOM     14  C   UNL     1       7.528  -1.650  24.504  0.00  0.00    +0.202 A 
ENDROOT
TORSDOF 0
ENDMDL
MODEL 2
REMARK VINA RESULT:      -5.0      3.718      5.210
REMARK  Name = 
REMARK  2 active torsions:
REMARK  status: ('A' for Active; 'I' for Inactive)
REMARK    1  A    between atoms: C_1  and  N_2
REMARK    2  A    between atoms: N_12  and  C_13
REMARK                            x       y       z     vdW  Elec       q    Type
REMARK                         _______ _______ _______ _____ _____    ______ ____
ROOT
ATOM      1  C   UNL     1       4.938  -6.781  27.297  0.00  0.00    +0.150 C 
ATOM      2  N   UNL     1       5.652  -5.978  26.337  0.00  0.00    -0.328 N 
ATOM      3  C   UNL     1       5.513  -6.016  24.981  0.00  0.00    +0.151 A 
ATOM      4  C   UNL     1       4.688  -6.795  24.129  0.00  0.00    +0.280 A 
ATOM      5  N   UNL     1       4.880  -6.496  22.798  0.00  0.00    -0.273 N 
ATOM      6  H   UNL     1       4.325  -7.011  22.134  0.00  0.00    +0.173 HD
ATOM      7  C   UNL     1       5.752  -5.564  22.265  0.00  0.00    +0.331 A 
ATOM      8  N   UNL     1       6.531  -4.837  23.159  0.00  0.00    -0.280 N 
ATOM      9  C   UNL     1       7.471  -3.841  22.684  0.00  0.00    +0.155 C 
ATOM     10  O   UNL     1       5.796  -5.425  21.042  0.00  0.00    -0.246 OA
ATOM     11  O   UNL     1       3.886  -7.641  24.506  0.00  0.00    -0.265 OA
ATOM     12  C   UNL     1       6.392  -5.083  24.509  0.00  0.00    +0.168 A 
ATOM     13  N   UNL     1       7.070  -4.469  25.518  0.00  0.00    -0.218 NA
ATOM     14  C   UNL     1       6.602  -5.031  26.617  0.00  0.00    +0.202 A 
ENDROOT
TORSDOF 0
ENDMDL
MODEL 3
REMARK VINA RESULT:      -5.0      2.342      4.293
REMARK  Name = 
REMARK  2 active torsions:
REMARK  status: ('A' for Active; 'I' for Inactive)
REMARK    1  A    between atoms: C_1  and  N_2
REMARK    2  A    between atoms: N_12  and  C_13
REMARK                            x       y       z     vdW  Elec       q    Type
REMARK                         _______ _______ _______ _____ _____    ______ ____
ROOT
ATOM      1  C   UNL     1       4.641  -6.733  27.151  0.00  0.00    +0.150 C 
ATOM      2  N   UNL     1       5.169  -6.146  25.946  0.00  0.00    -0.328 N 
ATOM      3  C   UNL     1       6.409  -5.602  25.782  0.00  0.00    +0.151 A 
ATOM      4  C   UNL     1       7.506  -5.446  26.669  0.00  0.00    +0.280 A 
ATOM      5  N   UNL     1       8.581  -4.830  26.067  0.00  0.00    -0.273 N 
ATOM      6  H   UNL     1       9.398  -4.687  26.639  0.00  0.00    +0.173 HD
ATOM      7  C   UNL     1       8.670  -4.385  24.761  0.00  0.00    +0.331 A 
ATOM      8  N   UNL     1       7.556  -4.570  23.948  0.00  0.00    -0.280 N 
ATOM      9  C   UNL     1       7.566  -4.131  22.567  0.00  0.00    +0.155 C 
ATOM     10  O   UNL     1       9.716  -3.852  24.387  0.00  0.00    -0.246 OA
ATOM     11  O   UNL     1       7.522  -5.808  27.840  0.00  0.00    -0.265 OA
ATOM     12  C   UNL     1       6.442  -5.180  24.483  0.00  0.00    +0.168 A 
ATOM     13  N   UNL     1       5.272  -5.440  23.836  0.00  0.00    -0.218 NA
ATOM     14  C   UNL     1       4.517  -6.026  24.747  0.00  0.00    +0.202 A 
ENDROOT
TORSDOF 0
ENDMDL
MODEL 4
REMARK VINA RESULT:      -4.9      2.243      2.266
REMARK  Name = 
REMARK  2 active torsions:
REMARK  status: ('A' for Active; 'I' for Inactive)
REMARK    1  A    between atoms: C_1  and  N_2
REMARK    2  A    between atoms: N_12  and  C_13
REMARK                            x       y       z     vdW  Elec       q    Type
REMARK                         _______ _______ _______ _____ _____    ______ ____
ROOT
ATOM      1  C   UNL     1       9.739  -2.918  24.111  0.00  0.00    +0.150 C 
ATOM      2  N   UNL     1       8.465  -3.573  23.953  0.00  0.00    -0.328 N 
ATOM      3  C   UNL     1       7.850  -4.383  24.861  0.00  0.00    +0.151 A 
ATOM      4  C   UNL     1       8.225  -4.818  26.159  0.00  0.00    +0.280 A 
ATOM      5  N   UNL     1       7.282  -5.646  26.726  0.00  0.00    -0.273 N 
ATOM      6  H   UNL     1       7.482  -5.993  27.650  0.00  0.00    +0.173 HD
ATOM      7  C   UNL     1       6.084  -6.058  26.171  0.00  0.00    +0.331 A 
ATOM      8  N   UNL     1       5.781  -5.594  24.895  0.00  0.00    -0.280 N 
ATOM      9  C   UNL     1       4.547  -5.978  24.240  0.00  0.00    +0.155 C 
ATOM     10  O   UNL     1       5.355  -6.806  26.823  0.00  0.00    -0.246 OA
ATOM     11  O   UNL     1       9.262  -4.507  26.734  0.00  0.00    -0.265 OA
ATOM     12  C   UNL     1       6.680  -4.759  24.264  0.00  0.00    +0.168 A 
ATOM     13  N   UNL     1       6.546  -4.215  23.023  0.00  0.00    -0.218 NA
ATOM     14  C   UNL     1       7.643  -3.500  22.859  0.00  0.00    +0.202 A 
ENDROOT
TORSDOF 0
ENDMDL
MODEL 5
REMARK VINA RESULT:      -4.9      2.867      4.342
REMARK  Name = 
REMARK  2 active torsions:
REMARK  status: ('A' for Active; 'I' for Inactive)
REMARK    1  A    between atoms: C_1  and  N_2
REMARK    2  A    between atoms: N_12  and  C_13
REMARK                            x       y       z     vdW  Elec       q    Type
REMARK                         _______ _______ _______ _____ _____    ______ ____
ROOT
ATOM      1  C   UNL     1       3.982  -6.348  23.830  0.00  0.00    +0.150 C 
ATOM      2  N   UNL     1       5.116  -6.021  24.655  0.00  0.00    -0.328 N 
ATOM      3  C   UNL     1       6.223  -5.320  24.275  0.00  0.00    +0.151 A 
ATOM      4  C   UNL     1       6.598  -4.728  23.042  0.00  0.00    +0.280 A 
ATOM      5  N   UNL     1       7.827  -4.108  23.112  0.00  0.00    -0.273 N 
ATOM      6  H   UNL     1       8.158  -3.664  22.271  0.00  0.00    +0.173 HD
ATOM      7  C   UNL     1       8.663  -4.023  24.210  0.00  0.00    +0.331 A 
ATOM      8  N   UNL     1       8.230  -4.628  25.386  0.00  0.00    -0.280 N 
ATOM      9  C   UNL     1       9.046  -4.587  26.584  0.00  0.00    +0.155 C 
ATOM     10  O   UNL     1       9.734  -3.427  24.095  0.00  0.00    -0.246 OA
ATOM     11  O   UNL     1       5.927  -4.749  22.017  0.00  0.00    -0.265 OA
ATOM     12  C   UNL     1       7.009  -5.268  25.391  0.00  0.00    +0.168 A 
ATOM     13  N   UNL     1       6.434  -5.908  26.446  0.00  0.00    -0.218 NA
ATOM     14  C   UNL     1       5.287  -6.356  25.973  0.00  0.00    +0.202 A 
ENDROOT
TORSDOF 0
ENDMDL
MODEL 6
REMARK VINA RESULT:      -4.8      3.196      5.371
REMARK  Name = 
REMARK  2 active torsions:
REMARK  status: ('A' for Active; 'I' for Inactive)
REMARK    1  A    between atoms: C_1  and  N_2
REMARK    2  A    between atoms: N_12  and  C_13
REMARK                            x       y       z     vdW  Elec       q    Type
REMARK                         _______ _______ _______ _____ _____    ______ ____
ROOT
ATOM      1  C   UNL     1       8.299  -3.618  26.131  0.00  0.00    +0.150 C 
ATOM      2  N   UNL     1       8.614  -2.818  24.975  0.00  0.00    -0.328 N 
ATOM      3  C   UNL     1       8.985  -1.505  24.971  0.00  0.00    +0.151 A 
ATOM      4  C   UNL     1       9.169  -0.564  26.017  0.00  0.00    +0.280 A 
ATOM      5  N   UNL     1       9.554   0.672  25.546  0.00  0.00    -0.273 N 
ATOM      6  H   UNL     1       9.704   1.392  26.235  0.00  0.00    +0.173 HD
ATOM      7  C   UNL     1       9.761   1.042  24.230  0.00  0.00    +0.331 A 
ATOM      8  N   UNL     1       9.561   0.068  23.257  0.00  0.00    -0.280 N 
ATOM      9  C   UNL     1       9.755   0.372  21.853  0.00  0.00    +0.155 C 
ATOM     10  O   UNL     1      10.106   2.199  23.987  0.00  0.00    -0.246 OA
ATOM     11  O   UNL     1       9.011  -0.796  27.210  0.00  0.00    -0.265 OA
ATOM     12  C   UNL     1       9.174  -1.194  23.654  0.00  0.00    +0.168 A 
ATOM     13  N   UNL     1       8.936  -2.261  22.842  0.00  0.00    -0.218 NA
ATOM     14  C   UNL     1       8.598  -3.233  23.669  0.00  0.00    +0.202 A 
ENDROOT
TORSDOF 0
ENDMDL
MODEL 7
REMARK VINA RESULT:      -4.8      3.739      4.458
REMARK  Name = 
REMARK  2 active torsions:
REMARK  status: ('A' for Active; 'I' for Inactive)
REMARK    1  A    between atoms: C_1  and  N_2
REMARK    2  A    between atoms: N_12  and  C_13
REMARK                            x       y       z     vdW  Elec       q    Type
REMARK                         _______ _______ _______ _____ _____    ______ ____
ROOT
ATOM      1  C   UNL     1       9.745   0.205  23.955  0.00  0.00    +0.150 C 
ATOM      2  N   UNL     1       9.351  -1.169  23.775  0.00  0.00    -0.328 N 
ATOM      3  C   UNL     1       8.131  -1.618  23.363  0.00  0.00    +0.151 A 
ATOM      4  C   UNL     1       6.938  -0.938  23.003  0.00  0.00    +0.280 A 
ATOM      5  N   UNL     1       5.930  -1.806  22.643  0.00  0.00    -0.273 N 
ATOM      6  H   UNL     1       5.052  -1.393  22.374  0.00  0.00    +0.173 HD
ATOM      7  C   UNL     1       5.985  -3.188  22.608  0.00  0.00    +0.331 A 
ATOM      8  N   UNL     1       7.187  -3.786  22.975  0.00  0.00    -0.280 N 
ATOM      9  C   UNL     1       7.329  -5.229  22.967  0.00  0.00    +0.155 C 
ATOM     10  O   UNL     1       4.983  -3.812  22.260  0.00  0.00    -0.246 OA
ATOM     11  O   UNL     1       6.793   0.278  23.001  0.00  0.00    -0.265 OA
ATOM     12  C   UNL     1       8.241  -2.979  23.347  0.00  0.00    +0.168 A 
ATOM     13  N   UNL     1       9.480  -3.392  23.733  0.00  0.00    -0.218 NA
ATOM     14  C   UNL     1      10.133  -2.274  23.987  0.00  0.00    +0.202 A 
ENDROOT
TORSDOF 0
ENDMDL
MODEL 8
REMARK VINA RESULT:      -4.8      3.303      4.666
REMARK  Name = 
REMARK  2 active torsions:
REMARK  status: ('A' for Active; 'I' for Inactive)
REMARK    1  A    between atoms: C_1  and  N_2
REMARK    2  A    between atoms: N_12  and  C_13
REMARK                            x       y       z     vdW  Elec       q    Type
REMARK                         _______ _______ _______ _____ _____    ______ ____
ROOT
ATOM      1  C   UNL     1       8.463  -2.604  26.453  0.00  0.00    +0.150 C 
ATOM      2  N   UNL     1       8.280  -3.497  25.337  0.00  0.00    -0.328 N 
ATOM      3  C   UNL     1       7.494  -3.282  24.244  0.00  0.00    +0.151 A 
ATOM      4  C   UNL     1       6.660  -2.196  23.868  0.00  0.00    +0.280 A 
ATOM      5  N   UNL     1       6.040  -2.409  22.657  0.00  0.00    -0.273 N 
ATOM      6  H   UNL     1       5.432  -1.677  22.326  0.00  0.00    +0.173 HD
ATOM      7  C   UNL     1       6.156  -3.516  21.836  0.00  0.00    +0.331 A 
ATOM      8  N   UNL     1       6.990  -4.543  22.269  0.00  0.00    -0.280 N 
ATOM      9  C   UNL     1       7.168  -5.739  21.470  0.00  0.00    +0.155 C 
ATOM     10  O   UNL     1       5.525  -3.540  20.780  0.00  0.00    -0.246 OA
ATOM     11  O   UNL     1       6.494  -1.176  24.526  0.00  0.00    -0.265 OA
ATOM     12  C   UNL     1       7.645  -4.400  23.473  0.00  0.00    +0.168 A 
ATOM     13  N   UNL     1       8.493  -5.298  24.046  0.00  0.00    -0.218 NA
ATOM     14  C   UNL     1       8.864  -4.726  25.176  0.00  0.00    +0.202 A 
ENDROOT
TORSDOF 0
ENDMDL
MODEL 9
REMARK VINA RESULT:      -4.7      3.424      3.697
REMARK  Name = 
REMARK  2 active torsions:
REMARK  status: ('A' for Active; 'I' for Inactive)
REMARK    1  A    between atoms: C_1  and  N_2
REMARK    2  A    between atoms: N_12  and  C_13
REMARK                            x       y       z     vdW  Elec       q    Type
REMARK                         _______ _______ _______ _____ _____    ______ ____
ROOT
ATOM      1  C   UNL     1       8.171  -3.597  23.429  0.00  0.00    +0.150 C 
ATOM      2  N   UNL     1       7.442  -4.283  24.465  0.00  0.00    -0.328 N 
ATOM      3  C   UNL     1       6.454  -5.207  24.290  0.00  0.00    +0.151 A 
ATOM      4  C   UNL     1       5.861  -5.757  23.124  0.00  0.00    +0.280 A 
ATOM      5  N   UNL     1       4.880  -6.677  23.421  0.00  0.00    -0.273 N 
ATOM      6  H   UNL     1       4.414  -7.110  22.640  0.00  0.00    +0.173 HD
ATOM      7  C   UNL     1       4.457  -7.078  24.676  0.00  0.00    +0.331 A 
ATOM      8  N   UNL     1       5.083  -6.496  25.773  0.00  0.00    -0.280 N 
ATOM      9  C   UNL     1       4.700  -6.859  27.124  0.00  0.00    +0.155 C 
ATOM     10  O   UNL     1       3.560  -7.918  24.759  0.00  0.00    -0.246 OA
ATOM     11  O   UNL     1       6.167  -5.467  21.973  0.00  0.00    -0.265 OA
ATOM     12  C   UNL     1       6.076  -5.566  25.552  0.00  0.00    +0.168 A 
ATOM     13  N   UNL     1       6.790  -4.901  26.503  0.00  0.00    -0.218 NA
ATOM     14  C   UNL     1       7.611  -4.129  25.816  0.00  0.00    +0.202 A 
ENDROOT
TORSDOF 0
ENDMDL
