MODEL 1
REMARK VINA RESULT:      -6.2      0.000      0.000
REMARK  Name = 
REMARK  12 active torsions:
REMARK  status: ('A' for Active; 'I' for Inactive)
REMARK    1  A    between atoms: O_1  and  C_2
REMARK    2  A    between atoms: C_2  and  C_3
REMARK    3  A    between atoms: C_6  and  S_8
REMARK    4  A    between atoms: S_8  and  C_9
REMARK    5  A    between atoms: C_12  and  C_14
REMARK    6  A    between atoms: C_14  and  O_15
REMARK    7  A    between atoms: C_16  and  O_18
REMARK    8  A    between atoms: C_19  and  O_21
REMARK    9  A    between atoms: C_22  and  O_24
REMARK   10  A    between atoms: C_25  and  O_27
REMARK   11  A    between atoms: C_28  and  O_30
REMARK   12  A    between atoms: C_31  and  O_33
REMARK                            x       y       z     vdW  Elec       q    Type
REMARK                         _______ _______ _______ _____ _____    ______ ____
ROOT
ATOM      1  S   UNL     1       7.473  -2.403  23.990  0.00  0.00    -0.093 S 
ENDROOT
BRANCH   1   6
ATOM      2  C   UNL     1       6.600  -5.096  25.541  0.00  0.00    +0.176 C 
ATOM      3  C   UNL     1       7.535  -4.841  26.765  0.00  0.00    +0.176 C 
ATOM      4  C   UNL     1       8.825  -4.035  26.486  0.00  0.00    +0.177 C 
ATOM      5  C   UNL     1       9.353  -4.281  25.069  0.00  0.00    +0.184 C 
ATOM      6  C   UNL     1       8.238  -4.054  24.038  0.00  0.00    +0.209 C 
ATOM      7  O   UNL     1       7.238  -5.071  24.245  0.00  0.00    -0.355 OA
BRANCH   3   8
ATOM      8  O   UNL     1       7.932  -6.130  27.288  0.00  0.00    -0.386 OA
ATOM      9  H   UNL     1       7.176  -6.740  27.191  0.00  0.00    +0.210 HD
ENDBRANCH   3   8
BRANCH   4  10
ATOM     10  O   UNL     1       8.659  -2.639  26.747  0.00  0.00    -0.386 OA
ATOM     11  H   UNL     1       8.947  -2.138  25.964  0.00  0.00    +0.210 HD
ENDBRANCH   4  10
BRANCH   5  12
ATOM     12  O   UNL     1       9.841  -5.638  24.998  0.00  0.00    -0.386 OA
ATOM     13  H   UNL     1      10.790  -5.612  24.769  0.00  0.00    +0.210 HD
ENDBRANCH   5  12
BRANCH   2  14
ATOM     14  C   UNL     1       5.282  -4.283  25.515  0.00  0.00    +0.190 C 
BRANCH  14  15
ATOM     15  O   UNL     1       5.150  -3.398  26.616  0.00  0.00    -0.392 OA
ATOM     16  H   UNL     1       5.705  -3.755  27.333  0.00  0.00    +0.210 HD
ENDBRANCH  14  15
ENDBRANCH   2  14
ENDBRANCH   1   6
BRANCH   1  17
ATOM     17  C   UNL     1       8.235  -1.651  22.520  0.00  0.00    +0.209 C 
ATOM     18  C   UNL     1       9.765  -1.578  22.749  0.00  0.00    +0.184 C 
ATOM     19  C   UNL     1      10.135  -0.413  23.690  0.00  0.00    +0.177 C 
ATOM     20  C   UNL     1       9.487   0.892  23.212  0.00  0.00    +0.176 C 
ATOM     21  C   UNL     1       7.971   0.747  22.957  0.00  0.00    +0.176 C 
ATOM     22  O   UNL     1       7.619  -0.409  22.182  0.00  0.00    -0.355 OA
BRANCH  18  23
ATOM     23  O   UNL     1      10.430  -1.498  21.482  0.00  0.00    -0.386 OA
ATOM     24  H   UNL     1      11.392  -1.447  21.640  0.00  0.00    +0.210 HD
ENDBRANCH  18  23
BRANCH  19  25
ATOM     25  O   UNL     1       9.809  -0.688  25.058  0.00  0.00    -0.386 OA
ATOM     26  H   UNL     1      10.464  -1.300  25.438  0.00  0.00    +0.210 HD
ENDBRANCH  19  25
BRANCH  20  27
ATOM     27  O   UNL     1      10.152   1.268  21.989  0.00  0.00    -0.386 OA
ATOM     28  H   UNL     1       9.624   0.922  21.249  0.00  0.00    +0.210 HD
ENDBRANCH  20  27
BRANCH  21  29
ATOM     29  C   UNL     1       7.111   0.884  24.224  0.00  0.00    +0.190 C 
BRANCH  29  30
ATOM     30  O   UNL     1       5.729   0.836  23.897  0.00  0.00    -0.392 OA
ATOM     31  H   UNL     1       5.316   0.137  24.435  0.00  0.00    +0.210 HD
ENDBRANCH  29  30
ENDBRANCH  21  29
ENDBRANCH   1  17
TORSDOF 12
ENDMDL
MODEL 2
REMARK VINA RESULT:      -6.2      1.405      5.787
REMARK  Name = 
REMARK  12 active torsions:
REMARK  status: ('A' for Active; 'I' for Inactive)
REMARK    1  A    between atoms: O_1  and  C_2
REMARK    2  A    between atoms: C_2  and  C_3
REMARK    3  A    between atoms: C_6  and  S_8
REMARK    4  A    between atoms: S_8  and  C_9
REMARK    5  A    between atoms: C_12  and  C_14
REMARK    6  A    between atoms: C_14  and  O_15
REMARK    7  A    between atoms: C_16  and  O_18
REMARK    8  A    between atoms: C_19  and  O_21
REMARK    9  A    between atoms: C_22  and  O_24
REMARK   10  A    between atoms: C_25  and  O_27
REMARK   11  A    between atoms: C_28  and  O_30
REMARK   12  A    between atoms: C_31  and  O_33
REMARK                            x       y       z     vdW  Elec       q    Type
REMARK                         _______ _______ _______ _____ _____    ______ ____
ROOT
ATOM      1  S   UNL     1       8.567  -2.236  23.841  0.00  0.00    -0.093 S 
ENDROOT
BRANCH   1   6
ATOM      2  C   UNL     1       7.788   0.838  23.237  0.00  0.00    +0.176 C 
ATOM      3  C   UNL     1       8.681   0.942  21.961  0.00  0.00    +0.176 C 
ATOM      4  C   UNL     1       9.936   0.041  21.926  0.00  0.00    +0.177 C 
ATOM      5  C   UNL     1      10.509  -0.189  23.329  0.00  0.00    +0.184 C 
ATOM      6  C   UNL     1       9.409  -0.683  24.280  0.00  0.00    +0.209 C 
ATOM      7  O   UNL     1       8.455   0.385  24.436  0.00  0.00    -0.355 OA
BRANCH   3   8
ATOM      8  O   UNL     1       9.126   2.314  21.849  0.00  0.00    -0.386 OA
ATOM      9  H   UNL     1      10.073   2.304  21.612  0.00  0.00    +0.210 HD
ENDBRANCH   3   8
BRANCH   4  10
ATOM     10  O   UNL     1       9.697  -1.197  21.251  0.00  0.00    -0.386 OA
ATOM     11  H   UNL     1      10.456  -1.788  21.403  0.00  0.00    +0.210 HD
ENDBRANCH   4  10
BRANCH   5  12
ATOM     12  O   UNL     1      11.064   1.059  23.800  0.00  0.00    -0.386 OA
ATOM     13  H   UNL     1      11.980   1.133  23.469  0.00  0.00    +0.210 HD
ENDBRANCH   5  12
BRANCH   2  14
ATOM     14  C   UNL     1       6.433   0.108  23.059  0.00  0.00    +0.190 C 
BRANCH  14  15
ATOM     15  O   UNL     1       5.601   0.192  24.205  0.00  0.00    -0.392 OA
ATOM     16  H   UNL     1       5.917   0.950  24.729  0.00  0.00    +0.210 HD
ENDBRANCH  14  15
ENDBRANCH   2  14
ENDBRANCH   1   6
BRANCH   1  17
ATOM     17  C   UNL     1       9.232  -3.410  25.060  0.00  0.00    +0.209 C 
ATOM     18  C   UNL     1       8.920  -4.847  24.571  0.00  0.00    +0.184 C 
ATOM     19  C   UNL     1       7.446  -5.219  24.831  0.00  0.00    +0.177 C 
ATOM     20  C   UNL     1       7.068  -4.934  26.289  0.00  0.00    +0.176 C 
ATOM     21  C   UNL     1       7.442  -3.503  26.733  0.00  0.00    +0.176 C 
ATOM     22  O   UNL     1       8.778  -3.114  26.381  0.00  0.00    -0.355 OA
BRANCH  18  23
ATOM     23  O   UNL     1       9.839  -5.763  25.181  0.00  0.00    -0.386 OA
ATOM     24  H   UNL     1       9.387  -6.203  25.926  0.00  0.00    +0.210 HD
ENDBRANCH  18  23
BRANCH  19  25
ATOM     25  O   UNL     1       6.548  -4.572  23.921  0.00  0.00    -0.386 OA
ATOM     26  H   UNL     1       5.887  -4.059  24.418  0.00  0.00    +0.210 HD
ENDBRANCH  19  25
BRANCH  20  27
ATOM     27  O   UNL     1       7.771  -5.894  27.102  0.00  0.00    -0.386 OA
ATOM     28  H   UNL     1       8.588  -6.135  26.634  0.00  0.00    +0.210 HD
ENDBRANCH  20  27
BRANCH  21  29
ATOM     29  C   UNL     1       6.403  -2.438  26.345  0.00  0.00    +0.190 C 
BRANCH  29  30
ATOM     30  O   UNL     1       6.865  -1.139  26.688  0.00  0.00    -0.392 OA
ATOM     31  H   UNL     1       6.309  -0.489  26.224  0.00  0.00    +0.210 HD
ENDBRANCH  29  30
ENDBRANCH  21  29
ENDBRANCH   1  17
TORSDOF 12
ENDMDL
MODEL 3
REMARK VINA RESULT:      -6.0      2.119      2.973
REMARK  Name = 
REMARK  12 active torsions:
REMARK  status: ('A' for Active; 'I' for Inactive)
REMARK    1  A    between atoms: O_1  and  C_2
REMARK    2  A    between atoms: C_2  and  C_3
REMARK    3  A    between atoms: C_6  and  S_8
REMARK    4  A    between atoms: S_8  and  C_9
REMARK    5  A    between atoms: C_12  and  C_14
REMARK    6  A    between atoms: C_14  and  O_15
REMARK    7  A    between atoms: C_16  and  O_18
REMARK    8  A    between atoms: C_19  and  O_21
REMARK    9  A    between atoms: C_22  and  O_24
REMARK   10  A    between atoms: C_25  and  O_27
REMARK   11  A    between atoms: C_28  and  O_30
REMARK   12  A    between atoms: C_31  and  O_33
REMARK                            x       y       z     vdW  Elec       q    Type
REMARK                         _______ _______ _______ _____ _____    ______ ____
ROOT
ATOM      1  S   UNL     1       6.686  -2.246  23.600  0.00  0.00    -0.093 S 
ENDROOT
BRANCH   1   6
ATOM      2  C   UNL     1       4.540  -4.652  23.760  0.00  0.00    +0.176 C 
ATOM      3  C   UNL     1       5.618  -5.780  23.723  0.00  0.00    +0.176 C 
ATOM      4  C   UNL     1       6.931  -5.451  22.975  0.00  0.00    +0.177 C 
ATOM      5  C   UNL     1       6.694  -4.486  21.810  0.00  0.00    +0.184 C 
ATOM      6  C   UNL     1       5.919  -3.249  22.290  0.00  0.00    +0.209 C 
ATOM      7  O   UNL     1       4.605  -3.685  22.688  0.00  0.00    -0.355 OA
BRANCH   3   8
ATOM      8  O   UNL     1       5.026  -6.931  23.077  0.00  0.00    -0.386 OA
ATOM      9  H   UNL     1       4.081  -6.959  23.318  0.00  0.00    +0.210 HD
ENDBRANCH   3   8
BRANCH   4  10
ATOM     10  O   UNL     1       7.949  -4.967  23.855  0.00  0.00    -0.386 OA
ATOM     11  H   UNL     1       8.245  -5.698  24.424  0.00  0.00    +0.210 HD
ENDBRANCH   4  10
BRANCH   5  12
ATOM     12  O   UNL     1       5.949  -5.186  20.789  0.00  0.00    -0.386 OA
ATOM     13  H   UNL     1       5.082  -5.439  21.159  0.00  0.00    +0.210 HD
ENDBRANCH   5  12
BRANCH   2  14
ATOM     14  C   UNL     1       4.348  -3.942  25.123  0.00  0.00    +0.190 C 
BRANCH  14  15
ATOM     15  O   UNL     1       3.335  -2.949  25.096  0.00  0.00    -0.392 OA
ATOM     16  H   UNL     1       3.782  -2.093  24.965  0.00  0.00    +0.210 HD
ENDBRANCH  14  15
ENDBRANCH   2  14
ENDBRANCH   1   6
BRANCH   1  17
ATOM     17  C   UNL     1       7.640  -1.018  22.658  0.00  0.00    +0.209 C 
ATOM     18  C   UNL     1       8.997  -1.655  22.264  0.00  0.00    +0.184 C 
ATOM     19  C   UNL     1       9.972  -1.678  23.459  0.00  0.00    +0.177 C 
ATOM     20  C   UNL     1      10.069  -0.290  24.103  0.00  0.00    +0.176 C 
ATOM     21  C   UNL     1       8.686   0.313  24.432  0.00  0.00    +0.176 C 
ATOM     22  O   UNL     1       7.740   0.223  23.356  0.00  0.00    -0.355 OA
BRANCH  18  23
ATOM     23  O   UNL     1       9.531  -0.963  21.128  0.00  0.00    -0.386 OA
ATOM     24  H   UNL     1       8.906  -1.062  20.384  0.00  0.00    +0.210 HD
ENDBRANCH  18  23
BRANCH  19  25
ATOM     25  O   UNL     1       9.630  -2.681  24.425  0.00  0.00    -0.386 OA
ATOM     26  H   UNL     1      10.289  -3.397  24.406  0.00  0.00    +0.210 HD
ENDBRANCH  19  25
BRANCH  20  27
ATOM     27  O   UNL     1      10.759   0.560  23.166  0.00  0.00    -0.386 OA
ATOM     28  H   UNL     1      11.686   0.625  23.454  0.00  0.00    +0.210 HD
ENDBRANCH  20  27
BRANCH  21  29
ATOM     29  C   UNL     1       8.097  -0.171  25.767  0.00  0.00    +0.190 C 
BRANCH  29  30
ATOM     30  O   UNL     1       9.134  -0.500  26.682  0.00  0.00    -0.392 OA
ATOM     31  H   UNL     1       9.418   0.321  27.122  0.00  0.00    +0.210 HD
ENDBRANCH  29  30
ENDBRANCH  21  29
ENDBRANCH   1  17
TORSDOF 12
ENDMDL
MODEL 4
REMARK VINA RESULT:      -6.0      1.484      6.254
REMARK  Name = 
REMARK  12 active torsions:
REMARK  status: ('A' for Active; 'I' for Inactive)
REMARK    1  A    between atoms: O_1  and  C_2
REMARK    2  A    between atoms: C_2  and  C_3
REMARK    3  A    between atoms: C_6  and  S_8
REMARK    4  A    between atoms: S_8  and  C_9
REMARK    5  A    between atoms: C_12  and  C_14
REMARK    6  A    between atoms: C_14  and  O_15
REMARK    7  A    between atoms: C_16  and  O_18
REMARK    8  A    between atoms: C_19  and  O_21
REMARK    9  A    between atoms: C_22  and  O_24
REMARK   10  A    between atoms: C_25  and  O_27
REMARK   11  A    between atoms: C_28  and  O_30
REMARK   12  A    between atoms: C_31  and  O_33
REMARK                            x       y       z     vdW  Elec       q    Type
REMARK                         _______ _______ _______ _____ _____    ______ ____
ROOT
ATOM      1  S   UNL     1       8.427  -1.403  24.580  0.00  0.00    -0.093 S 
ENDROOT
BRANCH   1   6
ATOM      2  C   UNL     1       9.009   0.215  21.848  0.00  0.00    +0.176 C 
ATOM      3  C   UNL     1      10.172   1.062  22.452  0.00  0.00    +0.176 C 
ATOM      4  C   UNL     1      10.097   1.348  23.970  0.00  0.00    +0.177 C 
ATOM      5  C   UNL     1       8.648   1.454  24.456  0.00  0.00    +0.184 C 
ATOM      6  C   UNL     1       7.843   0.225  24.009  0.00  0.00    +0.209 C 
ATOM      7  O   UNL     1       7.759   0.257  22.571  0.00  0.00    -0.355 OA
BRANCH   3   8
ATOM      8  O   UNL     1      10.187   2.337  21.770  0.00  0.00    -0.386 OA
ATOM      9  H   UNL     1       9.261   2.612  21.626  0.00  0.00    +0.210 HD
ENDBRANCH   3   8
BRANCH   4  10
ATOM     10  O   UNL     1      10.836   0.396  24.739  0.00  0.00    -0.386 OA
ATOM     11  H   UNL     1      11.522   0.867  25.245  0.00  0.00    +0.210 HD
ENDBRANCH   4  10
BRANCH   5  12
ATOM     12  O   UNL     1       8.075   2.662  23.907  0.00  0.00    -0.386 OA
ATOM     13  H   UNL     1       8.575   2.902  23.103  0.00  0.00    +0.210 HD
ENDBRANCH   5  12
BRANCH   2  14
ATOM     14  C   UNL     1       9.363  -1.241  21.456  0.00  0.00    +0.190 C 
BRANCH  14  15
ATOM     15  O   UNL     1      10.669  -1.624  21.856  0.00  0.00    -0.392 OA
ATOM     16  H   UNL     1      10.748  -2.581  21.685  0.00  0.00    +0.210 HD
ENDBRANCH  14  15
ENDBRANCH   2  14
ENDBRANCH   1   6
BRANCH   1  17
ATOM     17  C   UNL     1       7.263  -2.548  23.780  0.00  0.00    +0.209 C 
ATOM     18  C   UNL     1       6.021  -2.695  24.694  0.00  0.00    +0.184 C 
ATOM     19  C   UNL     1       6.311  -3.627  25.888  0.00  0.00    +0.177 C 
ATOM     20  C   UNL     1       6.921  -4.948  25.405  0.00  0.00    +0.176 C 
ATOM     21  C   UNL     1       8.127  -4.739  24.464  0.00  0.00    +0.176 C 
ATOM     22  O   UNL     1       7.894  -3.778  23.423  0.00  0.00    -0.355 OA
BRANCH  18  23
ATOM     23  O   UNL     1       4.906  -3.135  23.907  0.00  0.00    -0.386 OA
ATOM     24  H   UNL     1       4.269  -2.398  23.836  0.00  0.00    +0.210 HD
ENDBRANCH  18  23
BRANCH  19  25
ATOM     25  O   UNL     1       7.134  -3.003  26.883  0.00  0.00    -0.386 OA
ATOM     26  H   UNL     1       7.864  -3.598  27.128  0.00  0.00    +0.210 HD
ENDBRANCH  19  25
BRANCH  20  27
ATOM     27  O   UNL     1       5.880  -5.663  24.710  0.00  0.00    -0.386 OA
ATOM     28  H   UNL     1       5.184  -5.022  24.483  0.00  0.00    +0.210 HD
ENDBRANCH  20  27
BRANCH  21  29
ATOM     29  C   UNL     1       9.455  -4.493  25.198  0.00  0.00    +0.190 C 
BRANCH  29  30
ATOM     30  O   UNL     1      10.219  -5.689  25.265  0.00  0.00    -0.392 OA
ATOM     31  H   UNL     1       9.993  -6.144  26.096  0.00  0.00    +0.210 HD
ENDBRANCH  29  30
ENDBRANCH  21  29
ENDBRANCH   1  17
TORSDOF 12
ENDMDL
MODEL 5
REMARK VINA RESULT:      -5.9      1.811      3.096
REMARK  Name = 
REMARK  12 active torsions:
REMARK  status: ('A' for Active; 'I' for Inactive)
REMARK    1  A    between atoms: O_1  and  C_2
REMARK    2  A    between atoms: C_2  and  C_3
REMARK    3  A    between atoms: C_6  and  S_8
REMARK    4  A    between atoms: S_8  and  C_9
REMARK    5  A    between atoms: C_12  and  C_14
REMARK    6  A    between atoms: C_14  and  O_15
REMARK    7  A    between atoms: C_16  and  O_18
REMARK    8  A    between atoms: C_19  and  O_21
REMARK    9  A    between atoms: C_22  and  O_24
REMARK   10  A    between atoms: C_25  and  O_27
REMARK   11  A    between atoms: C_28  and  O_30
REMARK   12  A    between atoms: C_31  and  O_33
REMARK                            x       y       z     vdW  Elec       q    Type
REMARK                         _______ _______ _______ _____ _____    ______ ____
ROOT
ATOM      1  S   UNL     1       8.543  -2.700  23.406  0.00  0.00    -0.093 S 
ENDROOT
BRANCH   1   6
ATOM      2  C   UNL     1       6.833  -5.407  23.000  0.00  0.00    +0.176 C 
ATOM      3  C   UNL     1       5.750  -5.028  24.059  0.00  0.00    +0.176 C 
ATOM      4  C   UNL     1       6.214  -4.118  25.220  0.00  0.00    +0.177 C 
ATOM      5  C   UNL     1       7.683  -4.362  25.579  0.00  0.00    +0.184 C 
ATOM      6  C   UNL     1       8.562  -4.272  24.323  0.00  0.00    +0.209 C 
ATOM      7  O   UNL     1       8.202  -5.368  23.459  0.00  0.00    -0.355 OA
BRANCH   3   8
ATOM      8  O   UNL     1       5.256  -6.257  24.640  0.00  0.00    -0.386 OA
ATOM      9  H   UNL     1       5.305  -6.172  25.611  0.00  0.00    +0.210 HD
ENDBRANCH   3   8
BRANCH   4  10
ATOM     10  O   UNL     1       5.963  -2.735  24.958  0.00  0.00    -0.386 OA
ATOM     11  H   UNL     1       6.361  -2.501  24.101  0.00  0.00    +0.210 HD
ENDBRANCH   4  10
BRANCH   5  12
ATOM     12  O   UNL     1       7.789  -5.671  26.180  0.00  0.00    -0.386 OA
ATOM     13  H   UNL     1       7.092  -5.756  26.859  0.00  0.00    +0.210 HD
ENDBRANCH   5  12
BRANCH   2  14
ATOM     14  C   UNL     1       6.702  -4.718  21.619  0.00  0.00    +0.190 C 
BRANCH  14  15
ATOM     15  O   UNL     1       5.551  -3.896  21.514  0.00  0.00    -0.392 OA
ATOM     16  H   UNL     1       5.120  -3.898  22.388  0.00  0.00    +0.210 HD
ENDBRANCH  14  15
ENDBRANCH   2  14
ENDBRANCH   1   6
BRANCH   1  17
ATOM     17  C   UNL     1       9.552  -1.612  24.457  0.00  0.00    +0.209 C 
ATOM     18  C   UNL     1       8.598  -0.742  25.313  0.00  0.00    +0.184 C 
ATOM     19  C   UNL     1       7.996   0.411  24.483  0.00  0.00    +0.177 C 
ATOM     20  C   UNL     1       9.101   1.184  23.754  0.00  0.00    +0.176 C 
ATOM     21  C   UNL     1      10.047   0.262  22.954  0.00  0.00    +0.176 C 
ATOM     22  O   UNL     1      10.510  -0.879  23.693  0.00  0.00    -0.355 OA
BRANCH  18  23
ATOM     23  O   UNL     1       9.297  -0.280  26.477  0.00  0.00    -0.386 OA
ATOM     24  H   UNL     1       8.947   0.599  26.719  0.00  0.00    +0.210 HD
ENDBRANCH  18  23
BRANCH  19  25
ATOM     25  O   UNL     1       6.984  -0.039  23.573  0.00  0.00    -0.386 OA
ATOM     26  H   UNL     1       7.285  -0.845  23.118  0.00  0.00    +0.210 HD
ENDBRANCH  19  25
BRANCH  20  27
ATOM     27  O   UNL     1       9.851   1.895  24.760  0.00  0.00    -0.386 OA
ATOM     28  H   UNL     1       9.240   2.113  25.484  0.00  0.00    +0.210 HD
ENDBRANCH  20  27
BRANCH  21  29
ATOM     29  C   UNL     1       9.515  -0.121  21.564  0.00  0.00    +0.190 C 
BRANCH  29  30
ATOM     30  O   UNL     1       8.799   0.963  20.986  0.00  0.00    -0.392 OA
ATOM     31  H   UNL     1       8.364   0.639  20.178  0.00  0.00    +0.210 HD
ENDBRANCH  29  30
ENDBRANCH  21  29
ENDBRANCH   1  17
TORSDOF 12
ENDMDL
MODEL 6
REMARK VINA RESULT:      -5.9      1.357      1.659
REMARK  Name = 
REMARK  12 active torsions:
REMARK  status: ('A' for Active; 'I' for Inactive)
REMARK    1  A    between atoms: O_1  and  C_2
REMARK    2  A    between atoms: C_2  and  C_3
REMARK    3  A    between atoms: C_6  and  S_8
REMARK    4  A    between atoms: S_8  and  C_9
REMARK    5  A    between atoms: C_12  and  C_14
REMARK    6  A    between atoms: C_14  and  O_15
REMARK    7  A    between atoms: C_16  and  O_18
REMARK    8  A    between atoms: C_19  and  O_21
REMARK    9  A    between atoms: C_22  and  O_24
REMARK   10  A    between atoms: C_25  and  O_27
REMARK   11  A    between atoms: C_28  and  O_30
REMARK   12  A    between atoms: C_31  and  O_33
REMARK                            x       y       z     vdW  Elec       q    Type
REMARK                         _______ _______ _______ _____ _____    ______ ____
ROOT
ATOM      1  S   UNL     1       7.871  -1.888  24.643  0.00  0.00    -0.093 S 
ENDROOT
BRANCH   1   6
ATOM      2  C   UNL     1       6.281  -4.661  24.192  0.00  0.00    +0.176 C 
ATOM      3  C   UNL     1       6.051  -4.919  25.714  0.00  0.00    +0.176 C 
ATOM      4  C   UNL     1       7.114  -4.340  26.677  0.00  0.00    +0.177 C 
ATOM      5  C   UNL     1       8.505  -4.313  26.036  0.00  0.00    +0.184 C 
ATOM      6  C   UNL     1       8.450  -3.613  24.670  0.00  0.00    +0.209 C 
ATOM      7  O   UNL     1       7.650  -4.431  23.793  0.00  0.00    -0.355 OA
BRANCH   3   8
ATOM      8  O   UNL     1       6.016  -6.351  25.915  0.00  0.00    -0.386 OA
ATOM      9  H   UNL     1       6.098  -6.523  26.873  0.00  0.00    +0.210 HD
ENDBRANCH   3   8
BRANCH   4  10
ATOM     10  O   UNL     1       6.746  -3.053  27.181  0.00  0.00    -0.386 OA
ATOM     11  H   UNL     1       6.368  -3.162  28.071  0.00  0.00    +0.210 HD
ENDBRANCH   4  10
BRANCH   5  12
ATOM     12  O   UNL     1       8.961  -5.676  25.890  0.00  0.00    -0.386 OA
ATOM     13  H   UNL     1       9.583  -5.713  25.137  0.00  0.00    +0.210 HD
ENDBRANCH   5  12
BRANCH   2  14
ATOM     14  C   UNL     1       5.339  -3.624  23.531  0.00  0.00    +0.190 C 
BRANCH  14  15
ATOM     15  O   UNL     1       5.143  -3.854  22.145  0.00  0.00    -0.392 OA
ATOM     16  H   UNL     1       4.497  -3.192  21.837  0.00  0.00    +0.210 HD
ENDBRANCH  14  15
ENDBRANCH   2  14
ENDBRANCH   1   6
BRANCH   1  17
ATOM     17  C   UNL     1       8.248  -1.365  22.943  0.00  0.00    +0.209 C 
ATOM     18  C   UNL     1       9.787  -1.361  22.766  0.00  0.00    +0.184 C 
ATOM     19  C   UNL     1      10.423  -0.118  23.421  0.00  0.00    +0.177 C 
ATOM     20  C   UNL     1       9.712   1.159  22.956  0.00  0.00    +0.176 C 
ATOM     21  C   UNL     1       8.179   1.080  23.114  0.00  0.00    +0.176 C 
ATOM     22  O   UNL     1       7.603  -0.136  22.612  0.00  0.00    -0.355 OA
BRANCH  18  23
ATOM     23  O   UNL     1      10.103  -1.474  21.372  0.00  0.00    -0.386 OA
ATOM     24  H   UNL     1      10.980  -1.894  21.287  0.00  0.00    +0.210 HD
ENDBRANCH  18  23
BRANCH  19  25
ATOM     25  O   UNL     1      10.453  -0.208  24.852  0.00  0.00    -0.386 OA
ATOM     26  H   UNL     1      10.350  -1.135  25.126  0.00  0.00    +0.210 HD
ENDBRANCH  19  25
BRANCH  20  27
ATOM     27  O   UNL     1      10.049   1.344  21.566  0.00  0.00    -0.386 OA
ATOM     28  H   UNL     1      10.958   1.023  21.438  0.00  0.00    +0.210 HD
ENDBRANCH  20  27
BRANCH  21  29
ATOM     29  C   UNL     1       7.680   1.420  24.528  0.00  0.00    +0.190 C 
BRANCH  29  30
ATOM     30  O   UNL     1       8.686   2.104  25.262  0.00  0.00    -0.392 OA
ATOM     31  H   UNL     1       8.251   2.782  25.810  0.00  0.00    +0.210 HD
ENDBRANCH  29  30
ENDBRANCH  21  29
ENDBRANCH   1  17
TORSDOF 12
ENDMDL
MODEL 7
REMARK VINA RESULT:      -5.9      2.133      2.904
REMARK  Name = 
REMARK  12 active torsions:
REMARK  status: ('A' for Active; 'I' for Inactive)
REMARK    1  A    between atoms: O_1  and  C_2
REMARK    2  A    between atoms: C_2  and  C_3
REMARK    3  A    between atoms: C_6  and  S_8
REMARK    4  A    between atoms: S_8  and  C_9
REMARK    5  A    between atoms: C_12  and  C_14
REMARK    6  A    between atoms: C_14  and  O_15
REMARK    7  A    between atoms: C_16  and  O_18
REMARK    8  A    between atoms: C_19  and  O_21
REMARK    9  A    between atoms: C_22  and  O_24
REMARK   10  A    between atoms: C_25  and  O_27
REMARK   11  A    between atoms: C_28  and  O_30
REMARK   12  A    between atoms: C_31  and  O_33
REMARK                            x       y       z     vdW  Elec       q    Type
REMARK                         _______ _______ _______ _____ _____    ______ ____
ROOT
ATOM      1  S   UNL     1       7.352  -0.273  23.044  0.00  0.00    -0.093 S 
ENDROOT
BRANCH   1   6
ATOM      2  C   UNL     1       7.244  -3.499  23.073  0.00  0.00    +0.176 C 
ATOM      3  C   UNL     1       7.667  -3.623  24.570  0.00  0.00    +0.176 C 
ATOM      4  C   UNL     1       8.564  -2.492  25.126  0.00  0.00    +0.177 C 
ATOM      5  C   UNL     1       9.482  -1.913  24.045  0.00  0.00    +0.184 C 
ATOM      6  C   UNL     1       8.664  -1.513  22.808  0.00  0.00    +0.209 C 
ATOM      7  O   UNL     1       8.124  -2.719  22.233  0.00  0.00    -0.355 OA
BRANCH   3   8
ATOM      8  O   UNL     1       8.391  -4.865  24.720  0.00  0.00    -0.386 OA
ATOM      9  H   UNL     1       9.344  -4.672  24.629  0.00  0.00    +0.210 HD
ENDBRANCH   3   8
BRANCH   4  10
ATOM     10  O   UNL     1       7.805  -1.465  25.771  0.00  0.00    -0.386 OA
ATOM     11  H   UNL     1       7.449  -0.865  25.093  0.00  0.00    +0.210 HD
ENDBRANCH   4  10
BRANCH   5  12
ATOM     12  O   UNL     1      10.463  -2.916  23.702  0.00  0.00    -0.386 OA
ATOM     13  H   UNL     1      10.627  -3.468  24.490  0.00  0.00    +0.210 HD
ENDBRANCH   5  12
BRANCH   2  14
ATOM     14  C   UNL     1       5.765  -3.117  22.815  0.00  0.00    +0.190 C 
BRANCH  14  15
ATOM     15  O   UNL     1       5.347  -3.375  21.484  0.00  0.00    -0.392 OA
ATOM     16  H   UNL     1       4.385  -3.529  21.515  0.00  0.00    +0.210 HD
ENDBRANCH  14  15
ENDBRANCH   2  14
ENDBRANCH   1   6
BRANCH   1  17
ATOM     17  C   UNL     1       7.984   1.159  22.117  0.00  0.00    +0.209 C 
ATOM     18  C   UNL     1       9.375   1.531  22.687  0.00  0.00    +0.184 C 
ATOM     19  C   UNL     1       9.248   2.295  24.022  0.00  0.00    +0.177 C 
ATOM     20  C   UNL     1       8.269   3.466  23.880  0.00  0.00    +0.176 C 
ATOM     21  C   UNL     1       6.917   3.044  23.267  0.00  0.00    +0.176 C 
ATOM     22  O   UNL     1       7.040   2.229  22.091  0.00  0.00    -0.355 OA
BRANCH  18  23
ATOM     23  O   UNL     1      10.110   2.264  21.698  0.00  0.00    -0.386 OA
ATOM     24  H   UNL     1      10.550   1.627  21.104  0.00  0.00    +0.210 HD
ENDBRANCH  18  23
BRANCH  19  25
ATOM     25  O   UNL     1       8.884   1.437  25.111  0.00  0.00    -0.386 OA
ATOM     26  H   UNL     1       9.636   0.867  25.348  0.00  0.00    +0.210 HD
ENDBRANCH  19  25
BRANCH  20  27
ATOM     27  O   UNL     1       8.903   4.444  23.032  0.00  0.00    -0.386 OA
ATOM     28  H   UNL     1       9.642   4.833  23.532  0.00  0.00    +0.210 HD
ENDBRANCH  20  27
BRANCH  21  29
ATOM     29  C   UNL     1       5.928   2.452  24.285  0.00  0.00    +0.190 C 
BRANCH  29  30
ATOM     30  O   UNL     1       4.703   2.110  23.652  0.00  0.00    -0.392 OA
ATOM     31  H   UNL     1       4.810   2.246  22.694  0.00  0.00    +0.210 HD
ENDBRANCH  29  30
ENDBRANCH  21  29
ENDBRANCH   1  17
TORSDOF 12
ENDMDL
MODEL 8
REMARK VINA RESULT:      -5.9      1.995      5.842
REMARK  Name = 
REMARK  12 active torsions:
REMARK  status: ('A' for Active; 'I' for Inactive)
REMARK    1  A    between atoms: O_1  and  C_2
REMARK    2  A    between atoms: C_2  and  C_3
REMARK    3  A    between atoms: C_6  and  S_8
REMARK    4  A    between atoms: S_8  and  C_9
REMARK    5  A    between atoms: C_12  and  C_14
REMARK    6  A    between atoms: C_14  and  O_15
REMARK    7  A    between atoms: C_16  and  O_18
REMARK    8  A    between atoms: C_19  and  O_21
REMARK    9  A    between atoms: C_22  and  O_24
REMARK   10  A    between atoms: C_25  and  O_27
REMARK   11  A    between atoms: C_28  and  O_30
REMARK   12  A    between atoms: C_31  and  O_33
REMARK                            x       y       z     vdW  Elec       q    Type
REMARK                         _______ _______ _______ _____ _____    ______ ____
ROOT
ATOM      1  S   UNL     1       6.978  -3.272  23.271  0.00  0.00    -0.093 S 
ENDROOT
BRANCH   1   6
ATOM      2  C   UNL     1       9.382  -1.773  24.817  0.00  0.00    +0.176 C 
ATOM      3  C   UNL     1       9.082  -0.377  24.186  0.00  0.00    +0.176 C 
ATOM      4  C   UNL     1       8.440  -0.384  22.779  0.00  0.00    +0.177 C 
ATOM      5  C   UNL     1       8.893  -1.592  21.954  0.00  0.00    +0.184 C 
ATOM      6  C   UNL     1       8.679  -2.890  22.747  0.00  0.00    +0.209 C 
ATOM      7  O   UNL     1       9.565  -2.860  23.883  0.00  0.00    -0.355 OA
BRANCH   3   8
ATOM      8  O   UNL     1      10.335   0.338  24.089  0.00  0.00    -0.386 OA
ATOM      9  H   UNL     1      11.054  -0.320  24.028  0.00  0.00    +0.210 HD
ENDBRANCH   3   8
BRANCH   4  10
ATOM     10  O   UNL     1       7.014  -0.294  22.833  0.00  0.00    -0.386 OA
ATOM     11  H   UNL     1       6.716   0.361  22.178  0.00  0.00    +0.210 HD
ENDBRANCH   4  10
BRANCH   5  12
ATOM     12  O   UNL     1      10.291  -1.421  21.632  0.00  0.00    -0.386 OA
ATOM     13  H   UNL     1      10.788  -1.313  22.465  0.00  0.00    +0.210 HD
ENDBRANCH   5  12
BRANCH   2  14
ATOM     14  C   UNL     1       8.454  -2.204  25.980  0.00  0.00    +0.190 C 
BRANCH  14  15
ATOM     15  O   UNL     1       8.615  -3.565  26.345  0.00  0.00    -0.392 OA
ATOM     16  H   UNL     1       8.533  -4.089  25.527  0.00  0.00    +0.210 HD
ENDBRANCH  14  15
ENDBRANCH   2  14
ENDBRANCH   1   6
BRANCH   1  17
ATOM     17  C   UNL     1       6.991  -5.087  23.383  0.00  0.00    +0.209 C 
ATOM     18  C   UNL     1       5.967  -5.645  22.364  0.00  0.00    +0.184 C 
ATOM     19  C   UNL     1       4.522  -5.500  22.886  0.00  0.00    +0.177 C 
ATOM     20  C   UNL     1       4.403  -6.068  24.304  0.00  0.00    +0.176 C 
ATOM     21  C   UNL     1       5.476  -5.511  25.264  0.00  0.00    +0.176 C 
ATOM     22  O   UNL     1       6.807  -5.535  24.726  0.00  0.00    -0.355 OA
BRANCH  18  23
ATOM     23  O   UNL     1       6.306  -7.001  22.046  0.00  0.00    -0.386 OA
ATOM     24  H   UNL     1       7.104  -6.996  21.483  0.00  0.00    +0.210 HD
ENDBRANCH  18  23
BRANCH  19  25
ATOM     25  O   UNL     1       4.050  -4.147  22.823  0.00  0.00    -0.386 OA
ATOM     26  H   UNL     1       3.259  -4.100  22.259  0.00  0.00    +0.210 HD
ENDBRANCH  19  25
BRANCH  20  27
ATOM     27  O   UNL     1       4.543  -7.499  24.197  0.00  0.00    -0.386 OA
ATOM     28  H   UNL     1       4.872  -7.697  23.304  0.00  0.00    +0.210 HD
ENDBRANCH  20  27
BRANCH  21  29
ATOM     29  C   UNL     1       5.119  -4.145  25.873  0.00  0.00    +0.190 C 
BRANCH  29  30
ATOM     30  O   UNL     1       5.707  -4.001  27.159  0.00  0.00    -0.392 OA
ATOM     31  H   UNL     1       5.300  -4.658  27.751  0.00  0.00    +0.210 HD
ENDBRANCH  29  30
ENDBRANCH  21  29
ENDBRANCH   1  17
TORSDOF 12
ENDMDL
MODEL 9
REMARK VINA RESULT:      -5.9      1.320      5.837
REMARK  Name = 
REMARK  12 active torsions:
REMARK  status: ('A' for Active; 'I' for Inactive)
REMARK    1  A    between atoms: O_1  and  C_2
REMARK    2  A    between atoms: C_2  and  C_3
REMARK    3  A    between atoms: C_6  and  S_8
REMARK    4  A    between atoms: S_8  and  C_9
REMARK    5  A    between atoms: C_12  and  C_14
REMARK    6  A    between atoms: C_14  and  O_15
REMARK    7  A    between atoms: C_16  and  O_18
REMARK    8  A    between atoms: C_19  and  O_21
REMARK    9  A    between atoms: C_22  and  O_24
REMARK   10  A    between atoms: C_25  and  O_27
REMARK   11  A    between atoms: C_28  and  O_30
REMARK   12  A    between atoms: C_31  and  O_33
REMARK                            x       y       z     vdW  Elec       q    Type
REMARK                         _______ _______ _______ _____ _____    ______ ____
ROOT
ATOM      1  S   UNL     1       7.953  -2.087  23.953  0.00  0.00    -0.093 S 
ENDROOT
BRANCH   1   6
ATOM      2  C   UNL     1       8.900   0.831  24.958  0.00  0.00    +0.176 C 
ATOM      3  C   UNL     1       7.998   1.608  23.949  0.00  0.00    +0.176 C 
ATOM      4  C   UNL     1       7.685   0.891  22.615  0.00  0.00    +0.177 C 
ATOM      5  C   UNL     1       8.838  -0.017  22.175  0.00  0.00    +0.184 C 
ATOM      6  C   UNL     1       9.237  -0.964  23.317  0.00  0.00    +0.209 C 
ATOM      7  O   UNL     1       9.781  -0.159  24.381  0.00  0.00    -0.355 OA
BRANCH   3   8
ATOM      8  O   UNL     1       8.666   2.850  23.629  0.00  0.00    -0.386 OA
ATOM      9  H   UNL     1       9.449   2.639  23.086  0.00  0.00    +0.210 HD
ENDBRANCH   3   8
BRANCH   4  10
ATOM     10  O   UNL     1       6.447   0.177  22.660  0.00  0.00    -0.386 OA
ATOM     11  H   UNL     1       5.761   0.711  22.222  0.00  0.00    +0.210 HD
ENDBRANCH   4  10
BRANCH   5  12
ATOM     12  O   UNL     1       9.953   0.820  21.798  0.00  0.00    -0.386 OA
ATOM     13  H   UNL     1       9.713   1.750  21.973  0.00  0.00    +0.210 HD
ENDBRANCH   5  12
BRANCH   2  14
ATOM     14  C   UNL     1       8.186   0.262  26.209  0.00  0.00    +0.190 C 
BRANCH  14  15
ATOM     15  O   UNL     1       9.075  -0.351  27.128  0.00  0.00    -0.392 OA
ATOM     16  H   UNL     1       9.235  -1.257  26.806  0.00  0.00    +0.210 HD
ENDBRANCH  14  15
ENDBRANCH   2  14
ENDBRANCH   1   6
BRANCH   1  17
ATOM     17  C   UNL     1       8.906  -3.241  24.985  0.00  0.00    +0.209 C 
ATOM     18  C   UNL     1       8.730  -4.668  24.409  0.00  0.00    +0.184 C 
ATOM     19  C   UNL     1       7.358  -5.261  24.793  0.00  0.00    +0.177 C 
ATOM     20  C   UNL     1       7.122  -5.137  26.302  0.00  0.00    +0.176 C 
ATOM     21  C   UNL     1       7.355  -3.704  26.828  0.00  0.00    +0.176 C 
ATOM     22  O   UNL     1       8.577  -3.107  26.368  0.00  0.00    -0.355 OA
BRANCH  18  23
ATOM     23  O   UNL     1       9.826  -5.488  24.834  0.00  0.00    -0.386 OA
ATOM     24  H   UNL     1       9.753  -6.355  24.391  0.00  0.00    +0.210 HD
ENDBRANCH  18  23
BRANCH  19  25
ATOM     25  O   UNL     1       6.282  -4.682  24.045  0.00  0.00    -0.386 OA
ATOM     26  H   UNL     1       5.651  -4.255  24.651  0.00  0.00    +0.210 HD
ENDBRANCH  19  25
BRANCH  20  27
ATOM     27  O   UNL     1       8.036  -6.046  26.948  0.00  0.00    -0.386 OA
ATOM     28  H   UNL     1       8.067  -5.812  27.891  0.00  0.00    +0.210 HD
ENDBRANCH  20  27
BRANCH  21  29
ATOM     29  C   UNL     1       6.147  -2.770  26.648  0.00  0.00    +0.190 C 
BRANCH  29  30
ATOM     30  O   UNL     1       4.952  -3.522  26.493  0.00  0.00    -0.392 OA
ATOM     31  H   UNL     1       4.328  -3.242  27.186  0.00  0.00    +0.210 HD
ENDBRANCH  29  30
ENDBRANCH  21  29
ENDBRANCH   1  17
TORSDOF 12
ENDMDL
