MODEL 1
REMARK VINA RESULT:      -5.2      0.000      0.000
REMARK  Name = 
REMARK  4 active torsions:
REMARK  status: ('A' for Active; 'I' for Inactive)
REMARK    1  A    between atoms: O_1  and  C_2
REMARK    2  A    between atoms: C_2  and  CA_4
REMARK    3  A    between atoms: CA_8  and  C_10
REMARK    4  A    between atoms: C_10  and  O_11
REMARK                            x       y       z     vdW  Elec       q    Type
REMARK                         _______ _______ _______ _____ _____    ______ ____
ROOT
ATOM      1  CA  UNL     1       9.050  -2.569  23.087  0.00  0.00    +0.148 A 
ATOM      2  N   UNL     1       9.458  -3.411  24.088  0.00  0.00    -0.234 NA
ATOM      3  CA  UNL     1       8.581  -4.426  24.370  0.00  0.00    +0.148 A 
ATOM      4  C   UNL     1       7.373  -4.634  23.711  0.00  0.00    +0.035 A 
ATOM      5  C   UNL     1       7.008  -3.750  22.701  0.00  0.00    +0.005 A 
ATOM      6  C   UNL     1       7.856  -2.694  22.385  0.00  0.00    +0.035 A 
ENDROOT
BRANCH   1   7
ATOM      7  C   UNL     1       9.977  -1.447  22.743  0.00  0.00    +0.355 C 
ATOM      8  OXT UNL     1      10.401  -0.630  23.542  0.00  0.00    -0.243 OA
BRANCH   7   9
ATOM      9  O   UNL     1      10.282  -1.449  21.425  0.00  0.00    -0.476 OA
ATOM     10  H   UNL     1      10.315  -2.368  21.090  0.00  0.00    +0.295 HD
ENDBRANCH   7   9
ENDBRANCH   1   7
BRANCH   3  11
ATOM     11  C   UNL     1       8.969  -5.357  25.473  0.00  0.00    +0.355 C 
ATOM     12  OXT UNL     1       8.209  -5.762  26.334  0.00  0.00    -0.243 OA
BRANCH  11  13
ATOM     13  O   UNL     1      10.278  -5.691  25.400  0.00  0.00    -0.476 OA
ATOM     14  H   UNL     1      10.661  -5.747  26.298  0.00  0.00    +0.295 HD
ENDBRANCH  11  13
ENDBRANCH   3  11
TORSDOF 4
ENDMDL
MODEL 2
REMARK VINA RESULT:      -5.1      0.117      4.238
REMARK  Name = 
REMARK  4 active torsions:
REMARK  status: ('A' for Active; 'I' for Inactive)
REMARK    1  A    between atoms: O_1  and  C_2
REMARK    2  A    between atoms: C_2  and  CA_4
REMARK    3  A    between atoms: CA_8  and  C_10
REMARK    4  A    between atoms: C_10  and  O_11
REMARK                            x       y       z     vdW  Elec       q    Type
REMARK                         _______ _______ _______ _____ _____    ______ ____
ROOT
ATOM      1  CA  UNL     1       8.561  -4.444  24.456  0.00  0.00    +0.148 A 
ATOM      2  N   UNL     1       9.431  -3.421  24.187  0.00  0.00    -0.234 NA
ATOM      3  CA  UNL     1       9.064  -2.624  23.135  0.00  0.00    +0.148 A 
ATOM      4  C   UNL     1       7.904  -2.789  22.382  0.00  0.00    +0.035 A 
ATOM      5  C   UNL     1       7.054  -3.843  22.699  0.00  0.00    +0.005 A 
ATOM      6  C   UNL     1       7.387  -4.692  23.750  0.00  0.00    +0.035 A 
ENDROOT
BRANCH   1   7
ATOM      7  C   UNL     1       8.919  -5.341  25.598  0.00  0.00    +0.355 C 
ATOM      8  OXT UNL     1       8.120  -5.787  26.403  0.00  0.00    -0.243 OA
BRANCH   7   9
ATOM      9  O   UNL     1      10.247  -5.592  25.628  0.00  0.00    -0.476 OA
ATOM     10  H   UNL     1      10.415  -6.534  25.424  0.00  0.00    +0.295 HD
ENDBRANCH   7   9
ENDBRANCH   1   7
BRANCH   3  11
ATOM     11  C   UNL     1       9.996  -1.509  22.785  0.00  0.00    +0.355 C 
ATOM     12  OXT UNL     1      10.420  -0.688  23.580  0.00  0.00    -0.243 OA
BRANCH  11  13
ATOM     13  O   UNL     1      10.309  -1.520  21.469  0.00  0.00    -0.476 OA
ATOM     14  H   UNL     1      11.018  -0.870  21.287  0.00  0.00    +0.295 HD
ENDBRANCH  11  13
ENDBRANCH   3  11
TORSDOF 4
ENDMDL
MODEL 3
REMARK VINA RESULT:      -5.0      2.532      4.307
REMARK  Name = 
REMARK  4 active torsions:
REMARK  status: ('A' for Active; 'I' for Inactive)
REMARK    1  A    between atoms: O_1  and  C_2
REMARK    2  A    between atoms: C_2  and  CA_4
REMARK    3  A    between atoms: CA_8  and  C_10
REMARK    4  A    between atoms: C_10  and  O_11
REMARK                            x       y       z     vdW  Elec       q    Type
REMARK                         _______ _______ _______ _____ _____    ______ ____
ROOT
ATOM      1  CA  UNL     1       8.400  -4.642  24.336  0.00  0.00    +0.148 A 
ATOM      2  N   UNL     1       7.641  -5.387  23.473  0.00  0.00    -0.234 NA
ATOM      3  CA  UNL     1       7.150  -4.689  22.400  0.00  0.00    +0.148 A 
ATOM      4  C   UNL     1       7.389  -3.339  22.157  0.00  0.00    +0.035 A 
ATOM      5  C   UNL     1       8.167  -2.630  23.065  0.00  0.00    +0.005 A 
ATOM      6  C   UNL     1       8.680  -3.288  24.179  0.00  0.00    +0.035 A 
ENDROOT
BRANCH   1   7
ATOM      7  C   UNL     1       8.960  -5.361  25.521  0.00  0.00    +0.355 C 
ATOM      8  OXT UNL     1       8.315  -5.681  26.505  0.00  0.00    -0.243 OA
BRANCH   7   9
ATOM      9  O   UNL     1      10.281  -5.610  25.367  0.00  0.00    -0.476 OA
ATOM     10  H   UNL     1      10.805  -4.848  25.688  0.00  0.00    +0.295 HD
ENDBRANCH   7   9
ENDBRANCH   1   7
BRANCH   3  11
ATOM     11  C   UNL     1       6.293  -5.453  21.443  0.00  0.00    +0.355 C 
ATOM     12  OXT UNL     1       5.879  -5.013  20.385  0.00  0.00    -0.243 OA
BRANCH  11  13
ATOM     13  O   UNL     1       6.028  -6.697  21.902  0.00  0.00    -0.476 OA
ATOM     14  H   UNL     1       5.555  -6.647  22.757  0.00  0.00    +0.295 HD
ENDBRANCH  11  13
ENDBRANCH   3  11
TORSDOF 4
ENDMDL
MODEL 4
REMARK VINA RESULT:      -4.8      1.683      2.065
REMARK  Name = 
REMARK  4 active torsions:
REMARK  status: ('A' for Active; 'I' for Inactive)
REMARK    1  A    between atoms: O_1  and  C_2
REMARK    2  A    between atoms: C_2  and  CA_4
REMARK    3  A    between atoms: CA_8  and  C_10
REMARK    4  A    between atoms: C_10  and  O_11
REMARK                            x       y       z     vdW  Elec       q    Type
REMARK                         _______ _______ _______ _____ _____    ______ ____
ROOT
ATOM      1  CA  UNL     1       9.616  -1.561  23.896  0.00  0.00    +0.148 A 
ATOM      2  N   UNL     1       9.768  -2.921  23.839  0.00  0.00    -0.234 NA
ATOM      3  CA  UNL     1       9.269  -3.595  24.923  0.00  0.00    +0.148 A 
ATOM      4  C   UNL     1       8.637  -2.992  26.008  0.00  0.00    +0.035 A 
ATOM      5  C   UNL     1       8.508  -1.608  26.014  0.00  0.00    +0.005 A 
ATOM      6  C   UNL     1       9.010  -0.874  24.943  0.00  0.00    +0.035 A 
ENDROOT
BRANCH   1   7
ATOM      7  C   UNL     1      10.143  -0.783  22.733  0.00  0.00    +0.355 C 
ATOM      8  OXT UNL     1      10.340   0.420  22.737  0.00  0.00    -0.243 OA
BRANCH   7   9
ATOM      9  O   UNL     1      10.370  -1.584  21.667  0.00  0.00    -0.476 OA
ATOM     10  H   UNL     1       9.997  -2.474  21.832  0.00  0.00    +0.295 HD
ENDBRANCH   7   9
ENDBRANCH   1   7
BRANCH   3  11
ATOM     11  C   UNL     1       9.435  -5.080  24.920  0.00  0.00    +0.355 C 
ATOM     12  OXT UNL     1       8.931  -5.829  24.102  0.00  0.00    -0.243 OA
BRANCH  11  13
ATOM     13  O   UNL     1      10.213  -5.492  25.947  0.00  0.00    -0.476 OA
ATOM     14  H   UNL     1       9.690  -6.040  26.566  0.00  0.00    +0.295 HD
ENDBRANCH  11  13
ENDBRANCH   3  11
TORSDOF 4
ENDMDL
MODEL 5
REMARK VINA RESULT:      -4.7      1.665      4.742
REMARK  Name = 
REMARK  4 active torsions:
REMARK  status: ('A' for Active; 'I' for Inactive)
REMARK    1  A    between atoms: O_1  and  C_2
REMARK    2  A    between atoms: C_2  and  CA_4
REMARK    3  A    between atoms: CA_8  and  C_10
REMARK    4  A    between atoms: C_10  and  O_11
REMARK                            x       y       z     vdW  Elec       q    Type
REMARK                         _______ _______ _______ _____ _____    ______ ____
ROOT
ATOM      1  CA  UNL     1       9.102  -3.213  24.925  0.00  0.00    +0.148 A 
ATOM      2  N   UNL     1       9.565  -2.666  23.757  0.00  0.00    -0.234 NA
ATOM      3  CA  UNL     1       9.572  -1.296  23.735  0.00  0.00    +0.148 A 
ATOM      4  C   UNL     1       9.167  -0.485  24.792  0.00  0.00    +0.035 A 
ATOM      5  C   UNL     1       8.707  -1.092  25.955  0.00  0.00    +0.005 A 
ATOM      6  C   UNL     1       8.667  -2.481  26.025  0.00  0.00    +0.035 A 
ENDROOT
BRANCH   1   7
ATOM      7  C   UNL     1       9.078  -4.707  24.997  0.00  0.00    +0.355 C 
ATOM      8  OXT UNL     1       8.064  -5.380  25.044  0.00  0.00    -0.243 OA
BRANCH   7   9
ATOM      9  O   UNL     1      10.330  -5.219  25.008  0.00  0.00    -0.476 OA
ATOM     10  H   UNL     1      10.562  -5.557  24.120  0.00  0.00    +0.295 HD
ENDBRANCH   7   9
ENDBRANCH   1   7
BRANCH   3  11
ATOM     11  C   UNL     1      10.044  -0.651  22.472  0.00  0.00    +0.355 C 
ATOM     12  OXT UNL     1      10.190   0.549  22.322  0.00  0.00    -0.243 OA
BRANCH  11  13
ATOM     13  O   UNL     1      10.286  -1.569  21.509  0.00  0.00    -0.476 OA
ATOM     14  H   UNL     1      11.130  -2.032  21.690  0.00  0.00    +0.295 HD
ENDBRANCH  11  13
ENDBRANCH   3  11
TORSDOF 4
ENDMDL
MODEL 6
REMARK VINA RESULT:      -4.7      2.449      4.388
REMARK  Name = 
REMARK  4 active torsions:
REMARK  status: ('A' for Active; 'I' for Inactive)
REMARK    1  A    between atoms: O_1  and  C_2
REMARK    2  A    between atoms: C_2  and  CA_4
REMARK    3  A    between atoms: CA_8  and  C_10
REMARK    4  A    between atoms: C_10  and  O_11
REMARK                            x       y       z     vdW  Elec       q    Type
REMARK                         _______ _______ _______ _____ _____    ______ ____
ROOT
ATOM      1  CA  UNL     1       7.190  -4.024  22.751  0.00  0.00    +0.148 A 
ATOM      2  N   UNL     1       7.969  -2.960  22.379  0.00  0.00    -0.234 NA
ATOM      3  CA  UNL     1       9.033  -2.717  23.208  0.00  0.00    +0.148 A 
ATOM      4  C   UNL     1       9.346  -3.470  24.336  0.00  0.00    +0.035 A 
ATOM      5  C   UNL     1       8.523  -4.541  24.667  0.00  0.00    +0.005 A 
ATOM      6  C   UNL     1       7.421  -4.823  23.866  0.00  0.00    +0.035 A 
ENDROOT
BRANCH   1   7
ATOM      7  C   UNL     1       6.018  -4.329  21.875  0.00  0.00    +0.355 C 
ATOM      8  OXT UNL     1       6.055  -5.060  20.901  0.00  0.00    -0.243 OA
BRANCH   7   9
ATOM      9  O   UNL     1       4.907  -3.684  22.297  0.00  0.00    -0.476 OA
ATOM     10  H   UNL     1       5.131  -2.770  22.565  0.00  0.00    +0.295 HD
ENDBRANCH   7   9
ENDBRANCH   1   7
BRANCH   3  11
ATOM     11  C   UNL     1       9.898  -1.549  22.859  0.00  0.00    +0.355 C 
ATOM     12  OXT UNL     1      10.274  -0.706  23.655  0.00  0.00    -0.243 OA
BRANCH  11  13
ATOM     13  O   UNL     1      10.209  -1.540  21.543  0.00  0.00    -0.476 OA
ATOM     14  H   UNL     1      10.971  -0.947  21.382  0.00  0.00    +0.295 HD
ENDBRANCH  11  13
ENDBRANCH   3  11
TORSDOF 4
ENDMDL
MODEL 7
REMARK VINA RESULT:      -4.7      2.421      3.064
REMARK  Name = 
REMARK  4 active torsions:
REMARK  status: ('A' for Active; 'I' for Inactive)
REMARK    1  A    between atoms: O_1  and  C_2
REMARK    2  A    between atoms: C_2  and  CA_4
REMARK    3  A    between atoms: CA_8  and  C_10
REMARK    4  A    between atoms: C_10  and  O_11
REMARK                            x       y       z     vdW  Elec       q    Type
REMARK                         _______ _______ _______ _____ _____    ______ ____
ROOT
ATOM      1  CA  UNL     1       9.242  -2.221  22.987  0.00  0.00    +0.148 A 
ATOM      2  N   UNL     1       8.171  -2.591  22.218  0.00  0.00    -0.234 NA
ATOM      3  CA  UNL     1       7.517  -3.713  22.656  0.00  0.00    +0.148 A 
ATOM      4  C   UNL     1       7.866  -4.440  23.791  0.00  0.00    +0.035 A 
ATOM      5  C   UNL     1       8.962  -4.020  24.537  0.00  0.00    +0.005 A 
ATOM      6  C   UNL     1       9.669  -2.893  24.127  0.00  0.00    +0.035 A 
ENDROOT
BRANCH   1   7
ATOM      7  C   UNL     1       9.986  -1.000  22.549  0.00  0.00    +0.355 C 
ATOM      8  OXT UNL     1      10.609  -0.265  23.295  0.00  0.00    -0.243 OA
BRANCH   7   9
ATOM      9  O   UNL     1       9.875  -0.809  21.214  0.00  0.00    -0.476 OA
ATOM     10  H   UNL     1      10.755  -0.886  20.791  0.00  0.00    +0.295 HD
ENDBRANCH   7   9
ENDBRANCH   1   7
BRANCH   3  11
ATOM     11  C   UNL     1       6.356  -4.173  21.835  0.00  0.00    +0.355 C 
ATOM     12  OXT UNL     1       5.339  -3.528  21.656  0.00  0.00    -0.243 OA
BRANCH  11  13
ATOM     13  O   UNL     1       6.574  -5.403  21.316  0.00  0.00    -0.476 OA
ATOM     14  H   UNL     1       7.500  -5.677  21.478  0.00  0.00    +0.295 HD
ENDBRANCH  11  13
ENDBRANCH   3  11
TORSDOF 4
ENDMDL
MODEL 8
REMARK VINA RESULT:      -4.7      5.909      7.954
REMARK  Name = 
REMARK  4 active torsions:
REMARK  status: ('A' for Active; 'I' for Inactive)
REMARK    1  A    between atoms: O_1  and  C_2
REMARK    2  A    between atoms: C_2  and  CA_4
REMARK    3  A    between atoms: CA_8  and  C_10
REMARK    4  A    between atoms: C_10  and  O_11
REMARK                            x       y       z     vdW  Elec       q    Type
REMARK                         _______ _______ _______ _____ _____    ______ ____
ROOT
ATOM      1  CA  UNL     1      11.337   4.898  23.606  0.00  0.00    +0.148 A 
ATOM      2  N   UNL     1      11.328   3.605  23.153  0.00  0.00    -0.234 NA
ATOM      3  CA  UNL     1      10.121   2.968  23.274  0.00  0.00    +0.148 A 
ATOM      4  C   UNL     1       8.967   3.550  23.791  0.00  0.00    +0.035 A 
ATOM      5  C   UNL     1       9.031   4.866  24.235  0.00  0.00    +0.005 A 
ATOM      6  C   UNL     1      10.237   5.555  24.148  0.00  0.00    +0.035 A 
ENDROOT
BRANCH   1   7
ATOM      7  C   UNL     1      12.633   5.635  23.493  0.00  0.00    +0.355 C 
ATOM      8  OXT UNL     1      13.364   5.603  22.518  0.00  0.00    -0.243 OA
BRANCH   7   9
ATOM      9  O   UNL     1      12.897   6.341  24.616  0.00  0.00    -0.476 OA
ATOM     10  H   UNL     1      13.729   6.845  24.506  0.00  0.00    +0.295 HD
ENDBRANCH   7   9
ENDBRANCH   1   7
BRANCH   3  11
ATOM     11  C   UNL     1      10.068   1.546  22.818  0.00  0.00    +0.355 C 
ATOM     12  OXT UNL     1      10.270   0.583  23.536  0.00  0.00    -0.243 OA
BRANCH  11  13
ATOM     13  O   UNL     1       9.773   1.460  21.501  0.00  0.00    -0.476 OA
ATOM     14  H   UNL     1       9.357   0.596  21.305  0.00  0.00    +0.295 HD
ENDBRANCH  11  13
ENDBRANCH   3  11
TORSDOF 4
ENDMDL
MODEL 9
REMARK VINA RESULT:      -4.6      2.687      4.277
REMARK  Name = 
REMARK  4 active torsions:
REMARK  status: ('A' for Active; 'I' for Inactive)
REMARK    1  A    between atoms: O_1  and  C_2
REMARK    2  A    between atoms: C_2  and  CA_4
REMARK    3  A    between atoms: CA_8  and  C_10
REMARK    4  A    between atoms: C_10  and  O_11
REMARK                            x       y       z     vdW  Elec       q    Type
REMARK                         _______ _______ _______ _____ _____    ______ ____
ROOT
ATOM      1  CA  UNL     1       7.859  -4.769  24.162  0.00  0.00    +0.148 A 
ATOM      2  N   UNL     1       6.730  -5.544  24.132  0.00  0.00    -0.234 NA
ATOM      3  CA  UNL     1       5.780  -5.132  23.234  0.00  0.00    +0.148 A 
ATOM      4  C   UNL     1       5.914  -4.034  22.389  0.00  0.00    +0.035 A 
ATOM      5  C   UNL     1       7.081  -3.283  22.458  0.00  0.00    +0.005 A 
ATOM      6  C   UNL     1       8.072  -3.650  23.363  0.00  0.00    +0.035 A 
ENDROOT
BRANCH   1   7
ATOM      7  C   UNL     1       8.925  -5.181  25.126  0.00  0.00    +0.355 C 
ATOM      8  OXT UNL     1      10.114  -4.958  24.979  0.00  0.00    -0.243 OA
BRANCH   7   9
ATOM      9  O   UNL     1       8.402  -5.841  26.184  0.00  0.00    -0.476 OA
ATOM     10  H   UNL     1       7.544  -5.443  26.436  0.00  0.00    +0.295 HD
ENDBRANCH   7   9
ENDBRANCH   1   7
BRANCH   3  11
ATOM     11  C   UNL     1       4.518  -5.931  23.184  0.00  0.00    +0.355 C 
ATOM     12  OXT UNL     1       3.444  -5.502  22.800  0.00  0.00    -0.243 OA
BRANCH  11  13
ATOM     13  O   UNL     1       4.715  -7.194  23.625  0.00  0.00    -0.476 OA
ATOM     14  H   UNL     1       5.658  -7.439  23.534  0.00  0.00    +0.295 HD
ENDBRANCH  11  13
ENDBRANCH   3  11
TORSDOF 4
ENDMDL
