MODEL 1
REMARK VINA RESULT:      -6.9      0.000      0.000
REMARK  Name = 
REMARK  8 active torsions:
REMARK  status: ('A' for Active; 'I' for Inactive)
REMARK    1  A    between atoms: C_2  and  C_3
REMARK    2  A    between atoms: C_2  and  N_13
REMARK    3  A    between atoms: C_2  and  C_24
REMARK    4  A    between atoms: C_3  and  C_4
REMARK    5  A    between atoms: C_10  and  S_11
REMARK    6  A    between atoms: C_14  and  O_16
REMARK    7  A    between atoms: O_16  and  C_17
REMARK    8  A    between atoms: C_17  and  C_18
REMARK                            x       y       z     vdW  Elec       q    Type
REMARK                         _______ _______ _______ _____ _____    ______ ____
ROOT
ATOM      1  C   UNL     1       9.373  -0.489  24.800  0.00  0.00    +0.115 C 
ENDROOT
BRANCH   1   2
ATOM      2  C   UNL     1       9.274   1.027  24.697  0.00  0.00    -0.027 A 
ATOM      3  C   UNL     1      10.213   1.756  23.951  0.00  0.00    +0.005 A 
ATOM      4  C   UNL     1      10.081   3.138  23.804  0.00  0.00    +0.000 A 
ATOM      5  C   UNL     1       9.012   3.808  24.399  0.00  0.00    +0.000 A 
ATOM      6  C   UNL     1       8.084   3.100  25.157  0.00  0.00    +0.000 A 
ATOM      7  C   UNL     1       8.216   1.721  25.310  0.00  0.00    +0.005 A 
ENDBRANCH   1   2
BRANCH   1   8
ATOM      8  N   UNL     1       8.756  -1.071  23.608  0.00  0.00    -0.274 N 
ATOM      9  H   UNL     1       7.753  -1.190  23.627  0.00  0.00    +0.153 HD
ATOM     10  C   UNL     1       9.381  -1.772  22.625  0.00  0.00    +0.401 C 
ATOM     11  O   UNL     1      10.591  -1.844  22.467  0.00  0.00    -0.226 OA
BRANCH  10  12
ATOM     12  O   UNL     1       8.452  -2.317  21.807  0.00  0.00    -0.446 OA
BRANCH  12  13
ATOM     13  C   UNL     1       7.096  -2.213  22.265  0.00  0.00    +0.269 C 
BRANCH  13  14
ATOM     14  C   UNL     1       6.482  -3.554  22.578  0.00  0.00    -0.010 A 
ATOM     15  C   UNL     1       7.219  -4.732  22.378  0.00  0.00    +0.007 A 
ATOM     16  C   UNL     1       6.628  -5.983  22.572  0.00  0.00    +0.000 A 
ATOM     17  C   UNL     1       5.297  -6.071  22.971  0.00  0.00    +0.000 A 
ATOM     18  C   UNL     1       4.557  -4.908  23.184  0.00  0.00    +0.000 A 
ATOM     19  C   UNL     1       5.146  -3.656  22.990  0.00  0.00    +0.007 A 
ENDBRANCH  13  14
ENDBRANCH  12  13
ENDBRANCH  10  12
ENDBRANCH   1   8
BRANCH   1  20
ATOM     20  C   UNL     1       8.875  -0.985  26.165  0.00  0.00    +0.123 C 
BRANCH  20  21
ATOM     21  C   UNL     1       8.432  -2.432  26.103  0.00  0.00    +0.221 C 
ATOM     22  N   UNL     1       7.171  -2.632  26.619  0.00  0.00    -0.263 N 
ATOM     23  H   UNL     1       6.566  -1.828  26.765  0.00  0.00    +0.157 HD
ATOM     24  C   UNL     1       6.593  -3.869  26.656  0.00  0.00    +0.189 A 
ATOM     25  S   UNL     1       4.915  -3.865  26.979  0.00  0.00    -0.024 S 
ATOM     26  C   UNL     1       4.964  -5.564  26.764  0.00  0.00    +0.157 A 
ATOM     27  N   UNL     1       6.161  -6.055  26.538  0.00  0.00    -0.133 NA
ATOM     28  N   UNL     1       7.118  -5.057  26.474  0.00  0.00    -0.125 NA
ATOM     29  O   UNL     1       9.163  -3.286  25.610  0.00  0.00    -0.275 OA
BRANCH  26  30
ATOM     30  S   UNL     1       3.558  -6.591  26.813  0.00  0.00    -0.114 S 
ATOM     31  H   UNL     1       4.232  -7.750  26.801  0.00  0.00    +0.109 HD
ENDBRANCH  26  30
ENDBRANCH  20  21
ENDBRANCH   1  20
TORSDOF 8
ENDMDL
MODEL 2
REMARK VINA RESULT:      -6.9      1.796      2.272
REMARK  Name = 
REMARK  8 active torsions:
REMARK  status: ('A' for Active; 'I' for Inactive)
REMARK    1  A    between atoms: C_2  and  C_3
REMARK    2  A    between atoms: C_2  and  N_13
REMARK    3  A    between atoms: C_2  and  C_24
REMARK    4  A    between atoms: C_3  and  C_4
REMARK    5  A    between atoms: C_10  and  S_11
REMARK    6  A    between atoms: C_14  and  O_16
REMARK    7  A    between atoms: O_16  and  C_17
REMARK    8  A    between atoms: C_17  and  C_18
REMARK                            x       y       z     vdW  Elec       q    Type
REMARK                         _______ _______ _______ _____ _____    ______ ____
ROOT
ATOM      1  C   UNL     1       9.421  -2.234  23.077  0.00  0.00    +0.115 C 
ENDROOT
BRANCH   1   2
ATOM      2  C   UNL     1       9.694  -0.745  22.918  0.00  0.00    -0.027 A 
ATOM      3  C   UNL     1       9.421  -0.094  21.706  0.00  0.00    +0.005 A 
ATOM      4  C   UNL     1       9.609   1.285  21.584  0.00  0.00    +0.000 A 
ATOM      5  C   UNL     1      10.073   2.028  22.670  0.00  0.00    +0.000 A 
ATOM      6  C   UNL     1      10.364   1.391  23.873  0.00  0.00    +0.000 A 
ATOM      7  C   UNL     1      10.182   0.015  23.996  0.00  0.00    +0.005 A 
ENDBRANCH   1   2
BRANCH   1   8
ATOM      8  N   UNL     1       8.043  -2.495  22.665  0.00  0.00    -0.274 N 
ATOM      9  H   UNL     1       7.912  -2.932  21.763  0.00  0.00    +0.153 HD
ATOM     10  C   UNL     1       6.916  -1.933  23.177  0.00  0.00    +0.401 C 
ATOM     11  O   UNL     1       6.858  -1.281  24.210  0.00  0.00    -0.226 OA
BRANCH  10  12
ATOM     12  O   UNL     1       5.858  -2.268  22.405  0.00  0.00    -0.446 OA
BRANCH  12  13
ATOM     13  C   UNL     1       5.819  -3.640  21.983  0.00  0.00    +0.269 C 
BRANCH  13  14
ATOM     14  C   UNL     1       5.087  -4.528  22.957  0.00  0.00    -0.010 A 
ATOM     15  C   UNL     1       5.387  -5.898  23.028  0.00  0.00    +0.007 A 
ATOM     16  C   UNL     1       4.649  -6.746  23.856  0.00  0.00    +0.000 A 
ATOM     17  C   UNL     1       3.606  -6.236  24.626  0.00  0.00    +0.000 A 
ATOM     18  C   UNL     1       3.306  -4.876  24.574  0.00  0.00    +0.000 A 
ATOM     19  C   UNL     1       4.042  -4.025  23.745  0.00  0.00    +0.007 A 
ENDBRANCH  13  14
ENDBRANCH  12  13
ENDBRANCH  10  12
ENDBRANCH   1   8
BRANCH   1  20
ATOM     20  C   UNL     1       9.847  -2.730  24.466  0.00  0.00    +0.123 C 
BRANCH  20  21
ATOM     21  C   UNL     1       9.012  -3.911  24.916  0.00  0.00    +0.221 C 
ATOM     22  N   UNL     1       8.136  -3.595  25.930  0.00  0.00    -0.263 N 
ATOM     23  H   UNL     1       7.940  -2.616  26.126  0.00  0.00    +0.157 HD
ATOM     24  C   UNL     1       7.296  -4.524  26.476  0.00  0.00    +0.189 A 
ATOM     25  S   UNL     1       6.045  -3.878  27.443  0.00  0.00    -0.024 S 
ATOM     26  C   UNL     1       5.473  -5.483  27.614  0.00  0.00    +0.157 A 
ATOM     27  N   UNL     1       6.220  -6.397  27.037  0.00  0.00    -0.133 NA
ATOM     28  N   UNL     1       7.292  -5.831  26.367  0.00  0.00    -0.125 NA
ATOM     29  O   UNL     1       9.137  -5.004  24.373  0.00  0.00    -0.275 OA
BRANCH  26  30
ATOM     30  S   UNL     1       4.011  -5.911  28.459  0.00  0.00    -0.114 S 
ATOM     31  H   UNL     1       4.588  -6.772  29.309  0.00  0.00    +0.109 HD
ENDBRANCH  26  30
ENDBRANCH  20  21
ENDBRANCH   1  20
TORSDOF 8
ENDMDL
MODEL 3
REMARK VINA RESULT:      -6.7      2.046      2.952
REMARK  Name = 
REMARK  8 active torsions:
REMARK  status: ('A' for Active; 'I' for Inactive)
REMARK    1  A    between atoms: C_2  and  C_3
REMARK    2  A    between atoms: C_2  and  N_13
REMARK    3  A    between atoms: C_2  and  C_24
REMARK    4  A    between atoms: C_3  and  C_4
REMARK    5  A    between atoms: C_10  and  S_11
REMARK    6  A    between atoms: C_14  and  O_16
REMARK    7  A    between atoms: O_16  and  C_17
REMARK    8  A    between atoms: C_17  and  C_18
REMARK                            x       y       z     vdW  Elec       q    Type
REMARK                         _______ _______ _______ _____ _____    ______ ____
ROOT
ATOM      1  C   UNL     1       8.885  -2.617  24.062  0.00  0.00    +0.115 C 
ENDROOT
BRANCH   1   2
ATOM      2  C   UNL     1       9.335  -1.336  23.373  0.00  0.00    -0.027 A 
ATOM      3  C   UNL     1       8.989  -1.083  22.037  0.00  0.00    +0.005 A 
ATOM      4  C   UNL     1       9.346   0.122  21.429  0.00  0.00    +0.000 A 
ATOM      5  C   UNL     1      10.052   1.088  22.147  0.00  0.00    +0.000 A 
ATOM      6  C   UNL     1      10.416   0.843  23.468  0.00  0.00    +0.000 A 
ATOM      7  C   UNL     1      10.065  -0.362  24.075  0.00  0.00    +0.005 A 
ENDBRANCH   1   2
BRANCH   1   8
ATOM      8  N   UNL     1       7.757  -3.169  23.312  0.00  0.00    -0.274 N 
ATOM      9  H   UNL     1       6.960  -2.563  23.177  0.00  0.00    +0.153 HD
ATOM     10  C   UNL     1       7.505  -4.482  23.065  0.00  0.00    +0.401 C 
ATOM     11  O   UNL     1       8.293  -5.399  23.243  0.00  0.00    -0.226 OA
BRANCH  10  12
ATOM     12  O   UNL     1       6.272  -4.606  22.523  0.00  0.00    -0.446 OA
BRANCH  12  13
ATOM     13  C   UNL     1       5.210  -3.999  23.275  0.00  0.00    +0.269 C 
BRANCH  13  14
ATOM     14  C   UNL     1       4.352  -5.012  23.991  0.00  0.00    -0.010 A 
ATOM     15  C   UNL     1       3.049  -4.678  24.392  0.00  0.00    +0.007 A 
ATOM     16  C   UNL     1       2.282  -5.573  25.141  0.00  0.00    +0.000 A 
ATOM     17  C   UNL     1       2.806  -6.815  25.493  0.00  0.00    +0.000 A 
ATOM     18  C   UNL     1       4.095  -7.165  25.090  0.00  0.00    +0.000 A 
ATOM     19  C   UNL     1       4.864  -6.269  24.342  0.00  0.00    +0.007 A 
ENDBRANCH  13  14
ENDBRANCH  12  13
ENDBRANCH  10  12
ENDBRANCH   1   8
BRANCH   1  20
ATOM     20  C   UNL     1       8.689  -2.397  25.569  0.00  0.00    +0.123 C 
BRANCH  20  21
ATOM     21  C   UNL     1       8.308  -3.682  26.274  0.00  0.00    +0.221 C 
ATOM     22  N   UNL     1       7.063  -3.625  26.861  0.00  0.00    -0.263 N 
ATOM     23  H   UNL     1       6.426  -2.878  26.594  0.00  0.00    +0.157 HD
ATOM     24  C   UNL     1       6.539  -4.683  27.548  0.00  0.00    +0.189 A 
ATOM     25  S   UNL     1       4.867  -4.563  27.879  0.00  0.00    -0.024 S 
ATOM     26  C   UNL     1       4.985  -6.128  28.565  0.00  0.00    +0.157 A 
ATOM     27  N   UNL     1       6.199  -6.630  28.584  0.00  0.00    -0.133 NA
ATOM     28  N   UNL     1       7.112  -5.779  27.984  0.00  0.00    -0.125 NA
ATOM     29  O   UNL     1       9.067  -4.645  26.265  0.00  0.00    -0.275 OA
BRANCH  26  30
ATOM     30  S   UNL     1       3.625  -7.024  29.182  0.00  0.00    -0.114 S 
ATOM     31  H   UNL     1       4.285  -8.180  29.349  0.00  0.00    +0.109 HD
ENDBRANCH  26  30
ENDBRANCH  20  21
ENDBRANCH   1  20
TORSDOF 8
ENDMDL
MODEL 4
REMARK VINA RESULT:      -6.6      2.494      3.790
REMARK  Name = 
REMARK  8 active torsions:
REMARK  status: ('A' for Active; 'I' for Inactive)
REMARK    1  A    between atoms: C_2  and  C_3
REMARK    2  A    between atoms: C_2  and  N_13
REMARK    3  A    between atoms: C_2  and  C_24
REMARK    4  A    between atoms: C_3  and  C_4
REMARK    5  A    between atoms: C_10  and  S_11
REMARK    6  A    between atoms: C_14  and  O_16
REMARK    7  A    between atoms: O_16  and  C_17
REMARK    8  A    between atoms: C_17  and  C_18
REMARK                            x       y       z     vdW  Elec       q    Type
REMARK                         _______ _______ _______ _____ _____    ______ ____
ROOT
ATOM      1  C   UNL     1      10.020   2.303  23.199  0.00  0.00    +0.115 C 
ENDROOT
BRANCH   1   2
ATOM      2  C   UNL     1      10.411   3.729  23.563  0.00  0.00    -0.027 A 
ATOM      3  C   UNL     1       9.491   4.585  24.187  0.00  0.00    +0.005 A 
ATOM      4  C   UNL     1       9.873   5.870  24.580  0.00  0.00    +0.000 A 
ATOM      5  C   UNL     1      11.176   6.314  24.354  0.00  0.00    +0.000 A 
ATOM      6  C   UNL     1      12.093   5.481  23.719  0.00  0.00    +0.000 A 
ATOM      7  C   UNL     1      11.713   4.201  23.322  0.00  0.00    +0.005 A 
ENDBRANCH   1   2
BRANCH   1   8
ATOM      8  N   UNL     1       8.574   2.165  23.372  0.00  0.00    -0.274 N 
ATOM      9  H   UNL     1       8.231   2.139  24.322  0.00  0.00    +0.153 HD
ATOM     10  C   UNL     1       7.678   1.737  22.445  0.00  0.00    +0.401 C 
ATOM     11  O   UNL     1       7.904   1.605  21.250  0.00  0.00    -0.226 OA
BRANCH  10  12
ATOM     12  O   UNL     1       6.477   1.551  23.037  0.00  0.00    -0.446 OA
BRANCH  12  13
ATOM     13  C   UNL     1       6.515   0.857  24.293  0.00  0.00    +0.269 C 
BRANCH  13  14
ATOM     14  C   UNL     1       6.114  -0.592  24.170  0.00  0.00    -0.010 A 
ATOM     15  C   UNL     1       6.441  -1.320  23.016  0.00  0.00    +0.007 A 
ATOM     16  C   UNL     1       5.990  -2.631  22.850  0.00  0.00    +0.000 A 
ATOM     17  C   UNL     1       5.212  -3.232  23.836  0.00  0.00    +0.000 A 
ATOM     18  C   UNL     1       4.889  -2.523  24.993  0.00  0.00    +0.000 A 
ATOM     19  C   UNL     1       5.338  -1.210  25.161  0.00  0.00    +0.007 A 
ENDBRANCH  13  14
ENDBRANCH  12  13
ENDBRANCH  10  12
ENDBRANCH   1   8
BRANCH   1  20
ATOM     20  C   UNL     1      10.917   1.283  23.916  0.00  0.00    +0.123 C 
BRANCH  20  21
ATOM     21  C   UNL     1      10.452  -0.137  23.668  0.00  0.00    +0.221 C 
ATOM     22  N   UNL     1      10.000  -0.762  24.809  0.00  0.00    -0.263 N 
ATOM     23  H   UNL     1       9.788  -0.198  25.629  0.00  0.00    +0.157 HD
ATOM     24  C   UNL     1       9.540  -2.048  24.795  0.00  0.00    +0.189 A 
ATOM     25  S   UNL     1       8.690  -2.520  26.200  0.00  0.00    -0.024 S 
ATOM     26  C   UNL     1       8.407  -4.016  25.415  0.00  0.00    +0.157 A 
ATOM     27  N   UNL     1       8.973  -4.133  24.235  0.00  0.00    -0.133 NA
ATOM     28  N   UNL     1       9.638  -2.974  23.871  0.00  0.00    -0.125 NA
ATOM     29  O   UNL     1      10.479  -0.612  22.538  0.00  0.00    -0.275 OA
BRANCH  26  30
ATOM     30  S   UNL     1       7.435  -5.297  26.084  0.00  0.00    -0.114 S 
ATOM     31  H   UNL     1       6.405  -4.517  26.442  0.00  0.00    +0.109 HD
ENDBRANCH  26  30
ENDBRANCH  20  21
ENDBRANCH   1  20
TORSDOF 8
ENDMDL
MODEL 5
REMARK VINA RESULT:      -6.6      1.575      2.297
REMARK  Name = 
REMARK  8 active torsions:
REMARK  status: ('A' for Active; 'I' for Inactive)
REMARK    1  A    between atoms: C_2  and  C_3
REMARK    2  A    between atoms: C_2  and  N_13
REMARK    3  A    between atoms: C_2  and  C_24
REMARK    4  A    between atoms: C_3  and  C_4
REMARK    5  A    between atoms: C_10  and  S_11
REMARK    6  A    between atoms: C_14  and  O_16
REMARK    7  A    between atoms: O_16  and  C_17
REMARK    8  A    between atoms: C_17  and  C_18
REMARK                            x       y       z     vdW  Elec       q    Type
REMARK                         _______ _______ _______ _____ _____    ______ ____
ROOT
ATOM      1  C   UNL     1       9.901   0.738  23.374  0.00  0.00    +0.115 C 
ENDROOT
BRANCH   1   2
ATOM      2  C   UNL     1       9.274   2.114  23.196  0.00  0.00    -0.027 A 
ATOM      3  C   UNL     1       8.160   2.289  22.361  0.00  0.00    +0.005 A 
ATOM      4  C   UNL     1       7.547   3.539  22.252  0.00  0.00    +0.000 A 
ATOM      5  C   UNL     1       8.038   4.627  22.974  0.00  0.00    +0.000 A 
ATOM      6  C   UNL     1       9.153   4.471  23.792  0.00  0.00    +0.000 A 
ATOM      7  C   UNL     1       9.771   3.226  23.899  0.00  0.00    +0.005 A 
ENDBRANCH   1   2
BRANCH   1   8
ATOM      8  N   UNL     1       9.102  -0.231  22.624  0.00  0.00    -0.274 N 
ATOM      9  H   UNL     1       8.102  -0.086  22.615  0.00  0.00    +0.153 HD
ATOM     10  C   UNL     1       9.487  -1.471  22.222  0.00  0.00    +0.401 C 
ATOM     11  O   UNL     1      10.635  -1.894  22.234  0.00  0.00    -0.226 OA
BRANCH  10  12
ATOM     12  O   UNL     1       8.414  -2.138  21.740  0.00  0.00    -0.446 OA
BRANCH  12  13
ATOM     13  C   UNL     1       7.255  -2.126  22.588  0.00  0.00    +0.269 C 
BRANCH  13  14
ATOM     14  C   UNL     1       6.595  -3.478  22.690  0.00  0.00    -0.010 A 
ATOM     15  C   UNL     1       5.413  -3.633  23.430  0.00  0.00    +0.007 A 
ATOM     16  C   UNL     1       4.847  -4.897  23.613  0.00  0.00    +0.000 A 
ATOM     17  C   UNL     1       5.452  -6.020  23.053  0.00  0.00    +0.000 A 
ATOM     18  C   UNL     1       6.621  -5.878  22.306  0.00  0.00    +0.000 A 
ATOM     19  C   UNL     1       7.190  -4.615  22.124  0.00  0.00    +0.007 A 
ENDBRANCH  13  14
ENDBRANCH  12  13
ENDBRANCH  10  12
ENDBRANCH   1   8
BRANCH   1  20
ATOM     20  C   UNL     1      10.165   0.437  24.856  0.00  0.00    +0.123 C 
BRANCH  20  21
ATOM     21  C   UNL     1       8.963  -0.207  25.516  0.00  0.00    +0.221 C 
ATOM     22  N   UNL     1       9.035  -1.582  25.540  0.00  0.00    -0.263 N 
ATOM     23  H   UNL     1       9.928  -2.032  25.357  0.00  0.00    +0.157 HD
ATOM     24  C   UNL     1       8.046  -2.348  26.090  0.00  0.00    +0.189 A 
ATOM     25  S   UNL     1       8.472  -3.980  26.360  0.00  0.00    -0.024 S 
ATOM     26  C   UNL     1       6.926  -4.169  27.072  0.00  0.00    +0.157 A 
ATOM     27  N   UNL     1       6.166  -3.098  27.030  0.00  0.00    -0.133 NA
ATOM     28  N   UNL     1       6.827  -2.027  26.453  0.00  0.00    -0.125 NA
ATOM     29  O   UNL     1       8.064   0.486  25.981  0.00  0.00    -0.275 OA
BRANCH  26  30
ATOM     30  S   UNL     1       6.373  -5.642  27.821  0.00  0.00    -0.114 S 
ATOM     31  H   UNL     1       5.473  -5.949  26.876  0.00  0.00    +0.109 HD
ENDBRANCH  26  30
ENDBRANCH  20  21
ENDBRANCH   1  20
TORSDOF 8
ENDMDL
MODEL 6
REMARK VINA RESULT:      -6.6      3.232      6.543
REMARK  Name = 
REMARK  8 active torsions:
REMARK  status: ('A' for Active; 'I' for Inactive)
REMARK    1  A    between atoms: C_2  and  C_3
REMARK    2  A    between atoms: C_2  and  N_13
REMARK    3  A    between atoms: C_2  and  C_24
REMARK    4  A    between atoms: C_3  and  C_4
REMARK    5  A    between atoms: C_10  and  S_11
REMARK    6  A    between atoms: C_14  and  O_16
REMARK    7  A    between atoms: O_16  and  C_17
REMARK    8  A    between atoms: C_17  and  C_18
REMARK                            x       y       z     vdW  Elec       q    Type
REMARK                         _______ _______ _______ _____ _____    ______ ____
ROOT
ATOM      1  C   UNL     1       6.731  -2.915  23.344  0.00  0.00    +0.115 C 
ENDROOT
BRANCH   1   2
ATOM      2  C   UNL     1       7.289  -3.635  24.564  0.00  0.00    -0.027 A 
ATOM      3  C   UNL     1       6.791  -3.357  25.847  0.00  0.00    +0.005 A 
ATOM      4  C   UNL     1       7.257  -4.067  26.955  0.00  0.00    +0.000 A 
ATOM      5  C   UNL     1       8.225  -5.059  26.797  0.00  0.00    +0.000 A 
ATOM      6  C   UNL     1       8.740  -5.332  25.533  0.00  0.00    +0.000 A 
ATOM      7  C   UNL     1       8.280  -4.622  24.425  0.00  0.00    +0.005 A 
ENDBRANCH   1   2
BRANCH   1   8
ATOM      8  N   UNL     1       5.381  -3.418  23.091  0.00  0.00    -0.274 N 
ATOM      9  H   UNL     1       4.621  -2.930  23.544  0.00  0.00    +0.153 HD
ATOM     10  C   UNL     1       5.043  -4.641  22.603  0.00  0.00    +0.401 C 
ATOM     11  O   UNL     1       5.819  -5.438  22.093  0.00  0.00    -0.226 OA
BRANCH  10  12
ATOM     12  O   UNL     1       3.705  -4.808  22.703  0.00  0.00    -0.446 OA
BRANCH  12  13
ATOM     13  C   UNL     1       3.287  -5.953  23.461  0.00  0.00    +0.269 C 
BRANCH  13  14
ATOM     14  C   UNL     1       3.680  -5.865  24.914  0.00  0.00    -0.010 A 
ATOM     15  C   UNL     1       4.542  -6.821  25.472  0.00  0.00    +0.007 A 
ATOM     16  C   UNL     1       4.835  -6.805  26.838  0.00  0.00    +0.000 A 
ATOM     17  C   UNL     1       4.274  -5.831  27.660  0.00  0.00    +0.000 A 
ATOM     18  C   UNL     1       3.425  -4.867  27.116  0.00  0.00    +0.000 A 
ATOM     19  C   UNL     1       3.130  -4.882  25.750  0.00  0.00    +0.007 A 
ENDBRANCH  13  14
ENDBRANCH  12  13
ENDBRANCH  10  12
ENDBRANCH   1   8
BRANCH   1  20
ATOM     20  C   UNL     1       7.727  -2.951  22.176  0.00  0.00    +0.123 C 
BRANCH  20  21
ATOM     21  C   UNL     1       8.658  -1.757  22.202  0.00  0.00    +0.221 C 
ATOM     22  N   UNL     1       8.029  -0.592  22.581  0.00  0.00    -0.263 N 
ATOM     23  H   UNL     1       7.116  -0.647  23.025  0.00  0.00    +0.157 HD
ATOM     24  C   UNL     1       8.697   0.597  22.664  0.00  0.00    +0.189 A 
ATOM     25  S   UNL     1       7.859   1.833  23.493  0.00  0.00    -0.024 S 
ATOM     26  C   UNL     1       9.253   2.802  23.268  0.00  0.00    +0.157 A 
ATOM     27  N   UNL     1      10.210   2.234  22.571  0.00  0.00    -0.133 NA
ATOM     28  N   UNL     1       9.883   0.936  22.217  0.00  0.00    -0.125 NA
ATOM     29  O   UNL     1       9.846  -1.888  21.926  0.00  0.00    -0.275 OA
BRANCH  26  30
ATOM     30  S   UNL     1       9.434   4.410  23.913  0.00  0.00    -0.114 S 
ATOM     31  H   UNL     1       8.177   4.520  24.367  0.00  0.00    +0.109 HD
ENDBRANCH  26  30
ENDBRANCH  20  21
ENDBRANCH   1  20
TORSDOF 8
ENDMDL
MODEL 7
REMARK VINA RESULT:      -6.5      3.123      7.055
REMARK  Name = 
REMARK  8 active torsions:
REMARK  status: ('A' for Active; 'I' for Inactive)
REMARK    1  A    between atoms: C_2  and  C_3
REMARK    2  A    between atoms: C_2  and  N_13
REMARK    3  A    between atoms: C_2  and  C_24
REMARK    4  A    between atoms: C_3  and  C_4
REMARK    5  A    between atoms: C_10  and  S_11
REMARK    6  A    between atoms: C_14  and  O_16
REMARK    7  A    between atoms: O_16  and  C_17
REMARK    8  A    between atoms: C_17  and  C_18
REMARK                            x       y       z     vdW  Elec       q    Type
REMARK                         _______ _______ _______ _____ _____    ______ ____
ROOT
ATOM      1  C   UNL     1       6.197  -3.628  24.513  0.00  0.00    +0.115 C 
ENDROOT
BRANCH   1   2
ATOM      2  C   UNL     1       5.899  -4.597  25.649  0.00  0.00    -0.027 A 
ATOM      3  C   UNL     1       5.096  -5.727  25.432  0.00  0.00    +0.005 A 
ATOM      4  C   UNL     1       4.879  -6.649  26.458  0.00  0.00    +0.000 A 
ATOM      5  C   UNL     1       5.460  -6.453  27.711  0.00  0.00    +0.000 A 
ATOM      6  C   UNL     1       6.244  -5.327  27.945  0.00  0.00    +0.000 A 
ATOM      7  C   UNL     1       6.458  -4.403  26.924  0.00  0.00    +0.005 A 
ENDBRANCH   1   2
BRANCH   1   8
ATOM      8  N   UNL     1       7.612  -3.263  24.580  0.00  0.00    -0.274 N 
ATOM      9  H   UNL     1       7.823  -2.296  24.783  0.00  0.00    +0.153 HD
ATOM     10  C   UNL     1       8.662  -3.968  24.084  0.00  0.00    +0.401 C 
ATOM     11  O   UNL     1       8.615  -5.126  23.692  0.00  0.00    -0.226 OA
BRANCH  10  12
ATOM     12  O   UNL     1       9.782  -3.214  24.159  0.00  0.00    -0.446 OA
BRANCH  12  13
ATOM     13  C   UNL     1       9.617  -1.934  24.787  0.00  0.00    +0.269 C 
BRANCH  13  14
ATOM     14  C   UNL     1       9.839  -0.785  23.835  0.00  0.00    -0.010 A 
ATOM     15  C   UNL     1      10.393   0.418  24.297  0.00  0.00    +0.007 A 
ATOM     16  C   UNL     1      10.512   1.520  23.447  0.00  0.00    +0.000 A 
ATOM     17  C   UNL     1      10.085   1.430  22.124  0.00  0.00    +0.000 A 
ATOM     18  C   UNL     1       9.543   0.236  21.650  0.00  0.00    +0.000 A 
ATOM     19  C   UNL     1       9.421  -0.867  22.499  0.00  0.00    +0.007 A 
ENDBRANCH  13  14
ENDBRANCH  12  13
ENDBRANCH  10  12
ENDBRANCH   1   8
BRANCH   1  20
ATOM     20  C   UNL     1       5.175  -2.483  24.479  0.00  0.00    +0.123 C 
BRANCH  20  21
ATOM     21  C   UNL     1       5.788  -1.175  24.935  0.00  0.00    +0.221 C 
ATOM     22  N   UNL     1       5.989  -0.287  23.903  0.00  0.00    -0.263 N 
ATOM     23  H   UNL     1       5.523  -0.450  23.014  0.00  0.00    +0.157 HD
ATOM     24  C   UNL     1       6.536   0.948  24.108  0.00  0.00    +0.189 A 
ATOM     25  S   UNL     1       6.367   2.032  22.798  0.00  0.00    -0.024 S 
ATOM     26  C   UNL     1       7.117   3.207  23.794  0.00  0.00    +0.157 A 
ATOM     27  N   UNL     1       7.503   2.766  24.970  0.00  0.00    -0.133 NA
ATOM     28  N   UNL     1       7.159   1.437  25.153  0.00  0.00    -0.125 NA
ATOM     29  O   UNL     1       6.034  -0.984  26.121  0.00  0.00    -0.275 OA
BRANCH  26  30
ATOM     30  S   UNL     1       7.349   4.870  23.330  0.00  0.00    -0.114 S 
ATOM     31  H   UNL     1       8.659   4.911  23.613  0.00  0.00    +0.109 HD
ENDBRANCH  26  30
ENDBRANCH  20  21
ENDBRANCH   1  20
TORSDOF 8
ENDMDL
MODEL 8
REMARK VINA RESULT:      -6.5      1.903      4.438
REMARK  Name = 
REMARK  8 active torsions:
REMARK  status: ('A' for Active; 'I' for Inactive)
REMARK    1  A    between atoms: C_2  and  C_3
REMARK    2  A    between atoms: C_2  and  N_13
REMARK    3  A    between atoms: C_2  and  C_24
REMARK    4  A    between atoms: C_3  and  C_4
REMARK    5  A    between atoms: C_10  and  S_11
REMARK    6  A    between atoms: C_14  and  O_16
REMARK    7  A    between atoms: O_16  and  C_17
REMARK    8  A    between atoms: C_17  and  C_18
REMARK                            x       y       z     vdW  Elec       q    Type
REMARK                         _______ _______ _______ _____ _____    ______ ____
ROOT
ATOM      1  C   UNL     1       8.445  -3.297  24.902  0.00  0.00    +0.115 C 
ENDROOT
BRANCH   1   2
ATOM      2  C   UNL     1       7.809  -2.099  25.594  0.00  0.00    -0.027 A 
ATOM      3  C   UNL     1       8.514  -1.381  26.572  0.00  0.00    +0.005 A 
ATOM      4  C   UNL     1       7.954  -0.243  27.156  0.00  0.00    +0.000 A 
ATOM      5  C   UNL     1       6.684   0.189  26.773  0.00  0.00    +0.000 A 
ATOM      6  C   UNL     1       5.967  -0.524  25.817  0.00  0.00    +0.000 A 
ATOM      7  C   UNL     1       6.522  -1.663  25.236  0.00  0.00    +0.005 A 
ENDBRANCH   1   2
BRANCH   1   8
ATOM      8  N   UNL     1       9.234  -2.808  23.771  0.00  0.00    -0.274 N 
ATOM      9  H   UNL     1      10.170  -2.486  23.974  0.00  0.00    +0.153 HD
ATOM     10  C   UNL     1       8.766  -2.423  22.554  0.00  0.00    +0.401 C 
ATOM     11  O   UNL     1       7.635  -2.627  22.134  0.00  0.00    -0.226 OA
BRANCH  10  12
ATOM     12  O   UNL     1       9.767  -1.844  21.853  0.00  0.00    -0.446 OA
BRANCH  12  13
ATOM     13  C   UNL     1       9.488  -0.524  21.364  0.00  0.00    +0.269 C 
BRANCH  13  14
ATOM     14  C   UNL     1       9.312   0.483  22.473  0.00  0.00    -0.010 A 
ATOM     15  C   UNL     1      10.347   0.709  23.393  0.00  0.00    +0.007 A 
ATOM     16  C   UNL     1      10.160   1.566  24.480  0.00  0.00    +0.000 A 
ATOM     17  C   UNL     1       8.938   2.210  24.658  0.00  0.00    +0.000 A 
ATOM     18  C   UNL     1       7.904   2.003  23.744  0.00  0.00    +0.000 A 
ATOM     19  C   UNL     1       8.089   1.145  22.657  0.00  0.00    +0.007 A 
ENDBRANCH  13  14
ENDBRANCH  12  13
ENDBRANCH  10  12
ENDBRANCH   1   8
BRANCH   1  20
ATOM     20  C   UNL     1       7.404  -4.388  24.616  0.00  0.00    +0.123 C 
BRANCH  20  21
ATOM     21  C   UNL     1       7.129  -5.230  25.844  0.00  0.00    +0.221 C 
ATOM     22  N   UNL     1       5.829  -5.126  26.287  0.00  0.00    -0.263 N 
ATOM     23  H   UNL     1       5.128  -4.724  25.670  0.00  0.00    +0.157 HD
ATOM     24  C   UNL     1       5.382  -5.806  27.385  0.00  0.00    +0.189 A 
ATOM     25  S   UNL     1       3.684  -5.847  27.560  0.00  0.00    -0.024 S 
ATOM     26  C   UNL     1       3.940  -6.848  28.925  0.00  0.00    +0.157 A 
ATOM     27  N   UNL     1       5.202  -7.054  29.226  0.00  0.00    -0.133 NA
ATOM     28  N   UNL     1       6.050  -6.441  28.318  0.00  0.00    -0.125 NA
ATOM     29  O   UNL     1       8.012  -5.928  26.331  0.00  0.00    -0.275 OA
BRANCH  26  30
ATOM     30  S   UNL     1       2.658  -7.573  29.854  0.00  0.00    -0.114 S 
ATOM     31  H   UNL     1       2.235  -6.433  30.421  0.00  0.00    +0.109 HD
ENDBRANCH  26  30
ENDBRANCH  20  21
ENDBRANCH   1  20
TORSDOF 8
ENDMDL
MODEL 9
REMARK VINA RESULT:      -6.5      2.276      3.899
REMARK  Name = 
REMARK  8 active torsions:
REMARK  status: ('A' for Active; 'I' for Inactive)
REMARK    1  A    between atoms: C_2  and  C_3
REMARK    2  A    between atoms: C_2  and  N_13
REMARK    3  A    between atoms: C_2  and  C_24
REMARK    4  A    between atoms: C_3  and  C_4
REMARK    5  A    between atoms: C_10  and  S_11
REMARK    6  A    between atoms: C_14  and  O_16
REMARK    7  A    between atoms: O_16  and  C_17
REMARK    8  A    between atoms: C_17  and  C_18
REMARK                            x       y       z     vdW  Elec       q    Type
REMARK                         _______ _______ _______ _____ _____    ______ ____
ROOT
ATOM      1  C   UNL     1       9.023   1.397  23.317  0.00  0.00    +0.115 C 
ENDROOT
BRANCH   1   2
ATOM      2  C   UNL     1       9.694   2.750  23.508  0.00  0.00    -0.027 A 
ATOM      3  C   UNL     1      11.060   2.916  23.231  0.00  0.00    +0.005 A 
ATOM      4  C   UNL     1      11.657   4.173  23.344  0.00  0.00    +0.000 A 
ATOM      5  C   UNL     1      10.900   5.277  23.735  0.00  0.00    +0.000 A 
ATOM      6  C   UNL     1       9.548   5.123  24.030  0.00  0.00    +0.000 A 
ATOM      7  C   UNL     1       8.950   3.869  23.923  0.00  0.00    +0.005 A 
ENDBRANCH   1   2
BRANCH   1   8
ATOM      8  N   UNL     1       8.885   0.763  24.627  0.00  0.00    -0.274 N 
ATOM      9  H   UNL     1       9.603   0.104  24.892  0.00  0.00    +0.153 HD
ATOM     10  C   UNL     1       7.759   0.692  25.386  0.00  0.00    +0.401 C 
ATOM     11  O   UNL     1       6.735   1.332  25.194  0.00  0.00    -0.226 OA
BRANCH  10  12
ATOM     12  O   UNL     1       7.974  -0.144  26.427  0.00  0.00    -0.446 OA
BRANCH  12  13
ATOM     13  C   UNL     1       8.766  -1.304  26.127  0.00  0.00    +0.269 C 
BRANCH  13  14
ATOM     14  C   UNL     1       8.012  -2.593  26.337  0.00  0.00    -0.010 A 
ATOM     15  C   UNL     1       8.707  -3.783  26.604  0.00  0.00    +0.007 A 
ATOM     16  C   UNL     1       8.027  -4.998  26.703  0.00  0.00    +0.000 A 
ATOM     17  C   UNL     1       6.644  -5.039  26.541  0.00  0.00    +0.000 A 
ATOM     18  C   UNL     1       5.940  -3.863  26.287  0.00  0.00    +0.000 A 
ATOM     19  C   UNL     1       6.619  -2.645  26.186  0.00  0.00    +0.007 A 
ENDBRANCH  13  14
ENDBRANCH  12  13
ENDBRANCH  10  12
ENDBRANCH   1   8
BRANCH   1  20
ATOM     20  C   UNL     1       9.715   0.587  22.211  0.00  0.00    +0.123 C 
BRANCH  20  21
ATOM     21  C   UNL     1       9.574  -0.903  22.442  0.00  0.00    +0.221 C 
ATOM     22  N   UNL     1       8.262  -1.322  22.466  0.00  0.00    -0.263 N 
ATOM     23  H   UNL     1       7.540  -0.702  22.108  0.00  0.00    +0.157 HD
ATOM     24  C   UNL     1       7.924  -2.630  22.665  0.00  0.00    +0.189 A 
ATOM     25  S   UNL     1       6.300  -3.014  22.298  0.00  0.00    -0.024 S 
ATOM     26  C   UNL     1       6.698  -4.639  22.663  0.00  0.00    +0.157 A 
ATOM     27  N   UNL     1       7.930  -4.822  23.083  0.00  0.00    -0.133 NA
ATOM     28  N   UNL     1       8.650  -3.640  23.082  0.00  0.00    -0.125 NA
ATOM     29  O   UNL     1      10.568  -1.611  22.563  0.00  0.00    -0.275 OA
BRANCH  26  30
ATOM     30  S   UNL     1       5.594  -5.975  22.487  0.00  0.00    -0.114 S 
ATOM     31  H   UNL     1       5.971  -6.303  21.243  0.00  0.00    +0.109 HD
ENDBRANCH  26  30
ENDBRANCH  20  21
ENDBRANCH   1  20
TORSDOF 8
ENDMDL
