MODEL 1
REMARK VINA RESULT:      -6.4      0.000      0.000
REMARK  Name = 
REMARK  16 active torsions:
REMARK  status: ('A' for Active; 'I' for Inactive)
REMARK    1  A    between atoms: C_1  and  C_2
REMARK    2  A    between atoms: C_2  and  C_4
REMARK    3  A    between atoms: C_2  and  N_21
REMARK    4  A    between atoms: C_4  and  C_5
REMARK    5  A    between atoms: N_9  and  C_10
REMARK    6  A    between atoms: C_10  and  C_11
REMARK    7  A    between atoms: C_11  and  C_12
REMARK    8  A    between atoms: C_12  and  O_13
REMARK    9  A    between atoms: C_16  and  C_18
REMARK   10  A    between atoms: N_21  and  C_22
REMARK   11  A    between atoms: C_22  and  C_23
REMARK   12  A    between atoms: C_23  and  O_24
REMARK   13  A    between atoms: O_24  and  C_25
REMARK   14  A    between atoms: C_30  and  O_31
REMARK   15  A    between atoms: O_31  and  C_32
REMARK   16  A    between atoms: C_32  and  C_33
REMARK                            x       y       z     vdW  Elec       q    Type
REMARK                         _______ _______ _______ _____ _____    ______ ____
ROOT
ATOM      1  C   UNL     1      10.466  -0.896  22.763  0.00  0.00    +0.053 C 
ENDROOT
BRANCH   1   2
ATOM      2  C   UNL     1       9.523  -2.041  23.039  0.00  0.00    -0.045 A 
ATOM      3  C   UNL     1       9.705  -2.854  24.164  0.00  0.00    +0.018 A 
ATOM      4  C   UNL     1       8.762  -3.846  24.554  0.00  0.00    +0.058 A 
ATOM      5  C   UNL     1       7.620  -4.054  23.771  0.00  0.00    +0.045 A 
ATOM      6  N   UNL     1       6.525  -4.895  23.860  0.00  0.00    -0.329 N 
ATOM      7  C   UNL     1       5.578  -4.573  22.781  0.00  0.00    +0.110 C 
ATOM      8  C   UNL     1       6.220  -3.513  21.896  0.00  0.00    +0.056 C 
ATOM      9  C   UNL     1       7.491  -3.240  22.627  0.00  0.00    -0.024 A 
ATOM     10  C   UNL     1       8.406  -2.266  22.249  0.00  0.00    +0.009 A 
BRANCH   4  11
ATOM     11  C   UNL     1       9.124  -4.578  25.798  0.00  0.00    +0.243 C 
ATOM     12  O   UNL     1       8.627  -4.347  26.890  0.00  0.00    -0.270 OA
ATOM     13  N   UNL     1      10.009  -5.623  25.649  0.00  0.00    -0.325 N 
ATOM     14  H   UNL     1      10.215  -6.183  26.465  0.00  0.00    +0.145 HD
ATOM     15  H   UNL     1      10.443  -5.877  24.771  0.00  0.00    +0.145 HD
ENDBRANCH   4  11
BRANCH   6  16
ATOM     16  C   UNL     1       6.139  -5.873  24.862  0.00  0.00    +0.107 C 
BRANCH  16  17
ATOM     17  C   UNL     1       4.720  -5.615  25.379  0.00  0.00    +0.047 C 
BRANCH  17  18
ATOM     18  C   UNL     1       3.801  -6.820  25.226  0.00  0.00    +0.157 C 
BRANCH  18  19
ATOM     19  O   UNL     1       4.268  -7.636  24.152  0.00  0.00    -0.395 OA
ATOM     20  H   UNL     1       3.948  -8.537  24.322  0.00  0.00    +0.209 HD
ENDBRANCH  18  19
ENDBRANCH  17  18
ENDBRANCH  16  17
ENDBRANCH   6  16
ENDBRANCH   1   2
BRANCH   1  22
ATOM     21  C   UNL     1      10.995   1.171  24.165  0.00  0.00    +0.024 C 
ATOM     22  C   UNL     1      10.022   0.526  23.172  0.00  0.00    +0.055 C 
BRANCH  22  23
ATOM     23  N   UNL     1       9.786   1.460  22.059  0.00  0.00    -0.310 NA
ATOM     24  H   UNL     1       9.908   0.961  21.175  0.00  0.00    +0.122 HD
BRANCH  23  25
ATOM     25  C   UNL     1       8.473   2.118  22.063  0.00  0.00    +0.122 C 
BRANCH  25  26
ATOM     26  C   UNL     1       7.287   1.179  22.291  0.00  0.00    +0.244 C 
BRANCH  26  27
ATOM     27  O   UNL     1       6.583   1.565  23.476  0.00  0.00    -0.487 OA
BRANCH  27  28
ATOM     28  C   UNL     1       6.605   0.655  24.505  0.00  0.00    +0.162 A 
ATOM     29  C   UNL     1       7.408   0.931  25.625  0.00  0.00    +0.162 A 
ATOM     30  C   UNL     1       7.514  -0.025  26.647  0.00  0.00    +0.049 A 
ATOM     31  C   UNL     1       6.813  -1.229  26.584  0.00  0.00    +0.004 A 
ATOM     32  C   UNL     1       6.002  -1.494  25.493  0.00  0.00    +0.004 A 
ATOM     33  C   UNL     1       5.899  -0.559  24.462  0.00  0.00    +0.049 A 
BRANCH  29  34
ATOM     34  O   UNL     1       8.196   2.033  25.841  0.00  0.00    -0.479 OA
BRANCH  34  35
ATOM     35  C   UNL     1       7.544   3.284  26.084  0.00  0.00    +0.342 C 
BRANCH  35  36
ATOM     36  C   UNL     1       8.114   4.389  25.193  0.00  0.00    +0.424 C 
ATOM     37  F   UNL     1       7.317   4.613  24.121  0.00  0.00    -0.167 F 
ATOM     38  F   UNL     1       9.332   4.035  24.711  0.00  0.00    -0.167 F 
ATOM     39  F   UNL     1       8.267   5.568  25.835  0.00  0.00    -0.167 F 
ENDBRANCH  35  36
ENDBRANCH  34  35
ENDBRANCH  29  34
ENDBRANCH  27  28
ENDBRANCH  26  27
ENDBRANCH  25  26
ENDBRANCH  23  25
ENDBRANCH  22  23
ENDBRANCH   1  22
TORSDOF 15
ENDMDL
MODEL 2
REMARK VINA RESULT:      -6.4      2.191      3.461
REMARK  Name = 
REMARK  16 active torsions:
REMARK  status: ('A' for Active; 'I' for Inactive)
REMARK    1  A    between atoms: C_1  and  C_2
REMARK    2  A    between atoms: C_2  and  C_4
REMARK    3  A    between atoms: C_2  and  N_21
REMARK    4  A    between atoms: C_4  and  C_5
REMARK    5  A    between atoms: N_9  and  C_10
REMARK    6  A    between atoms: C_10  and  C_11
REMARK    7  A    between atoms: C_11  and  C_12
REMARK    8  A    between atoms: C_12  and  O_13
REMARK    9  A    between atoms: C_16  and  C_18
REMARK   10  A    between atoms: N_21  and  C_22
REMARK   11  A    between atoms: C_22  and  C_23
REMARK   12  A    between atoms: C_23  and  O_24
REMARK   13  A    between atoms: O_24  and  C_25
REMARK   14  A    between atoms: C_30  and  O_31
REMARK   15  A    between atoms: O_31  and  C_32
REMARK   16  A    between atoms: C_32  and  C_33
REMARK                            x       y       z     vdW  Elec       q    Type
REMARK                         _______ _______ _______ _____ _____    ______ ____
ROOT
ATOM      1  C   UNL     1      10.256  -0.895  22.881  0.00  0.00    +0.053 C 
ENDROOT
BRANCH   1   2
ATOM      2  C   UNL     1       9.284  -2.018  23.146  0.00  0.00    -0.045 A 
ATOM      3  C   UNL     1       9.484  -2.891  24.222  0.00  0.00    +0.018 A 
ATOM      4  C   UNL     1       8.524  -3.868  24.606  0.00  0.00    +0.058 A 
ATOM      5  C   UNL     1       7.342  -3.998  23.866  0.00  0.00    +0.045 A 
ATOM      6  N   UNL     1       6.221  -4.804  23.964  0.00  0.00    -0.329 N 
ATOM      7  C   UNL     1       5.241  -4.398  22.945  0.00  0.00    +0.110 C 
ATOM      8  C   UNL     1       5.883  -3.318  22.083  0.00  0.00    +0.056 C 
ATOM      9  C   UNL     1       7.193  -3.125  22.769  0.00  0.00    -0.024 A 
ATOM     10  C   UNL     1       8.126  -2.166  22.396  0.00  0.00    +0.009 A 
BRANCH   4  11
ATOM     11  C   UNL     1       8.912  -4.671  25.797  0.00  0.00    +0.243 C 
ATOM     12  O   UNL     1       8.442  -4.502  26.912  0.00  0.00    -0.270 OA
ATOM     13  N   UNL     1       9.788  -5.709  25.566  0.00  0.00    -0.325 N 
ATOM     14  H   UNL     1      10.011  -6.316  26.344  0.00  0.00    +0.145 HD
ATOM     15  H   UNL     1      10.199  -5.913  24.666  0.00  0.00    +0.145 HD
ENDBRANCH   4  11
BRANCH   6  16
ATOM     16  C   UNL     1       5.844  -5.816  24.935  0.00  0.00    +0.107 C 
BRANCH  16  17
ATOM     17  C   UNL     1       4.382  -5.659  25.367  0.00  0.00    +0.047 C 
BRANCH  17  18
ATOM     18  C   UNL     1       3.511  -6.843  24.966  0.00  0.00    +0.157 C 
BRANCH  18  19
ATOM     19  O   UNL     1       4.251  -7.699  24.096  0.00  0.00    -0.395 OA
ATOM     20  H   UNL     1       4.763  -8.301  24.660  0.00  0.00    +0.209 HD
ENDBRANCH  18  19
ENDBRANCH  17  18
ENDBRANCH  16  17
ENDBRANCH   6  16
ENDBRANCH   1   2
BRANCH   1  22
ATOM     21  C   UNL     1      11.202   0.782  24.559  0.00  0.00    +0.024 C 
ATOM     22  C   UNL     1      10.037   0.444  23.622  0.00  0.00    +0.055 C 
BRANCH  22  23
ATOM     23  N   UNL     1       9.763   1.605  22.761  0.00  0.00    -0.310 NA
ATOM     24  H   UNL     1      10.646   1.951  22.378  0.00  0.00    +0.122 HD
BRANCH  23  25
ATOM     25  C   UNL     1       8.824   1.358  21.659  0.00  0.00    +0.122 C 
BRANCH  25  26
ATOM     26  C   UNL     1       7.585   2.256  21.660  0.00  0.00    +0.244 C 
BRANCH  26  27
ATOM     27  O   UNL     1       7.474   2.929  22.919  0.00  0.00    -0.487 OA
BRANCH  27  28
ATOM     28  C   UNL     1       7.391   4.299  22.857  0.00  0.00    +0.162 A 
ATOM     29  C   UNL     1       8.493   5.056  23.290  0.00  0.00    +0.162 A 
ATOM     30  C   UNL     1       8.395   6.456  23.319  0.00  0.00    +0.049 A 
ATOM     31  C   UNL     1       7.237   7.108  22.897  0.00  0.00    +0.004 A 
ATOM     32  C   UNL     1       6.157   6.365  22.448  0.00  0.00    +0.004 A 
ATOM     33  C   UNL     1       6.235   4.971  22.428  0.00  0.00    +0.049 A 
BRANCH  29  34
ATOM     34  O   UNL     1       9.690   4.595  23.776  0.00  0.00    -0.479 OA
BRANCH  34  35
ATOM     35  C   UNL     1      10.718   5.555  24.042  0.00  0.00    +0.342 C 
BRANCH  35  36
ATOM     36  C   UNL     1      12.048   5.130  23.417  0.00  0.00    +0.424 C 
ATOM     37  F   UNL     1      13.096   5.669  24.086  0.00  0.00    -0.167 F 
ATOM     38  F   UNL     1      12.136   5.562  22.134  0.00  0.00    -0.167 F 
ATOM     39  F   UNL     1      12.228   3.791  23.400  0.00  0.00    -0.167 F 
ENDBRANCH  35  36
ENDBRANCH  34  35
ENDBRANCH  29  34
ENDBRANCH  27  28
ENDBRANCH  26  27
ENDBRANCH  25  26
ENDBRANCH  23  25
ENDBRANCH  22  23
ENDBRANCH   1  22
TORSDOF 15
ENDMDL
MODEL 3
REMARK VINA RESULT:      -6.3      2.041      3.209
REMARK  Name = 
REMARK  16 active torsions:
REMARK  status: ('A' for Active; 'I' for Inactive)
REMARK    1  A    between atoms: C_1  and  C_2
REMARK    2  A    between atoms: C_2  and  C_4
REMARK    3  A    between atoms: C_2  and  N_21
REMARK    4  A    between atoms: C_4  and  C_5
REMARK    5  A    between atoms: N_9  and  C_10
REMARK    6  A    between atoms: C_10  and  C_11
REMARK    7  A    between atoms: C_11  and  C_12
REMARK    8  A    between atoms: C_12  and  O_13
REMARK    9  A    between atoms: C_16  and  C_18
REMARK   10  A    between atoms: N_21  and  C_22
REMARK   11  A    between atoms: C_22  and  C_23
REMARK   12  A    between atoms: C_23  and  O_24
REMARK   13  A    between atoms: O_24  and  C_25
REMARK   14  A    between atoms: C_30  and  O_31
REMARK   15  A    between atoms: O_31  and  C_32
REMARK   16  A    between atoms: C_32  and  C_33
REMARK                            x       y       z     vdW  Elec       q    Type
REMARK                         _______ _______ _______ _____ _____    ______ ____
ROOT
ATOM      1  C   UNL     1      10.171  -0.666  22.433  0.00  0.00    +0.053 C 
ENDROOT
BRANCH   1   2
ATOM      2  C   UNL     1       9.330  -1.853  22.831  0.00  0.00    -0.045 A 
ATOM      3  C   UNL     1       9.634  -2.583  23.986  0.00  0.00    +0.018 A 
ATOM      4  C   UNL     1       8.789  -3.612  24.488  0.00  0.00    +0.058 A 
ATOM      5  C   UNL     1       7.622  -3.944  23.790  0.00  0.00    +0.045 A 
ATOM      6  N   UNL     1       6.596  -4.851  23.993  0.00  0.00    -0.329 N 
ATOM      7  C   UNL     1       5.568  -4.660  22.958  0.00  0.00    +0.110 C 
ATOM      8  C   UNL     1       6.080  -3.613  21.977  0.00  0.00    +0.056 C 
ATOM      9  C   UNL     1       7.368  -3.211  22.612  0.00  0.00    -0.024 A 
ATOM     10  C   UNL     1       8.188  -2.202  22.124  0.00  0.00    +0.009 A 
BRANCH   4  11
ATOM     11  C   UNL     1       9.274  -4.241  25.747  0.00  0.00    +0.243 C 
ATOM     12  O   UNL     1       9.074  -3.776  26.858  0.00  0.00    -0.270 OA
ATOM     13  N   UNL     1       9.901  -5.460  25.610  0.00  0.00    -0.325 N 
ATOM     14  H   UNL     1      10.175  -5.944  26.455  0.00  0.00    +0.145 HD
ATOM     15  H   UNL     1      10.082  -5.907  24.722  0.00  0.00    +0.145 HD
ENDBRANCH   4  11
BRANCH   6  16
ATOM     16  C   UNL     1       6.340  -5.791  25.070  0.00  0.00    +0.107 C 
BRANCH  16  17
ATOM     17  C   UNL     1       5.937  -5.068  26.359  0.00  0.00    +0.047 C 
BRANCH  17  18
ATOM     18  C   UNL     1       6.166  -5.907  27.610  0.00  0.00    +0.157 C 
BRANCH  18  19
ATOM     19  O   UNL     1       7.568  -6.017  27.855  0.00  0.00    -0.395 OA
ATOM     20  H   UNL     1       7.866  -6.837  27.428  0.00  0.00    +0.209 HD
ENDBRANCH  18  19
ENDBRANCH  17  18
ENDBRANCH  16  17
ENDBRANCH   6  16
ENDBRANCH   1   2
BRANCH   1  22
ATOM     21  C   UNL     1       8.046   0.744  22.296  0.00  0.00    +0.024 C 
ATOM     22  C   UNL     1       9.464   0.531  21.757  0.00  0.00    +0.055 C 
BRANCH  22  23
ATOM     23  N   UNL     1      10.193   1.809  21.812  0.00  0.00    -0.310 NA
ATOM     24  H   UNL     1       9.632   2.532  21.357  0.00  0.00    +0.122 HD
BRANCH  23  25
ATOM     25  C   UNL     1      10.559   2.262  23.161  0.00  0.00    +0.122 C 
BRANCH  25  26
ATOM     26  C   UNL     1      10.517   3.778  23.360  0.00  0.00    +0.244 C 
BRANCH  26  27
ATOM     27  O   UNL     1       9.592   4.106  24.402  0.00  0.00    -0.487 OA
BRANCH  27  28
ATOM     28  C   UNL     1       8.262   3.978  24.080  0.00  0.00    +0.162 A 
ATOM     29  C   UNL     1       7.453   3.164  24.892  0.00  0.00    +0.162 A 
ATOM     30  C   UNL     1       6.114   2.950  24.530  0.00  0.00    +0.049 A 
ATOM     31  C   UNL     1       5.565   3.554  23.399  0.00  0.00    +0.004 A 
ATOM     32  C   UNL     1       6.354   4.376  22.611  0.00  0.00    +0.004 A 
ATOM     33  C   UNL     1       7.692   4.586  22.949  0.00  0.00    +0.049 A 
BRANCH  29  34
ATOM     34  O   UNL     1       7.823   2.461  26.009  0.00  0.00    -0.479 OA
BRANCH  34  35
ATOM     35  C   UNL     1       7.066   1.293  26.345  0.00  0.00    +0.342 C 
BRANCH  35  36
ATOM     36  C   UNL     1       7.844   0.016  26.022  0.00  0.00    +0.424 C 
ATOM     37  F   UNL     1       9.046   0.303  25.467  0.00  0.00    -0.167 F 
ATOM     38  F   UNL     1       7.168  -0.744  25.124  0.00  0.00    -0.167 F 
ATOM     39  F   UNL     1       8.075  -0.758  27.105  0.00  0.00    -0.167 F 
ENDBRANCH  35  36
ENDBRANCH  34  35
ENDBRANCH  29  34
ENDBRANCH  27  28
ENDBRANCH  26  27
ENDBRANCH  25  26
ENDBRANCH  23  25
ENDBRANCH  22  23
ENDBRANCH   1  22
TORSDOF 15
ENDMDL
MODEL 4
REMARK VINA RESULT:      -6.3      3.708      8.151
REMARK  Name = 
REMARK  16 active torsions:
REMARK  status: ('A' for Active; 'I' for Inactive)
REMARK    1  A    between atoms: C_1  and  C_2
REMARK    2  A    between atoms: C_2  and  C_4
REMARK    3  A    between atoms: C_2  and  N_21
REMARK    4  A    between atoms: C_4  and  C_5
REMARK    5  A    between atoms: N_9  and  C_10
REMARK    6  A    between atoms: C_10  and  C_11
REMARK    7  A    between atoms: C_11  and  C_12
REMARK    8  A    between atoms: C_12  and  O_13
REMARK    9  A    between atoms: C_16  and  C_18
REMARK   10  A    between atoms: N_21  and  C_22
REMARK   11  A    between atoms: C_22  and  C_23
REMARK   12  A    between atoms: C_23  and  O_24
REMARK   13  A    between atoms: O_24  and  C_25
REMARK   14  A    between atoms: C_30  and  O_31
REMARK   15  A    between atoms: O_31  and  C_32
REMARK   16  A    between atoms: C_32  and  C_33
REMARK                            x       y       z     vdW  Elec       q    Type
REMARK                         _______ _______ _______ _____ _____    ______ ____
ROOT
ATOM      1  C   UNL     1       9.818  -2.131  24.346  0.00  0.00    +0.053 C 
ENDROOT
BRANCH   1   2
ATOM      2  C   UNL     1       9.511  -0.682  24.637  0.00  0.00    -0.045 A 
ATOM      3  C   UNL     1      10.105   0.335  23.882  0.00  0.00    +0.018 A 
ATOM      4  C   UNL     1       9.737   1.703  24.011  0.00  0.00    +0.058 A 
ATOM      5  C   UNL     1       8.768   2.066  24.954  0.00  0.00    +0.045 A 
ATOM      6  N   UNL     1       8.177   3.262  25.325  0.00  0.00    -0.329 N 
ATOM      7  C   UNL     1       7.125   2.996  26.318  0.00  0.00    +0.110 C 
ATOM      8  C   UNL     1       7.166   1.511  26.657  0.00  0.00    +0.056 C 
ATOM      9  C   UNL     1       8.218   1.019  25.721  0.00  0.00    -0.024 A 
ATOM     10  C   UNL     1       8.571  -0.318  25.590  0.00  0.00    +0.009 A 
BRANCH   4  11
ATOM     11  C   UNL     1      10.463   2.621  23.092  0.00  0.00    +0.243 C 
ATOM     12  O   UNL     1      11.250   3.475  23.469  0.00  0.00    -0.270 OA
ATOM     13  N   UNL     1      10.272   2.403  21.745  0.00  0.00    -0.325 N 
ATOM     14  H   UNL     1      10.810   2.965  21.099  0.00  0.00    +0.145 HD
ATOM     15  H   UNL     1       9.648   1.703  21.368  0.00  0.00    +0.145 HD
ENDBRANCH   4  11
BRANCH   6  16
ATOM     16  C   UNL     1       8.334   4.613  24.816  0.00  0.00    +0.107 C 
BRANCH  16  17
ATOM     17  C   UNL     1       7.518   4.827  23.537  0.00  0.00    +0.047 C 
BRANCH  17  18
ATOM     18  C   UNL     1       8.075   5.935  22.652  0.00  0.00    +0.157 C 
BRANCH  18  19
ATOM     19  O   UNL     1       9.489   6.015  22.831  0.00  0.00    -0.395 OA
ATOM     20  H   UNL     1       9.738   6.946  22.707  0.00  0.00    +0.209 HD
ENDBRANCH  18  19
ENDBRANCH  17  18
ENDBRANCH  16  17
ENDBRANCH   6  16
ENDBRANCH   1   2
BRANCH   1  22
ATOM     21  C   UNL     1       7.904  -2.740  22.769  0.00  0.00    +0.024 C 
ATOM     22  C   UNL     1       8.632  -3.083  24.072  0.00  0.00    +0.055 C 
BRANCH  22  23
ATOM     23  N   UNL     1       8.962  -4.518  24.073  0.00  0.00    -0.310 NA
ATOM     24  H   UNL     1       9.664  -4.698  23.352  0.00  0.00    +0.122 HD
BRANCH  23  25
ATOM     25  C   UNL     1       9.441  -5.049  25.356  0.00  0.00    +0.122 C 
BRANCH  25  26
ATOM     26  C   UNL     1       8.451  -4.916  26.514  0.00  0.00    +0.244 C 
BRANCH  26  27
ATOM     27  O   UNL     1       7.487  -5.973  26.452  0.00  0.00    -0.487 OA
BRANCH  27  28
ATOM     28  C   UNL     1       6.172  -5.578  26.404  0.00  0.00    +0.162 A 
ATOM     29  C   UNL     1       5.562  -5.437  25.145  0.00  0.00    +0.162 A 
ATOM     30  C   UNL     1       4.247  -4.951  25.071  0.00  0.00    +0.049 A 
ATOM     31  C   UNL     1       3.528  -4.635  26.223  0.00  0.00    +0.004 A 
ATOM     32  C   UNL     1       4.118  -4.795  27.465  0.00  0.00    +0.004 A 
ATOM     33  C   UNL     1       5.430  -5.264  27.554  0.00  0.00    +0.049 A 
BRANCH  29  34
ATOM     34  O   UNL     1       6.120  -5.656  23.912  0.00  0.00    -0.479 OA
BRANCH  34  35
ATOM     35  C   UNL     1       5.316  -5.391  22.758  0.00  0.00    +0.342 C 
BRANCH  35  36
ATOM     36  C   UNL     1       6.108  -5.613  21.468  0.00  0.00    +0.424 C 
ATOM     37  F   UNL     1       7.393  -5.953  21.735  0.00  0.00    -0.167 F 
ATOM     38  F   UNL     1       6.148  -4.477  20.727  0.00  0.00    -0.167 F 
ATOM     39  F   UNL     1       5.591  -6.583  20.683  0.00  0.00    -0.167 F 
ENDBRANCH  35  36
ENDBRANCH  34  35
ENDBRANCH  29  34
ENDBRANCH  27  28
ENDBRANCH  26  27
ENDBRANCH  25  26
ENDBRANCH  23  25
ENDBRANCH  22  23
ENDBRANCH   1  22
TORSDOF 15
ENDMDL
MODEL 5
REMARK VINA RESULT:      -6.3      2.352      4.423
REMARK  Name = 
REMARK  16 active torsions:
REMARK  status: ('A' for Active; 'I' for Inactive)
REMARK    1  A    between atoms: C_1  and  C_2
REMARK    2  A    between atoms: C_2  and  C_4
REMARK    3  A    between atoms: C_2  and  N_21
REMARK    4  A    between atoms: C_4  and  C_5
REMARK    5  A    between atoms: N_9  and  C_10
REMARK    6  A    between atoms: C_10  and  C_11
REMARK    7  A    between atoms: C_11  and  C_12
REMARK    8  A    between atoms: C_12  and  O_13
REMARK    9  A    between atoms: C_16  and  C_18
REMARK   10  A    between atoms: N_21  and  C_22
REMARK   11  A    between atoms: C_22  and  C_23
REMARK   12  A    between atoms: C_23  and  O_24
REMARK   13  A    between atoms: O_24  and  C_25
REMARK   14  A    between atoms: C_30  and  O_31
REMARK   15  A    between atoms: O_31  and  C_32
REMARK   16  A    between atoms: C_32  and  C_33
REMARK                            x       y       z     vdW  Elec       q    Type
REMARK                         _______ _______ _______ _____ _____    ______ ____
ROOT
ATOM      1  C   UNL     1       7.921  -0.454  27.259  0.00  0.00    +0.053 C 
ENDROOT
BRANCH   1   2
ATOM      2  C   UNL     1       7.870  -1.469  26.144  0.00  0.00    -0.045 A 
ATOM      3  C   UNL     1       8.225  -2.802  26.382  0.00  0.00    +0.018 A 
ATOM      4  C   UNL     1       8.050  -3.828  25.411  0.00  0.00    +0.058 A 
ATOM      5  C   UNL     1       7.539  -3.499  24.150  0.00  0.00    +0.045 A 
ATOM      6  N   UNL     1       7.234  -4.223  23.010  0.00  0.00    -0.329 N 
ATOM      7  C   UNL     1       6.610  -3.329  22.021  0.00  0.00    +0.110 C 
ATOM      8  C   UNL     1       6.647  -1.913  22.581  0.00  0.00    +0.056 C 
ATOM      9  C   UNL     1       7.227  -2.141  23.937  0.00  0.00    -0.024 A 
ATOM     10  C   UNL     1       7.390  -1.140  24.885  0.00  0.00    +0.009 A 
BRANCH   4  11
ATOM     11  C   UNL     1       8.456  -5.183  25.874  0.00  0.00    +0.243 C 
ATOM     12  O   UNL     1       7.694  -5.973  26.409  0.00  0.00    -0.270 OA
ATOM     13  N   UNL     1       9.750  -5.558  25.583  0.00  0.00    -0.325 N 
ATOM     14  H   UNL     1      10.029  -6.500  25.821  0.00  0.00    +0.145 HD
ATOM     15  H   UNL     1      10.424  -4.958  25.128  0.00  0.00    +0.145 HD
ENDBRANCH   4  11
BRANCH   6  16
ATOM     16  C   UNL     1       7.304  -5.645  22.723  0.00  0.00    +0.107 C 
BRANCH  16  17
ATOM     17  C   UNL     1       5.923  -6.217  22.388  0.00  0.00    +0.047 C 
BRANCH  17  18
ATOM     18  C   UNL     1       4.959  -6.175  23.566  0.00  0.00    +0.157 C 
BRANCH  18  19
ATOM     19  O   UNL     1       4.585  -7.508  23.918  0.00  0.00    -0.395 OA
ATOM     20  H   UNL     1       5.227  -8.102  23.496  0.00  0.00    +0.209 HD
ENDBRANCH  18  19
ENDBRANCH  17  18
ENDBRANCH  16  17
ENDBRANCH   6  16
ENDBRANCH   1   2
BRANCH   1  22
ATOM     21  C   UNL     1       5.971   0.771  28.363  0.00  0.00    +0.024 C 
ATOM     22  C   UNL     1       6.954   0.750  27.189  0.00  0.00    +0.055 C 
BRANCH  22  23
ATOM     23  N   UNL     1       7.597   2.070  27.080  0.00  0.00    -0.310 NA
ATOM     24  H   UNL     1       8.566   1.945  26.778  0.00  0.00    +0.122 HD
BRANCH  23  25
ATOM     25  C   UNL     1       6.930   3.017  26.175  0.00  0.00    +0.122 C 
BRANCH  25  26
ATOM     26  C   UNL     1       7.665   4.345  25.984  0.00  0.00    +0.244 C 
BRANCH  26  27
ATOM     27  O   UNL     1       7.853   4.599  24.588  0.00  0.00    -0.487 OA
BRANCH  27  28
ATOM     28  C   UNL     1       9.159   4.712  24.174  0.00  0.00    +0.162 A 
ATOM     29  C   UNL     1       9.811   3.562  23.696  0.00  0.00    +0.162 A 
ATOM     30  C   UNL     1      11.169   3.637  23.351  0.00  0.00    +0.049 A 
ATOM     31  C   UNL     1      11.873   4.837  23.446  0.00  0.00    +0.004 A 
ATOM     32  C   UNL     1      11.228   5.977  23.895  0.00  0.00    +0.004 A 
ATOM     33  C   UNL     1       9.880   5.914  24.256  0.00  0.00    +0.049 A 
BRANCH  29  34
ATOM     34  O   UNL     1       9.298   2.296  23.574  0.00  0.00    -0.479 OA
BRANCH  34  35
ATOM     35  C   UNL     1      10.177   1.260  23.123  0.00  0.00    +0.342 C 
BRANCH  35  36
ATOM     36  C   UNL     1      10.711   0.436  24.296  0.00  0.00    +0.424 C 
ATOM     37  F   UNL     1      10.083   0.767  25.451  0.00  0.00    -0.167 F 
ATOM     38  F   UNL     1      12.033   0.673  24.486  0.00  0.00    -0.167 F 
ATOM     39  F   UNL     1      10.564  -0.896  24.126  0.00  0.00    -0.167 F 
ENDBRANCH  35  36
ENDBRANCH  34  35
ENDBRANCH  29  34
ENDBRANCH  27  28
ENDBRANCH  26  27
ENDBRANCH  25  26
ENDBRANCH  23  25
ENDBRANCH  22  23
ENDBRANCH   1  22
TORSDOF 15
ENDMDL
MODEL 6
REMARK VINA RESULT:      -6.3      3.952      8.473
REMARK  Name = 
REMARK  16 active torsions:
REMARK  status: ('A' for Active; 'I' for Inactive)
REMARK    1  A    between atoms: C_1  and  C_2
REMARK    2  A    between atoms: C_2  and  C_4
REMARK    3  A    between atoms: C_2  and  N_21
REMARK    4  A    between atoms: C_4  and  C_5
REMARK    5  A    between atoms: N_9  and  C_10
REMARK    6  A    between atoms: C_10  and  C_11
REMARK    7  A    between atoms: C_11  and  C_12
REMARK    8  A    between atoms: C_12  and  O_13
REMARK    9  A    between atoms: C_16  and  C_18
REMARK   10  A    between atoms: N_21  and  C_22
REMARK   11  A    between atoms: C_22  and  C_23
REMARK   12  A    between atoms: C_23  and  O_24
REMARK   13  A    between atoms: O_24  and  C_25
REMARK   14  A    between atoms: C_30  and  O_31
REMARK   15  A    between atoms: O_31  and  C_32
REMARK   16  A    between atoms: C_32  and  C_33
REMARK                            x       y       z     vdW  Elec       q    Type
REMARK                         _______ _______ _______ _____ _____    ______ ____
ROOT
ATOM      1  C   UNL     1       6.425  -0.125  25.091  0.00  0.00    +0.053 C 
ENDROOT
BRANCH   1   2
ATOM      2  C   UNL     1       7.075   1.221  24.886  0.00  0.00    -0.045 A 
ATOM      3  C   UNL     1       8.321   1.319  24.256  0.00  0.00    +0.018 A 
ATOM      4  C   UNL     1       8.905   2.567  23.902  0.00  0.00    +0.058 A 
ATOM      5  C   UNL     1       8.236   3.754  24.222  0.00  0.00    +0.045 A 
ATOM      6  N   UNL     1       8.497   5.099  24.019  0.00  0.00    -0.329 N 
ATOM      7  C   UNL     1       7.351   5.891  24.490  0.00  0.00    +0.110 C 
ATOM      8  C   UNL     1       6.356   4.937  25.137  0.00  0.00    +0.056 C 
ATOM      9  C   UNL     1       7.001   3.615  24.887  0.00  0.00    -0.024 A 
ATOM     10  C   UNL     1       6.425   2.399  25.228  0.00  0.00    +0.009 A 
BRANCH   4  11
ATOM     11  C   UNL     1      10.217   2.452  23.208  0.00  0.00    +0.243 C 
ATOM     12  O   UNL     1      11.287   2.361  23.791  0.00  0.00    -0.270 OA
ATOM     13  N   UNL     1      10.168   2.360  21.835  0.00  0.00    -0.325 N 
ATOM     14  H   UNL     1      11.039   2.208  21.344  0.00  0.00    +0.145 HD
ATOM     15  H   UNL     1       9.316   2.412  21.293  0.00  0.00    +0.145 HD
ENDBRANCH   4  11
BRANCH   6  16
ATOM     16  C   UNL     1       9.587   5.777  23.339  0.00  0.00    +0.107 C 
BRANCH  16  17
ATOM     17  C   UNL     1      10.727   6.113  24.306  0.00  0.00    +0.047 C 
BRANCH  17  18
ATOM     18  C   UNL     1      12.104   5.794  23.738  0.00  0.00    +0.157 C 
BRANCH  18  19
ATOM     19  O   UNL     1      11.954   5.073  22.514  0.00  0.00    -0.395 OA
ATOM     20  H   UNL     1      12.846   4.945  22.150  0.00  0.00    +0.209 HD
ENDBRANCH  18  19
ENDBRANCH  17  18
ENDBRANCH  16  17
ENDBRANCH   6  16
ENDBRANCH   1   2
BRANCH   1  22
ATOM     21  C   UNL     1       7.178  -0.254  27.528  0.00  0.00    +0.024 C 
ATOM     22  C   UNL     1       6.966  -1.028  26.222  0.00  0.00    +0.055 C 
BRANCH  22  23
ATOM     23  N   UNL     1       6.169  -2.233  26.504  0.00  0.00    -0.310 NA
ATOM     24  H   UNL     1       5.461  -2.342  25.775  0.00  0.00    +0.122 HD
BRANCH  23  25
ATOM     25  C   UNL     1       6.939  -3.479  26.616  0.00  0.00    +0.122 C 
BRANCH  25  26
ATOM     26  C   UNL     1       8.421  -3.350  26.258  0.00  0.00    +0.244 C 
BRANCH  26  27
ATOM     27  O   UNL     1       8.657  -3.908  24.961  0.00  0.00    -0.487 OA
BRANCH  27  28
ATOM     28  C   UNL     1       8.863  -3.001  23.951  0.00  0.00    +0.162 A 
ATOM     29  C   UNL     1       7.834  -2.798  23.014  0.00  0.00    +0.162 A 
ATOM     30  C   UNL     1       8.057  -1.942  21.925  0.00  0.00    +0.049 A 
ATOM     31  C   UNL     1       9.268  -1.268  21.772  0.00  0.00    +0.004 A 
ATOM     32  C   UNL     1      10.276  -1.448  22.705  0.00  0.00    +0.004 A 
ATOM     33  C   UNL     1      10.074  -2.308  23.786  0.00  0.00    +0.049 A 
BRANCH  29  34
ATOM     34  O   UNL     1       6.602  -3.399  22.977  0.00  0.00    -0.479 OA
BRANCH  34  35
ATOM     35  C   UNL     1       6.123  -3.864  21.711  0.00  0.00    +0.342 C 
BRANCH  35  36
ATOM     36  C   UNL     1       6.325  -5.374  21.562  0.00  0.00    +0.424 C 
ATOM     37  F   UNL     1       7.601  -5.727  21.852  0.00  0.00    -0.167 F 
ATOM     38  F   UNL     1       6.089  -5.766  20.285  0.00  0.00    -0.167 F 
ATOM     39  F   UNL     1       5.515  -6.103  22.360  0.00  0.00    -0.167 F 
ENDBRANCH  35  36
ENDBRANCH  34  35
ENDBRANCH  29  34
ENDBRANCH  27  28
ENDBRANCH  26  27
ENDBRANCH  25  26
ENDBRANCH  23  25
ENDBRANCH  22  23
ENDBRANCH   1  22
TORSDOF 15
ENDMDL
MODEL 7
REMARK VINA RESULT:      -6.3      3.682      5.254
REMARK  Name = 
REMARK  16 active torsions:
REMARK  status: ('A' for Active; 'I' for Inactive)
REMARK    1  A    between atoms: C_1  and  C_2
REMARK    2  A    between atoms: C_2  and  C_4
REMARK    3  A    between atoms: C_2  and  N_21
REMARK    4  A    between atoms: C_4  and  C_5
REMARK    5  A    between atoms: N_9  and  C_10
REMARK    6  A    between atoms: C_10  and  C_11
REMARK    7  A    between atoms: C_11  and  C_12
REMARK    8  A    between atoms: C_12  and  O_13
REMARK    9  A    between atoms: C_16  and  C_18
REMARK   10  A    between atoms: N_21  and  C_22
REMARK   11  A    between atoms: C_22  and  C_23
REMARK   12  A    between atoms: C_23  and  O_24
REMARK   13  A    between atoms: O_24  and  C_25
REMARK   14  A    between atoms: C_30  and  O_31
REMARK   15  A    between atoms: O_31  and  C_32
REMARK   16  A    between atoms: C_32  and  C_33
REMARK                            x       y       z     vdW  Elec       q    Type
REMARK                         _______ _______ _______ _____ _____    ______ ____
ROOT
ATOM      1  C   UNL     1       7.584  -0.214  26.773  0.00  0.00    +0.053 C 
ENDROOT
BRANCH   1   2
ATOM      2  C   UNL     1       6.922  -1.524  26.421  0.00  0.00    -0.045 A 
ATOM      3  C   UNL     1       7.573  -2.738  26.670  0.00  0.00    +0.018 A 
ATOM      4  C   UNL     1       6.937  -3.999  26.500  0.00  0.00    +0.058 A 
ATOM      5  C   UNL     1       5.619  -4.045  26.030  0.00  0.00    +0.045 A 
ATOM      6  N   UNL     1       4.717  -5.063  25.772  0.00  0.00    -0.329 N 
ATOM      7  C   UNL     1       3.421  -4.479  25.393  0.00  0.00    +0.110 C 
ATOM      8  C   UNL     1       3.595  -2.968  25.309  0.00  0.00    +0.056 C 
ATOM      9  C   UNL     1       5.009  -2.803  25.757  0.00  0.00    -0.024 A 
ATOM     10  C   UNL     1       5.626  -1.571  25.929  0.00  0.00    +0.009 A 
BRANCH   4  11
ATOM     11  C   UNL     1       7.790  -5.166  26.852  0.00  0.00    +0.243 C 
ATOM     12  O   UNL     1       7.572  -5.904  27.801  0.00  0.00    -0.270 OA
ATOM     13  N   UNL     1       8.821  -5.445  25.982  0.00  0.00    -0.325 N 
ATOM     14  H   UNL     1       9.371  -6.276  26.157  0.00  0.00    +0.145 HD
ATOM     15  H   UNL     1       9.044  -4.885  25.170  0.00  0.00    +0.145 HD
ENDBRANCH   4  11
BRANCH   6  16
ATOM     16  C   UNL     1       4.814  -6.502  25.941  0.00  0.00    +0.107 C 
BRANCH  16  17
ATOM     17  C   UNL     1       3.793  -7.016  26.961  0.00  0.00    +0.047 C 
BRANCH  17  18
ATOM     18  C   UNL     1       4.256  -6.854  28.403  0.00  0.00    +0.157 C 
BRANCH  18  19
ATOM     19  O   UNL     1       5.482  -7.561  28.587  0.00  0.00    -0.395 OA
ATOM     20  H   UNL     1       5.269  -8.509  28.559  0.00  0.00    +0.209 HD
ENDBRANCH  18  19
ENDBRANCH  17  18
ENDBRANCH  16  17
ENDBRANCH   6  16
ENDBRANCH   1   2
BRANCH   1  22
ATOM     21  C   UNL     1       6.809   1.920  27.941  0.00  0.00    +0.024 C 
ATOM     22  C   UNL     1       6.743   1.077  26.663  0.00  0.00    +0.055 C 
BRANCH  22  23
ATOM     23  N   UNL     1       7.051   1.936  25.508  0.00  0.00    -0.310 NA
ATOM     24  H   UNL     1       8.022   1.781  25.228  0.00  0.00    +0.122 HD
BRANCH  23  25
ATOM     25  C   UNL     1       6.179   1.748  24.340  0.00  0.00    +0.122 C 
BRANCH  25  26
ATOM     26  C   UNL     1       6.914   1.421  23.039  0.00  0.00    +0.244 C 
BRANCH  26  27
ATOM     27  O   UNL     1       6.725   0.041  22.709  0.00  0.00    -0.487 OA
BRANCH  27  28
ATOM     28  C   UNL     1       7.782  -0.790  22.990  0.00  0.00    +0.162 A 
ATOM     29  C   UNL     1       7.578  -2.179  22.921  0.00  0.00    +0.162 A 
ATOM     30  C   UNL     1       8.619  -3.044  23.290  0.00  0.00    +0.049 A 
ATOM     31  C   UNL     1       9.860  -2.551  23.694  0.00  0.00    +0.004 A 
ATOM     32  C   UNL     1      10.072  -1.184  23.740  0.00  0.00    +0.004 A 
ATOM     33  C   UNL     1       9.040  -0.310  23.390  0.00  0.00    +0.049 A 
BRANCH  29  34
ATOM     34  O   UNL     1       6.425  -2.842  22.590  0.00  0.00    -0.479 OA
BRANCH  34  35
ATOM     35  C   UNL     1       6.509  -3.880  21.607  0.00  0.00    +0.342 C 
BRANCH  35  36
ATOM     36  C   UNL     1       5.993  -5.210  22.160  0.00  0.00    +0.424 C 
ATOM     37  F   UNL     1       6.677  -5.576  23.271  0.00  0.00    -0.167 F 
ATOM     38  F   UNL     1       6.158  -6.204  21.251  0.00  0.00    -0.167 F 
ATOM     39  F   UNL     1       4.682  -5.182  22.485  0.00  0.00    -0.167 F 
ENDBRANCH  35  36
ENDBRANCH  34  35
ENDBRANCH  29  34
ENDBRANCH  27  28
ENDBRANCH  26  27
ENDBRANCH  25  26
ENDBRANCH  23  25
ENDBRANCH  22  23
ENDBRANCH   1  22
TORSDOF 15
ENDMDL
MODEL 8
REMARK VINA RESULT:      -6.2      3.036      7.461
REMARK  Name = 
REMARK  16 active torsions:
REMARK  status: ('A' for Active; 'I' for Inactive)
REMARK    1  A    between atoms: C_1  and  C_2
REMARK    2  A    between atoms: C_2  and  C_4
REMARK    3  A    between atoms: C_2  and  N_21
REMARK    4  A    between atoms: C_4  and  C_5
REMARK    5  A    between atoms: N_9  and  C_10
REMARK    6  A    between atoms: C_10  and  C_11
REMARK    7  A    between atoms: C_11  and  C_12
REMARK    8  A    between atoms: C_12  and  O_13
REMARK    9  A    between atoms: C_16  and  C_18
REMARK   10  A    between atoms: N_21  and  C_22
REMARK   11  A    between atoms: C_22  and  C_23
REMARK   12  A    between atoms: C_23  and  O_24
REMARK   13  A    between atoms: O_24  and  C_25
REMARK   14  A    between atoms: C_30  and  O_31
REMARK   15  A    between atoms: O_31  and  C_32
REMARK   16  A    between atoms: C_32  and  C_33
REMARK                            x       y       z     vdW  Elec       q    Type
REMARK                         _______ _______ _______ _____ _____    ______ ____
ROOT
ATOM      1  C   UNL     1       8.631  -3.255  26.402  0.00  0.00    +0.053 C 
ENDROOT
BRANCH   1   2
ATOM      2  C   UNL     1       8.294  -2.000  25.634  0.00  0.00    -0.045 A 
ATOM      3  C   UNL     1       9.067  -1.613  24.534  0.00  0.00    +0.018 A 
ATOM      4  C   UNL     1       8.706  -0.529  23.685  0.00  0.00    +0.058 A 
ATOM      5  C   UNL     1       7.553   0.212  23.972  0.00  0.00    +0.045 A 
ATOM      6  N   UNL     1       6.917   1.284  23.371  0.00  0.00    -0.329 N 
ATOM      7  C   UNL     1       5.659   1.562  24.082  0.00  0.00    +0.110 C 
ATOM      8  C   UNL     1       5.592   0.639  25.291  0.00  0.00    +0.056 C 
ATOM      9  C   UNL     1       6.821  -0.187  25.108  0.00  0.00    -0.024 A 
ATOM     10  C   UNL     1       7.168  -1.248  25.933  0.00  0.00    +0.009 A 
BRANCH   4  11
ATOM     11  C   UNL     1       9.642  -0.303  22.551  0.00  0.00    +0.243 C 
ATOM     12  O   UNL     1      10.446   0.616  22.508  0.00  0.00    -0.270 OA
ATOM     13  N   UNL     1       9.628  -1.256  21.556  0.00  0.00    -0.325 N 
ATOM     14  H   UNL     1      10.305  -1.166  20.810  0.00  0.00    +0.145 HD
ATOM     15  H   UNL     1       9.000  -2.048  21.540  0.00  0.00    +0.145 HD
ENDBRANCH   4  11
BRANCH   6  16
ATOM     16  C   UNL     1       7.214   2.024  22.157  0.00  0.00    +0.107 C 
BRANCH  16  17
ATOM     17  C   UNL     1       7.560   3.485  22.463  0.00  0.00    +0.047 C 
BRANCH  17  18
ATOM     18  C   UNL     1       8.684   3.631  23.480  0.00  0.00    +0.157 C 
BRANCH  18  19
ATOM     19  O   UNL     1       9.935   3.375  22.842  0.00  0.00    -0.395 OA
ATOM     20  H   UNL     1       9.775   2.691  22.171  0.00  0.00    +0.209 HD
ENDBRANCH  18  19
ENDBRANCH  17  18
ENDBRANCH  16  17
ENDBRANCH   6  16
ENDBRANCH   1   2
BRANCH   1  22
ATOM     21  C   UNL     1       9.970  -5.204  25.438  0.00  0.00    +0.024 C 
ATOM     22  C   UNL     1       8.576  -4.604  25.650  0.00  0.00    +0.055 C 
BRANCH  22  23
ATOM     23  N   UNL     1       7.701  -5.625  26.249  0.00  0.00    -0.310 NA
ATOM     24  H   UNL     1       8.281  -6.342  26.692  0.00  0.00    +0.122 HD
BRANCH  23  25
ATOM     25  C   UNL     1       6.729  -5.120  27.228  0.00  0.00    +0.122 C 
BRANCH  25  26
ATOM     26  C   UNL     1       5.346  -5.770  27.150  0.00  0.00    +0.244 C 
BRANCH  26  27
ATOM     27  O   UNL     1       5.375  -6.864  26.227  0.00  0.00    -0.487 OA
BRANCH  27  28
ATOM     28  C   UNL     1       4.411  -6.844  25.249  0.00  0.00    +0.162 A 
ATOM     29  C   UNL     1       4.631  -6.051  24.109  0.00  0.00    +0.162 A 
ATOM     30  C   UNL     1       3.622  -5.947  23.140  0.00  0.00    +0.049 A 
ATOM     31  C   UNL     1       2.418  -6.639  23.273  0.00  0.00    +0.004 A 
ATOM     32  C   UNL     1       2.207  -7.439  24.384  0.00  0.00    +0.004 A 
ATOM     33  C   UNL     1       3.196  -7.540  25.364  0.00  0.00    +0.049 A 
BRANCH  29  34
ATOM     34  O   UNL     1       5.725  -5.273  23.826  0.00  0.00    -0.479 OA
BRANCH  34  35
ATOM     35  C   UNL     1       5.515  -3.870  23.635  0.00  0.00    +0.342 C 
BRANCH  35  36
ATOM     36  C   UNL     1       6.278  -3.357  22.413  0.00  0.00    +0.424 C 
ATOM     37  F   UNL     1       7.603  -3.623  22.516  0.00  0.00    -0.167 F 
ATOM     38  F   UNL     1       6.156  -2.010  22.301  0.00  0.00    -0.167 F 
ATOM     39  F   UNL     1       5.849  -3.894  21.250  0.00  0.00    -0.167 F 
ENDBRANCH  35  36
ENDBRANCH  34  35
ENDBRANCH  29  34
ENDBRANCH  27  28
ENDBRANCH  26  27
ENDBRANCH  25  26
ENDBRANCH  23  25
ENDBRANCH  22  23
ENDBRANCH   1  22
TORSDOF 15
ENDMDL
MODEL 9
REMARK VINA RESULT:      -6.2      3.164      8.330
REMARK  Name = 
REMARK  16 active torsions:
REMARK  status: ('A' for Active; 'I' for Inactive)
REMARK    1  A    between atoms: C_1  and  C_2
REMARK    2  A    between atoms: C_2  and  C_4
REMARK    3  A    between atoms: C_2  and  N_21
REMARK    4  A    between atoms: C_4  and  C_5
REMARK    5  A    between atoms: N_9  and  C_10
REMARK    6  A    between atoms: C_10  and  C_11
REMARK    7  A    between atoms: C_11  and  C_12
REMARK    8  A    between atoms: C_12  and  O_13
REMARK    9  A    between atoms: C_16  and  C_18
REMARK   10  A    between atoms: N_21  and  C_22
REMARK   11  A    between atoms: C_22  and  C_23
REMARK   12  A    between atoms: C_23  and  O_24
REMARK   13  A    between atoms: O_24  and  C_25
REMARK   14  A    between atoms: C_30  and  O_31
REMARK   15  A    between atoms: O_31  and  C_32
REMARK   16  A    between atoms: C_32  and  C_33
REMARK                            x       y       z     vdW  Elec       q    Type
REMARK                         _______ _______ _______ _____ _____    ______ ____
ROOT
ATOM      1  C   UNL     1       6.209   1.852  26.549  0.00  0.00    +0.053 C 
ENDROOT
BRANCH   1   2
ATOM      2  C   UNL     1       7.253   2.799  26.010  0.00  0.00    -0.045 A 
ATOM      3  C   UNL     1       8.131   2.389  25.001  0.00  0.00    +0.018 A 
ATOM      4  C   UNL     1       9.028   3.283  24.353  0.00  0.00    +0.058 A 
ATOM      5  C   UNL     1       9.072   4.623  24.757  0.00  0.00    +0.045 A 
ATOM      6  N   UNL     1       9.789   5.735  24.348  0.00  0.00    -0.329 N 
ATOM      7  C   UNL     1       9.315   6.915  25.088  0.00  0.00    +0.110 C 
ATOM      8  C   UNL     1       8.294   6.445  26.116  0.00  0.00    +0.056 C 
ATOM      9  C   UNL     1       8.198   4.990  25.800  0.00  0.00    -0.024 A 
ATOM     10  C   UNL     1       7.316   4.121  26.428  0.00  0.00    +0.009 A 
BRANCH   4  11
ATOM     11  C   UNL     1       9.850   2.656  23.283  0.00  0.00    +0.243 C 
ATOM     12  O   UNL     1      10.907   2.079  23.490  0.00  0.00    -0.270 OA
ATOM     13  N   UNL     1       9.309   2.674  22.016  0.00  0.00    -0.325 N 
ATOM     14  H   UNL     1       9.812   2.191  21.284  0.00  0.00    +0.145 HD
ATOM     15  H   UNL     1       8.432   3.119  21.782  0.00  0.00    +0.145 HD
ENDBRANCH   4  11
BRANCH   6  16
ATOM     16  C   UNL     1      10.761   5.918  23.286  0.00  0.00    +0.107 C 
BRANCH  16  17
ATOM     17  C   UNL     1      12.182   5.610  23.769  0.00  0.00    +0.047 C 
BRANCH  17  18
ATOM     18  C   UNL     1      13.170   5.406  22.627  0.00  0.00    +0.157 C 
BRANCH  18  19
ATOM     19  O   UNL     1      14.448   5.067  23.164  0.00  0.00    -0.395 OA
ATOM     20  H   UNL     1      15.064   5.767  22.890  0.00  0.00    +0.209 HD
ENDBRANCH  18  19
ENDBRANCH  17  18
ENDBRANCH  16  17
ENDBRANCH   6  16
ENDBRANCH   1   2
BRANCH   1  22
ATOM     21  C   UNL     1       4.642   2.563  24.661  0.00  0.00    +0.024 C 
ATOM     22  C   UNL     1       5.055   1.432  25.610  0.00  0.00    +0.055 C 
BRANCH  22  23
ATOM     23  N   UNL     1       5.294   0.211  24.823  0.00  0.00    -0.310 NA
ATOM     24  H   UNL     1       5.916   0.434  24.043  0.00  0.00    +0.122 HD
BRANCH  23  25
ATOM     25  C   UNL     1       5.853  -0.919  25.577  0.00  0.00    +0.122 C 
BRANCH  25  26
ATOM     26  C   UNL     1       5.401  -2.298  25.093  0.00  0.00    +0.244 C 
BRANCH  26  27
ATOM     27  O   UNL     1       5.457  -2.352  23.664  0.00  0.00    -0.487 OA
BRANCH  27  28
ATOM     28  C   UNL     1       5.710  -3.590  23.124  0.00  0.00    +0.162 A 
ATOM     29  C   UNL     1       6.914  -3.782  22.424  0.00  0.00    +0.162 A 
ATOM     30  C   UNL     1       7.151  -5.011  21.790  0.00  0.00    +0.049 A 
ATOM     31  C   UNL     1       6.229  -6.054  21.868  0.00  0.00    +0.004 A 
ATOM     32  C   UNL     1       5.052  -5.877  22.577  0.00  0.00    +0.004 A 
ATOM     33  C   UNL     1       4.795  -4.654  23.200  0.00  0.00    +0.049 A 
BRANCH  29  34
ATOM     34  O   UNL     1       7.912  -2.867  22.206  0.00  0.00    -0.479 OA
BRANCH  34  35
ATOM     35  C   UNL     1       8.801  -2.577  23.291  0.00  0.00    +0.342 C 
BRANCH  35  36
ATOM     36  C   UNL     1       9.250  -1.114  23.262  0.00  0.00    +0.424 C 
ATOM     37  F   UNL     1       9.977  -0.805  24.363  0.00  0.00    -0.167 F 
ATOM     38  F   UNL     1       8.178  -0.283  23.253  0.00  0.00    -0.167 F 
ATOM     39  F   UNL     1      10.002  -0.807  22.184  0.00  0.00    -0.167 F 
ENDBRANCH  35  36
ENDBRANCH  34  35
ENDBRANCH  29  34
ENDBRANCH  27  28
ENDBRANCH  26  27
ENDBRANCH  25  26
ENDBRANCH  23  25
ENDBRANCH  22  23
ENDBRANCH   1  22
TORSDOF 15
ENDMDL
