MODEL 1
REMARK VINA RESULT:      -5.5      0.000      0.000
REMARK  Name = 
REMARK  4 active torsions:
REMARK  status: ('A' for Active; 'I' for Inactive)
REMARK    1  A    between atoms: C_7  and  C_9
REMARK    2  A    between atoms: C_9  and  O_10
REMARK    3  A    between atoms: C_12  and  C_13
REMARK    4  A    between atoms: C_12  and  C_14
REMARK                            x       y       z     vdW  Elec       q    Type
REMARK                         _______ _______ _______ _____ _____    ______ ____
ROOT
ATOM      1  C   UNL     1       7.711  -5.027  23.303  0.00  0.00    +0.229 C 
ATOM      2  S   UNL     1       8.579  -3.545  23.869  0.00  0.00    -0.004 S 
ATOM      3  O   UNL     1       9.831  -3.946  24.491  0.00  0.00    -0.172 OA
ATOM      4  O   UNL     1       8.552  -2.512  22.856  0.00  0.00    -0.172 OA
ATOM      5  C   UNL     1       7.481  -3.095  25.238  0.00  0.00    +0.113 C 
ATOM      6  C   UNL     1       6.348  -2.180  24.720  0.00  0.00    +0.038 C 
ATOM      7  C   UNL     1       8.201  -2.288  26.327  0.00  0.00    +0.038 C 
ATOM      8  C   UNL     1       6.976  -4.488  25.664  0.00  0.00    +0.213 C 
ATOM      9  N   UNL     1       6.771  -5.260  24.429  0.00  0.00    -0.263 N 
ATOM     10  C   UNL     1       5.654  -5.061  23.662  0.00  0.00    +0.221 C 
ATOM     11  O   UNL     1       4.516  -4.833  23.987  0.00  0.00    -0.275 OA
ATOM     12  C   UNL     1       6.493  -4.901  22.385  0.00  0.00    +0.142 C 
ENDROOT
BRANCH   8  13
ATOM     13  C   UNL     1       7.823  -5.406  26.569  0.00  0.00    +0.328 C 
ATOM     14  O   UNL     1       7.446  -5.714  27.697  0.00  0.00    -0.249 OA
BRANCH  13  15
ATOM     15  O   UNL     1       8.937  -5.974  26.071  0.00  0.00    -0.479 OA
ATOM     16  H   UNL     1       9.269  -6.833  26.422  0.00  0.00    +0.295 HD
ENDBRANCH  13  15
ENDBRANCH   8  13
TORSDOF 2
ENDMDL
MODEL 2
REMARK VINA RESULT:      -5.4      4.721      5.744
REMARK  Name = 
REMARK  4 active torsions:
REMARK  status: ('A' for Active; 'I' for Inactive)
REMARK    1  A    between atoms: C_7  and  C_9
REMARK    2  A    between atoms: C_9  and  O_10
REMARK    3  A    between atoms: C_12  and  C_13
REMARK    4  A    between atoms: C_12  and  C_14
REMARK                            x       y       z     vdW  Elec       q    Type
REMARK                         _______ _______ _______ _____ _____    ______ ____
ROOT
ATOM      1  C   UNL     1       7.864   1.330  22.048  0.00  0.00    +0.229 C 
ATOM      2  S   UNL     1       9.335   2.028  22.836  0.00  0.00    -0.004 S 
ATOM      3  O   UNL     1      10.460   1.899  21.924  0.00  0.00    -0.172 OA
ATOM      4  O   UNL     1       9.032   3.297  23.464  0.00  0.00    -0.172 OA
ATOM      5  C   UNL     1       9.590   0.758  24.103  0.00  0.00    +0.113 C 
ATOM      6  C   UNL     1       8.790   1.120  25.375  0.00  0.00    +0.038 C 
ATOM      7  C   UNL     1      11.055   0.660  24.548  0.00  0.00    +0.038 C 
ATOM      8  C   UNL     1       9.029  -0.481  23.377  0.00  0.00    +0.213 C 
ATOM      9  N   UNL     1       7.841  -0.034  22.633  0.00  0.00    -0.263 N 
ATOM     10  C   UNL     1       6.649   0.160  23.279  0.00  0.00    +0.221 C 
ATOM     11  O   UNL     1       6.142  -0.458  24.181  0.00  0.00    -0.275 OA
ATOM     12  C   UNL     1       6.482   1.558  22.663  0.00  0.00    +0.142 C 
ENDROOT
BRANCH   8  13
ATOM     13  C   UNL     1       9.873  -1.257  22.346  0.00  0.00    +0.328 C 
ATOM     14  O   UNL     1      10.554  -2.224  22.678  0.00  0.00    -0.249 OA
BRANCH  13  15
ATOM     15  O   UNL     1       9.771  -0.942  21.041  0.00  0.00    -0.479 OA
ATOM     16  H   UNL     1      10.574  -0.776  20.495  0.00  0.00    +0.295 HD
ENDBRANCH  13  15
ENDBRANCH   8  13
TORSDOF 2
ENDMDL
MODEL 3
REMARK VINA RESULT:      -5.4      3.864      5.817
REMARK  Name = 
REMARK  4 active torsions:
REMARK  status: ('A' for Active; 'I' for Inactive)
REMARK    1  A    between atoms: C_7  and  C_9
REMARK    2  A    between atoms: C_9  and  O_10
REMARK    3  A    between atoms: C_12  and  C_13
REMARK    4  A    between atoms: C_12  and  C_14
REMARK                            x       y       z     vdW  Elec       q    Type
REMARK                         _______ _______ _______ _____ _____    ______ ____
ROOT
ATOM      1  C   UNL     1       8.123  -1.630  24.292  0.00  0.00    +0.229 C 
ATOM      2  S   UNL     1       8.278  -0.236  25.434  0.00  0.00    -0.004 S 
ATOM      3  O   UNL     1       6.986   0.421  25.547  0.00  0.00    -0.172 OA
ATOM      4  O   UNL     1       9.021  -0.617  26.617  0.00  0.00    -0.172 OA
ATOM      5  C   UNL     1       9.287   0.853  24.396  0.00  0.00    +0.113 C 
ATOM      6  C   UNL     1      10.786   0.555  24.628  0.00  0.00    +0.038 C 
ATOM      7  C   UNL     1       9.101   2.335  24.746  0.00  0.00    +0.038 C 
ATOM      8  C   UNL     1       8.804   0.433  22.994  0.00  0.00    +0.213 C 
ATOM      9  N   UNL     1       8.618  -1.025  23.029  0.00  0.00    -0.263 N 
ATOM     10  C   UNL     1       9.696  -1.866  22.938  0.00  0.00    +0.221 C 
ATOM     11  O   UNL     1      10.702  -1.774  22.282  0.00  0.00    -0.275 OA
ATOM     12  C   UNL     1       9.251  -2.657  24.178  0.00  0.00    +0.142 C 
ENDROOT
BRANCH   8  13
ATOM     13  C   UNL     1       7.493   0.985  22.399  0.00  0.00    +0.328 C 
ATOM     14  O   UNL     1       7.499   1.905  21.584  0.00  0.00    -0.249 OA
BRANCH  13  15
ATOM     15  O   UNL     1       6.330   0.372  22.688  0.00  0.00    -0.479 OA
ATOM     16  H   UNL     1       6.311  -0.454  23.225  0.00  0.00    +0.295 HD
ENDBRANCH  13  15
ENDBRANCH   8  13
TORSDOF 2
ENDMDL
MODEL 4
REMARK VINA RESULT:      -5.2      3.193      4.665
REMARK  Name = 
REMARK  4 active torsions:
REMARK  status: ('A' for Active; 'I' for Inactive)
REMARK    1  A    between atoms: C_7  and  C_9
REMARK    2  A    between atoms: C_9  and  O_10
REMARK    3  A    between atoms: C_12  and  C_13
REMARK    4  A    between atoms: C_12  and  C_14
REMARK                            x       y       z     vdW  Elec       q    Type
REMARK                         _______ _______ _______ _____ _____    ______ ____
ROOT
ATOM      1  C   UNL     1       8.549  -1.545  22.141  0.00  0.00    +0.229 C 
ATOM      2  S   UNL     1       9.069  -2.440  23.624  0.00  0.00    -0.004 S 
ATOM      3  O   UNL     1       8.125  -3.515  23.876  0.00  0.00    -0.172 OA
ATOM      4  O   UNL     1      10.494  -2.695  23.599  0.00  0.00    -0.172 OA
ATOM      5  C   UNL     1       8.692  -1.164  24.854  0.00  0.00    +0.113 C 
ATOM      6  C   UNL     1       9.915  -0.237  25.038  0.00  0.00    +0.038 C 
ATOM      7  C   UNL     1       8.407  -1.754  26.242  0.00  0.00    +0.038 C 
ATOM      8  C   UNL     1       7.503  -0.458  24.173  0.00  0.00    +0.213 C 
ATOM      9  N   UNL     1       7.811  -0.401  22.736  0.00  0.00    -0.263 N 
ATOM     10  C   UNL     1       8.682   0.537  22.248  0.00  0.00    +0.221 C 
ATOM     11  O   UNL     1       8.850   1.686  22.569  0.00  0.00    -0.275 OA
ATOM     12  C   UNL     1       9.488  -0.529  21.487  0.00  0.00    +0.142 C 
ENDROOT
BRANCH   8  13
ATOM     13  C   UNL     1       6.076  -1.036  24.249  0.00  0.00    +0.328 C 
ATOM     14  O   UNL     1       5.257  -0.608  25.058  0.00  0.00    -0.249 OA
BRANCH  13  15
ATOM     15  O   UNL     1       5.684  -1.945  23.336  0.00  0.00    -0.479 OA
ATOM     16  H   UNL     1       5.061  -2.670  23.576  0.00  0.00    +0.295 HD
ENDBRANCH  13  15
ENDBRANCH   8  13
TORSDOF 2
ENDMDL
MODEL 5
REMARK VINA RESULT:      -5.2      3.979      5.419
REMARK  Name = 
REMARK  4 active torsions:
REMARK  status: ('A' for Active; 'I' for Inactive)
REMARK    1  A    between atoms: C_7  and  C_9
REMARK    2  A    between atoms: C_9  and  O_10
REMARK    3  A    between atoms: C_12  and  C_13
REMARK    4  A    between atoms: C_12  and  C_14
REMARK                            x       y       z     vdW  Elec       q    Type
REMARK                         _______ _______ _______ _____ _____    ______ ____
ROOT
ATOM      1  C   UNL     1       9.871   0.152  22.306  0.00  0.00    +0.229 C 
ATOM      2  S   UNL     1      10.028  -0.309  24.048  0.00  0.00    -0.004 S 
ATOM      3  O   UNL     1      10.105  -1.757  24.143  0.00  0.00    -0.172 OA
ATOM      4  O   UNL     1      10.998   0.531  24.719  0.00  0.00    -0.172 OA
ATOM      5  C   UNL     1       8.355   0.124  24.593  0.00  0.00    +0.113 C 
ATOM      6  C   UNL     1       8.315   1.605  25.034  0.00  0.00    +0.038 C 
ATOM      7  C   UNL     1       7.910  -0.685  25.818  0.00  0.00    +0.038 C 
ATOM      8  C   UNL     1       7.560  -0.135  23.298  0.00  0.00    +0.213 C 
ATOM      9  N   UNL     1       8.402   0.330  22.184  0.00  0.00    -0.263 N 
ATOM     10  C   UNL     1       8.492   1.665  21.892  0.00  0.00    +0.221 C 
ATOM     11  O   UNL     1       7.653   2.530  21.929  0.00  0.00    -0.275 OA
ATOM     12  C   UNL     1      10.028   1.613  21.881  0.00  0.00    +0.142 C 
ENDROOT
BRANCH   8  13
ATOM     13  C   UNL     1       7.124  -1.558  22.896  0.00  0.00    +0.328 C 
ATOM     14  O   UNL     1       6.015  -1.994  23.196  0.00  0.00    -0.249 OA
BRANCH  13  15
ATOM     15  O   UNL     1       7.927  -2.294  22.104  0.00  0.00    -0.479 OA
ATOM     16  H   UNL     1       8.850  -2.007  21.910  0.00  0.00    +0.295 HD
ENDBRANCH  13  15
ENDBRANCH   8  13
TORSDOF 2
ENDMDL
MODEL 6
REMARK VINA RESULT:      -5.2      1.907      2.785
REMARK  Name = 
REMARK  4 active torsions:
REMARK  status: ('A' for Active; 'I' for Inactive)
REMARK    1  A    between atoms: C_7  and  C_9
REMARK    2  A    between atoms: C_9  and  O_10
REMARK    3  A    between atoms: C_12  and  C_13
REMARK    4  A    between atoms: C_12  and  C_14
REMARK                            x       y       z     vdW  Elec       q    Type
REMARK                         _______ _______ _______ _____ _____    ______ ____
ROOT
ATOM      1  C   UNL     1       7.113  -3.026  23.375  0.00  0.00    +0.229 C 
ATOM      2  S   UNL     1       6.568  -3.135  25.096  0.00  0.00    -0.004 S 
ATOM      3  O   UNL     1       7.533  -2.445  25.937  0.00  0.00    -0.172 OA
ATOM      4  O   UNL     1       5.152  -2.853  25.208  0.00  0.00    -0.172 OA
ATOM      5  C   UNL     1       6.867  -4.901  25.362  0.00  0.00    +0.113 C 
ATOM      6  C   UNL     1       5.614  -5.711  24.960  0.00  0.00    +0.038 C 
ATOM      7  C   UNL     1       7.122  -5.237  26.838  0.00  0.00    +0.038 C 
ATOM      8  C   UNL     1       8.059  -5.132  24.411  0.00  0.00    +0.213 C 
ATOM      9  N   UNL     1       7.798  -4.332  23.204  0.00  0.00    -0.263 N 
ATOM     10  C   UNL     1       6.918  -4.776  22.253  0.00  0.00    +0.221 C 
ATOM     11  O   UNL     1       6.709  -5.891  21.845  0.00  0.00    -0.275 OA
ATOM     12  C   UNL     1       6.169  -3.434  22.243  0.00  0.00    +0.142 C 
ENDROOT
BRANCH   8  13
ATOM     13  C   UNL     1       9.498  -4.766  24.825  0.00  0.00    +0.328 C 
ATOM     14  O   UNL     1      10.055  -3.765  24.381  0.00  0.00    -0.249 OA
BRANCH  13  15
ATOM     15  O   UNL     1      10.113  -5.492  25.778  0.00  0.00    -0.479 OA
ATOM     16  H   UNL     1      10.064  -6.476  25.778  0.00  0.00    +0.295 HD
ENDBRANCH  13  15
ENDBRANCH   8  13
TORSDOF 2
ENDMDL
MODEL 7
REMARK VINA RESULT:      -5.1      3.999      5.914
REMARK  Name = 
REMARK  4 active torsions:
REMARK  status: ('A' for Active; 'I' for Inactive)
REMARK    1  A    between atoms: C_7  and  C_9
REMARK    2  A    between atoms: C_9  and  O_10
REMARK    3  A    between atoms: C_12  and  C_13
REMARK    4  A    between atoms: C_12  and  C_14
REMARK                            x       y       z     vdW  Elec       q    Type
REMARK                         _______ _______ _______ _____ _____    ______ ____
ROOT
ATOM      1  C   UNL     1       6.666   0.189  24.056  0.00  0.00    +0.229 C 
ATOM      2  S   UNL     1       8.060   0.733  25.072  0.00  0.00    -0.004 S 
ATOM      3  O   UNL     1       8.155   2.182  24.996  0.00  0.00    -0.172 OA
ATOM      4  O   UNL     1       8.062   0.056  26.352  0.00  0.00    -0.172 OA
ATOM      5  C   UNL     1       9.408   0.103  24.039  0.00  0.00    +0.113 C 
ATOM      6  C   UNL     1       9.740  -1.352  24.442  0.00  0.00    +0.038 C 
ATOM      7  C   UNL     1      10.710   0.893  24.229  0.00  0.00    +0.038 C 
ATOM      8  C   UNL     1       8.764   0.205  22.642  0.00  0.00    +0.213 C 
ATOM      9  N   UNL     1       7.355  -0.188  22.796  0.00  0.00    -0.263 N 
ATOM     10  C   UNL     1       7.007  -1.509  22.889  0.00  0.00    +0.221 C 
ATOM     11  O   UNL     1       7.459  -2.475  22.328  0.00  0.00    -0.275 OA
ATOM     12  C   UNL     1       6.165  -1.254  24.149  0.00  0.00    +0.142 C 
ENDROOT
BRANCH   8  13
ATOM     13  C   UNL     1       8.721   1.540  21.874  0.00  0.00    +0.328 C 
ATOM     14  O   UNL     1       7.673   2.166  21.739  0.00  0.00    -0.249 OA
BRANCH  13  15
ATOM     15  O   UNL     1       9.873   2.089  21.443  0.00  0.00    -0.479 OA
ATOM     16  H   UNL     1      10.534   2.449  22.080  0.00  0.00    +0.295 HD
ENDBRANCH  13  15
ENDBRANCH   8  13
TORSDOF 2
ENDMDL
MODEL 8
REMARK VINA RESULT:      -5.1      2.313      4.005
REMARK  Name = 
REMARK  4 active torsions:
REMARK  status: ('A' for Active; 'I' for Inactive)
REMARK    1  A    between atoms: C_7  and  C_9
REMARK    2  A    between atoms: C_9  and  O_10
REMARK    3  A    between atoms: C_12  and  C_13
REMARK    4  A    between atoms: C_12  and  C_14
REMARK                            x       y       z     vdW  Elec       q    Type
REMARK                         _______ _______ _______ _____ _____    ______ ____
ROOT
ATOM      1  C   UNL     1       8.748  -3.698  24.080  0.00  0.00    +0.229 C 
ATOM      2  S   UNL     1       7.204  -3.886  25.004  0.00  0.00    -0.004 S 
ATOM      3  O   UNL     1       6.830  -5.291  25.007  0.00  0.00    -0.172 OA
ATOM      4  O   UNL     1       7.244  -3.126  26.236  0.00  0.00    -0.172 OA
ATOM      5  C   UNL     1       6.086  -3.088  23.823  0.00  0.00    +0.113 C 
ATOM      6  C   UNL     1       6.019  -1.571  24.108  0.00  0.00    +0.038 C 
ATOM      7  C   UNL     1       4.643  -3.596  23.948  0.00  0.00    +0.038 C 
ATOM      8  C   UNL     1       6.796  -3.417  22.495  0.00  0.00    +0.213 C 
ATOM      9  N   UNL     1       8.240  -3.293  22.745  0.00  0.00    -0.263 N 
ATOM     10  C   UNL     1       8.834  -2.060  22.788  0.00  0.00    +0.221 C 
ATOM     11  O   UNL     1       8.624  -1.070  22.134  0.00  0.00    -0.275 OA
ATOM     12  C   UNL     1       9.516  -2.376  24.128  0.00  0.00    +0.142 C 
ENDROOT
BRANCH   8  13
ATOM     13  C   UNL     1       6.628  -4.790  21.815  0.00  0.00    +0.328 C 
ATOM     14  O   UNL     1       5.849  -4.948  20.879  0.00  0.00    -0.249 OA
BRANCH  13  15
ATOM     15  O   UNL     1       7.435  -5.807  22.176  0.00  0.00    -0.479 OA
ATOM     16  H   UNL     1       8.353  -5.638  22.491  0.00  0.00    +0.295 HD
ENDBRANCH  13  15
ENDBRANCH   8  13
TORSDOF 2
ENDMDL
MODEL 9
REMARK VINA RESULT:      -5.1      2.019      3.686
REMARK  Name = 
REMARK  4 active torsions:
REMARK  status: ('A' for Active; 'I' for Inactive)
REMARK    1  A    between atoms: C_7  and  C_9
REMARK    2  A    between atoms: C_9  and  O_10
REMARK    3  A    between atoms: C_12  and  C_13
REMARK    4  A    between atoms: C_12  and  C_14
REMARK                            x       y       z     vdW  Elec       q    Type
REMARK                         _______ _______ _______ _____ _____    ______ ____
ROOT
ATOM      1  C   UNL     1       7.367  -2.157  25.791  0.00  0.00    +0.229 C 
ATOM      2  S   UNL     1       6.459  -3.329  24.755  0.00  0.00    -0.004 S 
ATOM      3  O   UNL     1       6.128  -4.498  25.554  0.00  0.00    -0.172 OA
ATOM      4  O   UNL     1       5.445  -2.652  23.975  0.00  0.00    -0.172 OA
ATOM      5  C   UNL     1       7.821  -3.847  23.678  0.00  0.00    +0.113 C 
ATOM      6  C   UNL     1       7.910  -2.905  22.456  0.00  0.00    +0.038 C 
ATOM      7  C   UNL     1       7.610  -5.254  23.102  0.00  0.00    +0.038 C 
ATOM      8  C   UNL     1       9.016  -3.693  24.640  0.00  0.00    +0.213 C 
ATOM      9  N   UNL     1       8.771  -2.475  25.427  0.00  0.00    -0.263 N 
ATOM     10  C   UNL     1       9.012  -1.239  24.888  0.00  0.00    +0.221 C 
ATOM     11  O   UNL     1       9.889  -0.868  24.150  0.00  0.00    -0.275 OA
ATOM     12  C   UNL     1       7.620  -0.731  25.296  0.00  0.00    +0.142 C 
ENDROOT
BRANCH   8  13
ATOM     13  C   UNL     1       9.351  -4.778  25.683  0.00  0.00    +0.328 C 
ATOM     14  O   UNL     1       9.007  -4.662  26.857  0.00  0.00    -0.249 OA
BRANCH  13  15
ATOM     15  O   UNL     1       9.928  -5.925  25.278  0.00  0.00    -0.479 OA
ATOM     16  H   UNL     1      10.909  -6.012  25.233  0.00  0.00    +0.295 HD
ENDBRANCH  13  15
ENDBRANCH   8  13
TORSDOF 2
ENDMDL
