MODEL 1
REMARK VINA RESULT:      -6.0      0.000      0.000
REMARK  Name = 
REMARK  4 active torsions:
REMARK  status: ('A' for Active; 'I' for Inactive)
REMARK    1  A    between atoms: N1_6  and  C1*_9
REMARK    2  A    between atoms: C3*_12  and  O3*_14
REMARK    3  A    between atoms: C4*_15  and  C5*_17
REMARK    4  A    between atoms: C5*_17  and  O5*_18
REMARK                            x       y       z     vdW  Elec       q    Type
REMARK                         _______ _______ _______ _____ _____    ______ ____
ROOT
ATOM      1  N4    C A   1      10.223   2.223  21.502  0.00  0.00    -0.343 N 
ATOM      2  H41   C A   1      10.498   2.089  20.537  0.00  0.00    +0.144 HD
ATOM      3  H42   C A   1      10.819   2.873  22.006  0.00  0.00    +0.144 HD
ATOM      4  C4    C A   1       9.927   1.110  22.238  0.00  0.00    +0.123 A 
ATOM      5  C5    C A   1       9.384  -0.088  21.569  0.00  0.00    +0.061 A 
ATOM      6  C6    C A   1       9.175  -1.145  22.350  0.00  0.00    +0.096 A 
ATOM      7  N1    C A   1       9.426  -1.093  23.705  0.00  0.00    -0.273 N 
ATOM      8  C2    C A   1       9.863   0.089  24.312  0.00  0.00    +0.352 A 
ATOM      9  O2    C A   1       9.981   0.169  25.533  0.00  0.00    -0.244 OA
ATOM     10  N3    C A   1      10.153   1.172  23.512  0.00  0.00    -0.178 NA
ENDROOT
BRANCH   7  11
ATOM     11  C1*   C A   1       9.062  -2.194  24.582  0.00  0.00    +0.226 C 
ATOM     12  O4*   C A   1       9.607  -3.442  24.101  0.00  0.00    -0.348 OA
ATOM     13  C4*   C A   1       8.658  -4.489  24.417  0.00  0.00    +0.175 C 
ATOM     14  C3*   C A   1       7.473  -3.833  25.129  0.00  0.00    +0.150 C 
ATOM     15  C2*   C A   1       7.559  -2.398  24.670  0.00  0.00    +0.088 C 
BRANCH  14  16
ATOM     16  O3*   C A   1       6.231  -4.427  24.778  0.00  0.00    -0.389 OA
ATOM     17  H3*   C A   1       5.834  -4.826  25.572  0.00  0.00    +0.210 HD
ENDBRANCH  14  16
BRANCH  13  18
ATOM     18  C5*   C A   1       9.334  -5.565  25.271  0.00  0.00    +0.190 C 
BRANCH  18  19
ATOM     19  O5*   C A   1       8.519  -5.924  26.384  0.00  0.00    -0.392 OA
ATOM     20  H5*   C A   1       7.679  -6.258  26.019  0.00  0.00    +0.210 HD
ENDBRANCH  18  19
ENDBRANCH  13  18
ENDBRANCH   7  11
TORSDOF 4
ENDMDL
MODEL 2
REMARK VINA RESULT:      -5.9      1.772      2.366
REMARK  Name = 
REMARK  4 active torsions:
REMARK  status: ('A' for Active; 'I' for Inactive)
REMARK    1  A    between atoms: N1_6  and  C1*_9
REMARK    2  A    between atoms: C3*_12  and  O3*_14
REMARK    3  A    between atoms: C4*_15  and  C5*_17
REMARK    4  A    between atoms: C5*_17  and  O5*_18
REMARK                            x       y       z     vdW  Elec       q    Type
REMARK                         _______ _______ _______ _____ _____    ______ ____
ROOT
ATOM      1  N4    C A   1       9.941   2.941  23.084  0.00  0.00    -0.343 N 
ATOM      2  H41   C A   1      10.554   3.474  23.689  0.00  0.00    +0.144 HD
ATOM      3  H42   C A   1       9.126   3.463  22.773  0.00  0.00    +0.144 HD
ATOM      4  C4    C A   1       9.628   1.665  23.462  0.00  0.00    +0.123 A 
ATOM      5  C5    C A   1      10.589   0.883  24.263  0.00  0.00    +0.061 A 
ATOM      6  C6    C A   1      10.184  -0.330  24.634  0.00  0.00    +0.096 A 
ATOM      7  N1    C A   1       8.951  -0.819  24.254  0.00  0.00    -0.273 N 
ATOM      8  C2    C A   1       8.106  -0.075  23.424  0.00  0.00    +0.352 A 
ATOM      9  O2    C A   1       7.057  -0.552  22.995  0.00  0.00    -0.244 OA
ATOM     10  N3    C A   1       8.475   1.209  23.088  0.00  0.00    -0.178 NA
ENDROOT
BRANCH   7  11
ATOM     11  C1*   C A   1       8.567  -2.193  24.532  0.00  0.00    +0.226 C 
ATOM     12  O4*   C A   1       8.347  -2.394  25.945  0.00  0.00    -0.348 OA
ATOM     13  C4*   C A   1       8.772  -3.738  26.271  0.00  0.00    +0.175 C 
ATOM     14  C3*   C A   1       9.279  -4.384  24.979  0.00  0.00    +0.150 C 
ATOM     15  C2*   C A   1       9.637  -3.192  24.127  0.00  0.00    +0.088 C 
BRANCH  14  16
ATOM     16  O3*   C A   1      10.397  -5.234  25.199  0.00  0.00    -0.389 OA
ATOM     17  H3*   C A   1      10.496  -5.388  26.154  0.00  0.00    +0.210 HD
ENDBRANCH  14  16
BRANCH  13  18
ATOM     18  C5*   C A   1       7.612  -4.514  26.901  0.00  0.00    +0.190 C 
BRANCH  18  19
ATOM     19  O5*   C A   1       7.986  -5.863  27.175  0.00  0.00    -0.392 OA
ATOM     20  H5*   C A   1       7.426  -6.427  26.611  0.00  0.00    +0.210 HD
ENDBRANCH  18  19
ENDBRANCH  13  18
ENDBRANCH   7  11
TORSDOF 4
ENDMDL
MODEL 3
REMARK VINA RESULT:      -5.8      1.894      2.024
REMARK  Name = 
REMARK  4 active torsions:
REMARK  status: ('A' for Active; 'I' for Inactive)
REMARK    1  A    between atoms: N1_6  and  C1*_9
REMARK    2  A    between atoms: C3*_12  and  O3*_14
REMARK    3  A    between atoms: C4*_15  and  C5*_17
REMARK    4  A    between atoms: C5*_17  and  O5*_18
REMARK                            x       y       z     vdW  Elec       q    Type
REMARK                         _______ _______ _______ _____ _____    ______ ____
ROOT
ATOM      1  N4    C A   1       9.633   2.083  21.510  0.00  0.00    -0.343 N 
ATOM      2  H41   C A   1      10.631   2.130  21.347  0.00  0.00    +0.144 HD
ATOM      3  H42   C A   1       9.268   2.883  22.018  0.00  0.00    +0.144 HD
ATOM      4  C4    C A   1       9.118   0.900  21.961  0.00  0.00    +0.123 A 
ATOM      5  C5    C A   1       9.777  -0.370  21.602  0.00  0.00    +0.061 A 
ATOM      6  C6    C A   1       9.243  -1.471  22.128  0.00  0.00    +0.096 A 
ATOM      7  N1    C A   1       8.123  -1.408  22.930  0.00  0.00    -0.273 N 
ATOM      8  C2    C A   1       7.481  -0.190  23.177  0.00  0.00    +0.352 A 
ATOM      9  O2    C A   1       6.421  -0.147  23.799  0.00  0.00    -0.244 OA
ATOM     10  N3    C A   1       8.057   0.967  22.702  0.00  0.00    -0.178 NA
ENDROOT
BRANCH   7  11
ATOM     11  C1*   C A   1       7.452  -2.616  23.384  0.00  0.00    +0.226 C 
ATOM     12  O4*   C A   1       8.190  -3.247  24.453  0.00  0.00    -0.348 OA
ATOM     13  C4*   C A   1       8.028  -4.679  24.316  0.00  0.00    +0.175 C 
ATOM     14  C3*   C A   1       7.143  -4.924  23.091  0.00  0.00    +0.150 C 
ATOM     15  C2*   C A   1       7.325  -3.660  22.288  0.00  0.00    +0.088 C 
BRANCH  14  16
ATOM     16  O3*   C A   1       7.534  -6.078  22.360  0.00  0.00    -0.389 OA
ATOM     17  H3*   C A   1       7.392  -5.915  21.411  0.00  0.00    +0.210 HD
ENDBRANCH  14  16
BRANCH  13  18
ATOM     18  C5*   C A   1       7.431  -5.262  25.599  0.00  0.00    +0.190 C 
BRANCH  18  19
ATOM     19  O5*   C A   1       8.445  -5.835  26.422  0.00  0.00    -0.392 OA
ATOM     20  H5*   C A   1       9.257  -5.320  26.265  0.00  0.00    +0.210 HD
ENDBRANCH  18  19
ENDBRANCH  13  18
ENDBRANCH   7  11
TORSDOF 4
ENDMDL
MODEL 4
REMARK VINA RESULT:      -5.7      2.693      5.846
REMARK  Name = 
REMARK  4 active torsions:
REMARK  status: ('A' for Active; 'I' for Inactive)
REMARK    1  A    between atoms: N1_6  and  C1*_9
REMARK    2  A    between atoms: C3*_12  and  O3*_14
REMARK    3  A    between atoms: C4*_15  and  C5*_17
REMARK    4  A    between atoms: C5*_17  and  O5*_18
REMARK                            x       y       z     vdW  Elec       q    Type
REMARK                         _______ _______ _______ _____ _____    ______ ____
ROOT
ATOM      1  N4    C A   1       8.011  -5.850  27.091  0.00  0.00    -0.343 N 
ATOM      2  H41   C A   1       8.253  -6.712  26.617  0.00  0.00    +0.144 HD
ATOM      3  H42   C A   1       7.114  -5.888  27.565  0.00  0.00    +0.144 HD
ATOM      4  C4    C A   1       8.192  -4.679  26.411  0.00  0.00    +0.123 A 
ATOM      5  C5    C A   1       9.251  -4.581  25.389  0.00  0.00    +0.061 A 
ATOM      6  C6    C A   1       9.324  -3.423  24.736  0.00  0.00    +0.096 A 
ATOM      7  N1    C A   1       8.472  -2.380  25.034  0.00  0.00    -0.273 N 
ATOM      8  C2    C A   1       7.536  -2.488  26.069  0.00  0.00    +0.352 A 
ATOM      9  O2    C A   1       6.854  -1.523  26.408  0.00  0.00    -0.244 OA
ATOM     10  N3    C A   1       7.397  -3.699  26.708  0.00  0.00    -0.178 NA
ENDROOT
BRANCH   7  11
ATOM     11  C1*   C A   1       8.644  -1.070  24.428  0.00  0.00    +0.226 C 
ATOM     12  O4*   C A   1       9.091  -1.186  23.060  0.00  0.00    -0.348 OA
ATOM     13  C4*   C A   1       9.975  -0.073  22.788  0.00  0.00    +0.175 C 
ATOM     14  C3*   C A   1      10.066   0.762  24.067  0.00  0.00    +0.150 C 
ATOM     15  C2*   C A   1       9.688  -0.229  25.141  0.00  0.00    +0.088 C 
BRANCH  14  16
ATOM     16  O3*   C A   1      11.366   1.298  24.275  0.00  0.00    -0.389 OA
ATOM     17  H3*   C A   1      11.451   1.570  25.205  0.00  0.00    +0.210 HD
ENDBRANCH  14  16
BRANCH  13  18
ATOM     18  C5*   C A   1       9.449   0.732  21.597  0.00  0.00    +0.190 C 
BRANCH  18  19
ATOM     19  O5*   C A   1      10.011   2.042  21.575  0.00  0.00    -0.392 OA
ATOM     20  H5*   C A   1      10.050   2.344  22.501  0.00  0.00    +0.210 HD
ENDBRANCH  18  19
ENDBRANCH  13  18
ENDBRANCH   7  11
TORSDOF 4
ENDMDL
MODEL 5
REMARK VINA RESULT:      -5.6      2.839      5.600
REMARK  Name = 
REMARK  4 active torsions:
REMARK  status: ('A' for Active; 'I' for Inactive)
REMARK    1  A    between atoms: N1_6  and  C1*_9
REMARK    2  A    between atoms: C3*_12  and  O3*_14
REMARK    3  A    between atoms: C4*_15  and  C5*_17
REMARK    4  A    between atoms: C5*_17  and  O5*_18
REMARK                            x       y       z     vdW  Elec       q    Type
REMARK                         _______ _______ _______ _____ _____    ______ ____
ROOT
ATOM      1  N4    C A   1       5.845  -6.318  22.396  0.00  0.00    -0.343 N 
ATOM      2  H41   C A   1       4.868  -6.213  22.153  0.00  0.00    +0.144 HD
ATOM      3  H42   C A   1       6.010  -7.014  23.119  0.00  0.00    +0.144 HD
ATOM      4  C4    C A   1       6.577  -5.181  22.592  0.00  0.00    +0.123 A 
ATOM      5  C5    C A   1       6.218  -3.946  21.870  0.00  0.00    +0.061 A 
ATOM      6  C6    C A   1       6.948  -2.870  22.159  0.00  0.00    +0.096 A 
ATOM      7  N1    C A   1       7.992  -2.936  23.058  0.00  0.00    -0.273 N 
ATOM      8  C2    C A   1       8.350  -4.148  23.658  0.00  0.00    +0.352 A 
ATOM      9  O2    C A   1       9.347  -4.231  24.373  0.00  0.00    -0.244 OA
ATOM     10  N3    C A   1       7.565  -5.255  23.427  0.00  0.00    -0.178 NA
ENDROOT
BRANCH   7  11
ATOM     11  C1*   C A   1       8.880  -1.804  23.265  0.00  0.00    +0.226 C 
ATOM     12  O4*   C A   1       8.232  -0.772  24.039  0.00  0.00    -0.348 OA
ATOM     13  C4*   C A   1       8.713   0.507  23.561  0.00  0.00    +0.175 C 
ATOM     14  C3*   C A   1       9.708   0.227  22.432  0.00  0.00    +0.150 C 
ATOM     15  C2*   C A   1       9.305  -1.149  21.963  0.00  0.00    +0.088 C 
BRANCH  14  16
ATOM     16  O3*   C A   1       9.628   1.187  21.387  0.00  0.00    -0.389 OA
ATOM     17  H3*   C A   1       9.389   0.736  20.559  0.00  0.00    +0.210 HD
ENDBRANCH  14  16
BRANCH  13  18
ATOM     18  C5*   C A   1       9.339   1.294  24.714  0.00  0.00    +0.190 C 
BRANCH  18  19
ATOM     19  O5*   C A   1      10.587   0.727  25.105  0.00  0.00    -0.392 OA
ATOM     20  H5*   C A   1      10.606   0.739  26.080  0.00  0.00    +0.210 HD
ENDBRANCH  18  19
ENDBRANCH  13  18
ENDBRANCH   7  11
TORSDOF 4
ENDMDL
MODEL 6
REMARK VINA RESULT:      -5.6      2.085      2.561
REMARK  Name = 
REMARK  4 active torsions:
REMARK  status: ('A' for Active; 'I' for Inactive)
REMARK    1  A    between atoms: N1_6  and  C1*_9
REMARK    2  A    between atoms: C3*_12  and  O3*_14
REMARK    3  A    between atoms: C4*_15  and  C5*_17
REMARK    4  A    between atoms: C5*_17  and  O5*_18
REMARK                            x       y       z     vdW  Elec       q    Type
REMARK                         _______ _______ _______ _____ _____    ______ ____
ROOT
ATOM      1  N4    C A   1       9.211   2.415  21.841  0.00  0.00    -0.343 N 
ATOM      2  H41   C A   1       8.439   2.988  21.521  0.00  0.00    +0.144 HD
ATOM      3  H42   C A   1      10.054   2.525  21.285  0.00  0.00    +0.144 HD
ATOM      4  C4    C A   1       8.950   1.107  22.138  0.00  0.00    +0.123 A 
ATOM      5  C5    C A   1       7.611   0.718  22.619  0.00  0.00    +0.061 A 
ATOM      6  C6    C A   1       7.425  -0.583  22.833  0.00  0.00    +0.096 A 
ATOM      7  N1    C A   1       8.446  -1.491  22.642  0.00  0.00    -0.273 N 
ATOM      8  C2    C A   1       9.725  -1.068  22.264  0.00  0.00    +0.352 A 
ATOM      9  O2    C A   1      10.661  -1.862  22.201  0.00  0.00    -0.244 OA
ATOM     10  N3    C A   1       9.918   0.263  21.970  0.00  0.00    -0.178 NA
ENDROOT
BRANCH   7  11
ATOM     11  C1*   C A   1       8.291  -2.888  23.014  0.00  0.00    +0.226 C 
ATOM     12  O4*   C A   1       7.450  -3.585  22.070  0.00  0.00    -0.348 OA
ATOM     13  C4*   C A   1       6.692  -4.577  22.803  0.00  0.00    +0.175 C 
ATOM     14  C3*   C A   1       7.100  -4.469  24.274  0.00  0.00    +0.150 C 
ATOM     15  C2*   C A   1       7.632  -3.061  24.371  0.00  0.00    +0.088 C 
BRANCH  14  16
ATOM     16  O3*   C A   1       6.008  -4.685  25.158  0.00  0.00    -0.389 OA
ATOM     17  H3*   C A   1       5.340  -5.232  24.709  0.00  0.00    +0.210 HD
ENDBRANCH  14  16
BRANCH  13  18
ATOM     18  C5*   C A   1       6.953  -5.968  22.221  0.00  0.00    +0.190 C 
BRANCH  18  19
ATOM     19  O5*   C A   1       5.827  -6.436  21.482  0.00  0.00    -0.392 OA
ATOM     20  H5*   C A   1       6.044  -7.338  21.184  0.00  0.00    +0.210 HD
ENDBRANCH  18  19
ENDBRANCH  13  18
ENDBRANCH   7  11
TORSDOF 4
ENDMDL
MODEL 7
REMARK VINA RESULT:      -5.5      2.778      5.767
REMARK  Name = 
REMARK  4 active torsions:
REMARK  status: ('A' for Active; 'I' for Inactive)
REMARK    1  A    between atoms: N1_6  and  C1*_9
REMARK    2  A    between atoms: C3*_12  and  O3*_14
REMARK    3  A    between atoms: C4*_15  and  C5*_17
REMARK    4  A    between atoms: C5*_17  and  O5*_18
REMARK                            x       y       z     vdW  Elec       q    Type
REMARK                         _______ _______ _______ _____ _____    ______ ____
ROOT
ATOM      1  N4    C A   1       8.090  -5.649  27.010  0.00  0.00    -0.343 N 
ATOM      2  H41   C A   1       7.525  -5.577  27.847  0.00  0.00    +0.144 HD
ATOM      3  H42   C A   1       9.016  -6.033  27.178  0.00  0.00    +0.144 HD
ATOM      4  C4    C A   1       8.118  -4.573  26.168  0.00  0.00    +0.123 A 
ATOM      5  C5    C A   1       6.950  -3.676  26.087  0.00  0.00    +0.061 A 
ATOM      6  C6    C A   1       7.081  -2.622  25.284  0.00  0.00    +0.096 A 
ATOM      7  N1    C A   1       8.235  -2.418  24.556  0.00  0.00    -0.273 N 
ATOM      8  C2    C A   1       9.287  -3.339  24.600  0.00  0.00    +0.352 A 
ATOM      9  O2    C A   1      10.268  -3.216  23.870  0.00  0.00    -0.244 OA
ATOM     10  N3    C A   1       9.200  -4.397  25.478  0.00  0.00    -0.178 NA
ENDROOT
BRANCH   7  11
ATOM     11  C1*   C A   1       8.325  -1.353  23.570  0.00  0.00    +0.226 C 
ATOM     12  O4*   C A   1       9.026  -0.209  24.106  0.00  0.00    -0.348 OA
ATOM     13  C4*   C A   1       8.431   0.980  23.535  0.00  0.00    +0.175 C 
ATOM     14  C3*   C A   1       7.305   0.526  22.603  0.00  0.00    +0.150 C 
ATOM     15  C2*   C A   1       6.963  -0.844  23.134  0.00  0.00    +0.088 C 
BRANCH  14  16
ATOM     16  O3*   C A   1       6.187   1.401  22.635  0.00  0.00    -0.389 OA
ATOM     17  H3*   C A   1       6.328   2.073  23.325  0.00  0.00    +0.210 HD
ENDBRANCH  14  16
BRANCH  13  18
ATOM     18  C5*   C A   1       9.500   1.802  22.810  0.00  0.00    +0.190 C 
BRANCH  18  19
ATOM     19  O5*   C A   1       9.033   2.240  21.536  0.00  0.00    -0.392 OA
ATOM     20  H5*   C A   1       8.218   1.739  21.350  0.00  0.00    +0.210 HD
ENDBRANCH  18  19
ENDBRANCH  13  18
ENDBRANCH   7  11
TORSDOF 4
ENDMDL
MODEL 8
REMARK VINA RESULT:      -5.4      3.027      5.915
REMARK  Name = 
REMARK  4 active torsions:
REMARK  status: ('A' for Active; 'I' for Inactive)
REMARK    1  A    between atoms: N1_6  and  C1*_9
REMARK    2  A    between atoms: C3*_12  and  O3*_14
REMARK    3  A    between atoms: C4*_15  and  C5*_17
REMARK    4  A    between atoms: C5*_17  and  O5*_18
REMARK                            x       y       z     vdW  Elec       q    Type
REMARK                         _______ _______ _______ _____ _____    ______ ____
ROOT
ATOM      1  N4    C A   1       5.301  -6.738  26.364  0.00  0.00    -0.343 N 
ATOM      2  H41   C A   1       4.310  -6.606  26.203  0.00  0.00    +0.144 HD
ATOM      3  H42   C A   1       5.515  -7.129  27.277  0.00  0.00    +0.144 HD
ATOM      4  C4    C A   1       6.141  -5.714  26.027  0.00  0.00    +0.123 A 
ATOM      5  C5    C A   1       5.779  -4.802  24.926  0.00  0.00    +0.061 A 
ATOM      6  C6    C A   1       6.625  -3.800  24.698  0.00  0.00    +0.096 A 
ATOM      7  N1    C A   1       7.782  -3.660  25.437  0.00  0.00    -0.273 N 
ATOM      8  C2    C A   1       8.128  -4.597  26.417  0.00  0.00    +0.352 A 
ATOM      9  O2    C A   1       9.209  -4.535  26.998  0.00  0.00    -0.244 OA
ATOM     10  N3    C A   1       7.233  -5.599  26.716  0.00  0.00    -0.178 NA
ENDROOT
BRANCH   7  11
ATOM     11  C1*   C A   1       8.777  -2.657  25.096  0.00  0.00    +0.226 C 
ATOM     12  O4*   C A   1       8.154  -1.391  24.788  0.00  0.00    -0.348 OA
ATOM     13  C4*   C A   1       8.939  -0.752  23.754  0.00  0.00    +0.175 C 
ATOM     14  C3*   C A   1      10.102  -1.689  23.418  0.00  0.00    +0.150 C 
ATOM     15  C2*   C A   1       9.590  -3.034  23.870  0.00  0.00    +0.088 C 
BRANCH  14  16
ATOM     16  O3*   C A   1      10.423  -1.682  22.034  0.00  0.00    -0.389 OA
ATOM     17  H3*   C A   1      10.295  -2.577  21.674  0.00  0.00    +0.210 HD
ENDBRANCH  14  16
BRANCH  13  18
ATOM     18  C5*   C A   1       9.410   0.623  24.231  0.00  0.00    +0.190 C 
BRANCH  18  19
ATOM     19  O5*   C A   1      10.411   0.502  25.239  0.00  0.00    -0.392 OA
ATOM     20  H5*   C A   1       9.948   0.522  26.096  0.00  0.00    +0.210 HD
ENDBRANCH  18  19
ENDBRANCH  13  18
ENDBRANCH   7  11
TORSDOF 4
ENDMDL
MODEL 9
REMARK VINA RESULT:      -5.4      1.824      2.633
REMARK  Name = 
REMARK  4 active torsions:
REMARK  status: ('A' for Active; 'I' for Inactive)
REMARK    1  A    between atoms: N1_6  and  C1*_9
REMARK    2  A    between atoms: C3*_12  and  O3*_14
REMARK    3  A    between atoms: C4*_15  and  C5*_17
REMARK    4  A    between atoms: C5*_17  and  O5*_18
REMARK                            x       y       z     vdW  Elec       q    Type
REMARK                         _______ _______ _______ _____ _____    ______ ____
ROOT
ATOM      1  N4    C A   1      10.884   3.463  23.066  0.00  0.00    -0.343 N 
ATOM      2  H41   C A   1      10.779   4.015  23.908  0.00  0.00    +0.144 HD
ATOM      3  H42   C A   1      10.590   3.949  22.223  0.00  0.00    +0.144 HD
ATOM      4  C4    C A   1      10.451   2.167  23.097  0.00  0.00    +0.123 A 
ATOM      5  C5    C A   1      10.469   1.420  24.369  0.00  0.00    +0.061 A 
ATOM      6  C6    C A   1       9.979   0.182  24.323  0.00  0.00    +0.096 A 
ATOM      7  N1    C A   1       9.518  -0.360  23.142  0.00  0.00    -0.273 N 
ATOM      8  C2    C A   1       9.597   0.355  21.942  0.00  0.00    +0.352 A 
ATOM      9  O2    C A   1       9.289  -0.167  20.872  0.00  0.00    -0.244 OA
ATOM     10  N3    C A   1      10.033   1.661  21.980  0.00  0.00    -0.178 NA
ENDROOT
BRANCH   7  11
ATOM     11  C1*   C A   1       9.121  -1.756  23.058  0.00  0.00    +0.226 C 
ATOM     12  O4*   C A   1       7.695  -1.900  23.236  0.00  0.00    -0.348 OA
ATOM     13  C4*   C A   1       7.462  -3.147  23.933  0.00  0.00    +0.175 C 
ATOM     14  C3*   C A   1       8.827  -3.790  24.190  0.00  0.00    +0.150 C 
ATOM     15  C2*   C A   1       9.768  -2.613  24.132  0.00  0.00    +0.088 C 
BRANCH  14  16
ATOM     16  O3*   C A   1       8.887  -4.455  25.444  0.00  0.00    -0.389 OA
ATOM     17  H3*   C A   1       9.768  -4.854  25.550  0.00  0.00    +0.210 HD
ENDBRANCH  14  16
BRANCH  13  18
ATOM     18  C5*   C A   1       6.537  -4.042  23.105  0.00  0.00    +0.190 C 
BRANCH  18  19
ATOM     19  O5*   C A   1       6.729  -5.418  23.428  0.00  0.00    -0.392 OA
ATOM     20  H5*   C A   1       6.274  -5.933  22.736  0.00  0.00    +0.210 HD
ENDBRANCH  18  19
ENDBRANCH  13  18
ENDBRANCH   7  11
TORSDOF 4
ENDMDL
