MODEL 1
REMARK VINA RESULT:      -7.3      0.000      0.000
REMARK  Name = 
REMARK  8 active torsions:
REMARK  status: ('A' for Active; 'I' for Inactive)
REMARK    1  A    between atoms: C_1  and  N_2
REMARK    2  A    between atoms: N_2  and  C_3
REMARK    3  A    between atoms: N_2  and  C_4
REMARK    4  A    between atoms: C_4  and  C_5
REMARK    5  A    between atoms: C_5  and  C_6
REMARK    6  A    between atoms: C_6  and  N_7
REMARK    7  A    between atoms: C_9  and  C_16
REMARK    8  A    between atoms: C_17  and  C_23
REMARK                            x       y       z     vdW  Elec       q    Type
REMARK                         _______ _______ _______ _____ _____    ______ ____
ROOT
ATOM      1  C   UNL     1       6.343  -3.976  23.646  0.00  0.00    +0.059 C 
ATOM      2  C   UNL     1       5.572  -4.098  22.394  0.00  0.00    +0.252 C 
ATOM      3  O   UNL     1       5.709  -3.440  21.380  0.00  0.00    -0.270 OA
ATOM      4  N   UNL     1       4.703  -5.108  22.566  0.00  0.00    -0.248 N 
ATOM      5  H   UNL     1       4.094  -5.461  21.848  0.00  0.00    +0.158 HD
ATOM      6  C   UNL     1       4.926  -5.732  23.740  0.00  0.00    +0.252 C 
ATOM      7  O   UNL     1       4.396  -6.778  24.072  0.00  0.00    -0.270 OA
ATOM      8  C   UNL     1       5.945  -4.949  24.492  0.00  0.00    +0.059 C 
ENDROOT
BRANCH   8   9
ATOM      9  C   UNL     1       6.399  -5.275  25.815  0.00  0.00    +0.013 A 
ATOM     10  C   UNL     1       5.640  -5.412  27.031  0.00  0.00    +0.008 A 
ATOM     11  C   UNL     1       4.294  -5.200  27.407  0.00  0.00    +0.010 A 
ATOM     12  C   UNL     1       3.858  -5.567  28.687  0.00  0.00    +0.001 A 
ATOM     13  C   UNL     1       4.739  -6.123  29.606  0.00  0.00    +0.002 A 
ATOM     14  C   UNL     1       6.089  -6.281  29.293  0.00  0.00    +0.026 A 
ATOM     15  C   UNL     1       6.509  -5.906  28.011  0.00  0.00    +0.047 A 
ATOM     16  N   UNL     1       7.764  -5.935  27.460  0.00  0.00    -0.360 N 
ATOM     17  H   UNL     1       8.602  -6.216  27.952  0.00  0.00    +0.165 HD
ATOM     18  C   UNL     1       7.709  -5.569  26.144  0.00  0.00    +0.092 A 
ENDBRANCH   8   9
BRANCH   1  26
ATOM     19  N   UNL     1       8.944  -1.549  23.427  0.00  0.00    -0.346 N 
ATOM     20  C   UNL     1       8.259  -0.994  24.490  0.00  0.00    +0.050 A 
ATOM     21  C   UNL     1       8.439   0.222  25.171  0.00  0.00    +0.026 A 
ATOM     22  C   UNL     1       7.573   0.530  26.226  0.00  0.00    +0.002 A 
ATOM     23  C   UNL     1       6.553  -0.343  26.582  0.00  0.00    +0.001 A 
ATOM     24  C   UNL     1       6.365  -1.547  25.886  0.00  0.00    +0.010 A 
ATOM     25  C   UNL     1       7.227  -1.880  24.822  0.00  0.00    +0.008 A 
ATOM     26  C   UNL     1       7.279  -2.940  23.869  0.00  0.00    +0.013 A 
ATOM     27  C   UNL     1       8.399  -2.761  23.092  0.00  0.00    +0.095 A 
BRANCH  19  28
ATOM     28  C   UNL     1      10.012  -0.914  22.677  0.00  0.00    +0.123 C 
BRANCH  28  29
ATOM     29  C   UNL     1       9.532   0.096  21.639  0.00  0.00    +0.037 C 
BRANCH  29  30
ATOM     30  C   UNL     1       9.887   1.544  21.994  0.00  0.00    +0.085 C 
BRANCH  30  32
ATOM     31  C   UNL     1       7.458   1.712  21.934  0.00  0.00    +0.104 C 
ATOM     32  N   UNL     1       8.723   2.443  22.011  0.00  0.00    -0.308 NA
ATOM     33  C   UNL     1       8.754   3.268  23.222  0.00  0.00    +0.104 C 
ENDBRANCH  30  32
ENDBRANCH  29  30
ENDBRANCH  28  29
ENDBRANCH  19  28
ENDBRANCH   1  26
TORSDOF 6
ENDMDL
MODEL 2
REMARK VINA RESULT:      -7.3      2.584      6.179
REMARK  Name = 
REMARK  8 active torsions:
REMARK  status: ('A' for Active; 'I' for Inactive)
REMARK    1  A    between atoms: C_1  and  N_2
REMARK    2  A    between atoms: N_2  and  C_3
REMARK    3  A    between atoms: N_2  and  C_4
REMARK    4  A    between atoms: C_4  and  C_5
REMARK    5  A    between atoms: C_5  and  C_6
REMARK    6  A    between atoms: C_6  and  N_7
REMARK    7  A    between atoms: C_9  and  C_16
REMARK    8  A    between atoms: C_17  and  C_23
REMARK                            x       y       z     vdW  Elec       q    Type
REMARK                         _______ _______ _______ _____ _____    ______ ____
ROOT
ATOM      1  C   UNL     1       7.329  -4.247  25.994  0.00  0.00    +0.059 C 
ATOM      2  C   UNL     1       7.906  -5.226  26.935  0.00  0.00    +0.252 C 
ATOM      3  O   UNL     1       7.332  -5.799  27.841  0.00  0.00    -0.270 OA
ATOM      4  N   UNL     1       9.190  -5.400  26.581  0.00  0.00    -0.248 N 
ATOM      5  H   UNL     1       9.810  -6.066  27.006  0.00  0.00    +0.158 HD
ATOM      6  C   UNL     1       9.460  -4.743  25.434  0.00  0.00    +0.252 C 
ATOM      7  O   UNL     1      10.495  -4.864  24.803  0.00  0.00    -0.270 OA
ATOM      8  C   UNL     1       8.271  -3.919  25.084  0.00  0.00    +0.059 C 
ENDROOT
BRANCH   8   9
ATOM      9  C   UNL     1       8.205  -3.035  23.954  0.00  0.00    +0.013 A 
ATOM     10  C   UNL     1       8.869  -1.775  23.744  0.00  0.00    +0.008 A 
ATOM     11  C   UNL     1       9.687  -0.925  24.522  0.00  0.00    +0.010 A 
ATOM     12  C   UNL     1      10.285   0.201  23.939  0.00  0.00    +0.001 A 
ATOM     13  C   UNL     1      10.067   0.508  22.601  0.00  0.00    +0.002 A 
ATOM     14  C   UNL     1       9.209  -0.269  21.822  0.00  0.00    +0.026 A 
ATOM     15  C   UNL     1       8.618  -1.387  22.422  0.00  0.00    +0.047 A 
ATOM     16  N   UNL     1       7.731  -2.293  21.897  0.00  0.00    -0.360 N 
ATOM     17  H   UNL     1       7.342  -2.243  20.965  0.00  0.00    +0.165 HD
ATOM     18  C   UNL     1       7.484  -3.288  22.801  0.00  0.00    +0.092 A 
ENDBRANCH   8   9
BRANCH   1  26
ATOM     19  N   UNL     1       4.427  -2.251  26.537  0.00  0.00    -0.346 N 
ATOM     20  C   UNL     1       3.826  -3.258  25.807  0.00  0.00    +0.050 A 
ATOM     21  C   UNL     1       2.521  -3.382  25.304  0.00  0.00    +0.026 A 
ATOM     22  C   UNL     1       2.191  -4.533  24.580  0.00  0.00    +0.002 A 
ATOM     23  C   UNL     1       3.140  -5.523  24.356  0.00  0.00    +0.001 A 
ATOM     24  C   UNL     1       4.448  -5.386  24.842  0.00  0.00    +0.010 A 
ATOM     25  C   UNL     1       4.802  -4.236  25.578  0.00  0.00    +0.008 A 
ATOM     26  C   UNL     1       6.017  -3.736  26.131  0.00  0.00    +0.013 A 
ATOM     27  C   UNL     1       5.734  -2.567  26.798  0.00  0.00    +0.095 A 
BRANCH  19  28
ATOM     28  C   UNL     1       3.823  -0.979  26.891  0.00  0.00    +0.123 C 
BRANCH  28  29
ATOM     29  C   UNL     1       4.828   0.117  27.231  0.00  0.00    +0.037 C 
BRANCH  29  30
ATOM     30  C   UNL     1       5.103   1.070  26.064  0.00  0.00    +0.085 C 
BRANCH  30  32
ATOM     31  C   UNL     1       6.349   1.045  23.971  0.00  0.00    +0.104 C 
ATOM     32  N   UNL     1       6.406   0.843  25.419  0.00  0.00    -0.308 NA
ATOM     33  C   UNL     1       7.411   1.730  26.011  0.00  0.00    +0.104 C 
ENDBRANCH  30  32
ENDBRANCH  29  30
ENDBRANCH  28  29
ENDBRANCH  19  28
ENDBRANCH   1  26
TORSDOF 6
ENDMDL
MODEL 3
REMARK VINA RESULT:      -7.2      2.563      7.012
REMARK  Name = 
REMARK  8 active torsions:
REMARK  status: ('A' for Active; 'I' for Inactive)
REMARK    1  A    between atoms: C_1  and  N_2
REMARK    2  A    between atoms: N_2  and  C_3
REMARK    3  A    between atoms: N_2  and  C_4
REMARK    4  A    between atoms: C_4  and  C_5
REMARK    5  A    between atoms: C_5  and  C_6
REMARK    6  A    between atoms: C_6  and  N_7
REMARK    7  A    between atoms: C_9  and  C_16
REMARK    8  A    between atoms: C_17  and  C_23
REMARK                            x       y       z     vdW  Elec       q    Type
REMARK                         _______ _______ _______ _____ _____    ______ ____
ROOT
ATOM      1  C   UNL     1       7.387  -4.083  25.921  0.00  0.00    +0.059 C 
ATOM      2  C   UNL     1       7.852  -5.120  26.863  0.00  0.00    +0.252 C 
ATOM      3  O   UNL     1       7.199  -5.671  27.727  0.00  0.00    -0.270 OA
ATOM      4  N   UNL     1       9.136  -5.375  26.563  0.00  0.00    -0.248 N 
ATOM      5  H   UNL     1       9.689  -6.091  26.999  0.00  0.00    +0.158 HD
ATOM      6  C   UNL     1       9.504  -4.713  25.446  0.00  0.00    +0.252 C 
ATOM      7  O   UNL     1      10.556  -4.892  24.860  0.00  0.00    -0.270 OA
ATOM      8  C   UNL     1       8.391  -3.801  25.063  0.00  0.00    +0.059 C 
ENDROOT
BRANCH   8   9
ATOM      9  C   UNL     1       8.438  -2.891  23.954  0.00  0.00    +0.013 A 
ATOM     10  C   UNL     1       9.020  -1.576  23.879  0.00  0.00    +0.008 A 
ATOM     11  C   UNL     1       9.623  -0.688  24.798  0.00  0.00    +0.010 A 
ATOM     12  C   UNL     1      10.212   0.500  24.343  0.00  0.00    +0.001 A 
ATOM     13  C   UNL     1      10.193   0.831  22.994  0.00  0.00    +0.002 A 
ATOM     14  C   UNL     1       9.544   0.012  22.069  0.00  0.00    +0.026 A 
ATOM     15  C   UNL     1       8.959  -1.168  22.541  0.00  0.00    +0.047 A 
ATOM     16  N   UNL     1       8.251  -2.125  21.860  0.00  0.00    -0.360 N 
ATOM     17  H   UNL     1       8.019  -2.078  20.877  0.00  0.00    +0.165 HD
ATOM     18  C   UNL     1       7.943  -3.164  22.693  0.00  0.00    +0.092 A 
ENDBRANCH   8   9
BRANCH   1  26
ATOM     19  N   UNL     1       3.902  -3.371  26.139  0.00  0.00    -0.346 N 
ATOM     20  C   UNL     1       4.370  -2.152  26.589  0.00  0.00    +0.050 A 
ATOM     21  C   UNL     1       3.693  -1.039  27.113  0.00  0.00    +0.026 A 
ATOM     22  C   UNL     1       4.442   0.077  27.499  0.00  0.00    +0.002 A 
ATOM     23  C   UNL     1       5.826   0.077  27.377  0.00  0.00    +0.001 A 
ATOM     24  C   UNL     1       6.501  -1.045  26.872  0.00  0.00    +0.010 A 
ATOM     25  C   UNL     1       5.765  -2.180  26.473  0.00  0.00    +0.008 A 
ATOM     26  C   UNL     1       6.109  -3.485  26.012  0.00  0.00    +0.013 A 
ATOM     27  C   UNL     1       4.945  -4.156  25.722  0.00  0.00    +0.095 A 
BRANCH  19  28
ATOM     28  C   UNL     1       2.526  -3.829  26.197  0.00  0.00    +0.123 C 
BRANCH  28  29
ATOM     29  C   UNL     1       1.968  -4.303  24.859  0.00  0.00    +0.037 C 
BRANCH  29  30
ATOM     30  C   UNL     1       1.450  -5.745  24.895  0.00  0.00    +0.085 C 
BRANCH  30  32
ATOM     31  C   UNL     1       3.036  -6.017  23.067  0.00  0.00    +0.104 C 
ATOM     32  N   UNL     1       2.284  -6.685  24.130  0.00  0.00    -0.308 NA
ATOM     33  C   UNL     1       3.204  -7.378  25.036  0.00  0.00    +0.104 C 
ENDBRANCH  30  32
ENDBRANCH  29  30
ENDBRANCH  28  29
ENDBRANCH  19  28
ENDBRANCH   1  26
TORSDOF 6
ENDMDL
MODEL 4
REMARK VINA RESULT:      -7.1      2.594      4.826
REMARK  Name = 
REMARK  8 active torsions:
REMARK  status: ('A' for Active; 'I' for Inactive)
REMARK    1  A    between atoms: C_1  and  N_2
REMARK    2  A    between atoms: N_2  and  C_3
REMARK    3  A    between atoms: N_2  and  C_4
REMARK    4  A    between atoms: C_4  and  C_5
REMARK    5  A    between atoms: C_5  and  C_6
REMARK    6  A    between atoms: C_6  and  N_7
REMARK    7  A    between atoms: C_9  and  C_16
REMARK    8  A    between atoms: C_17  and  C_23
REMARK                            x       y       z     vdW  Elec       q    Type
REMARK                         _______ _______ _______ _____ _____    ______ ____
ROOT
ATOM      1  C   UNL     1       5.964  -5.169  26.526  0.00  0.00    +0.059 C 
ATOM      2  C   UNL     1       7.202  -5.490  27.263  0.00  0.00    +0.252 C 
ATOM      3  O   UNL     1       8.311  -5.029  27.070  0.00  0.00    -0.270 OA
ATOM      4  N   UNL     1       6.869  -6.367  28.223  0.00  0.00    -0.248 N 
ATOM      5  H   UNL     1       7.504  -6.708  28.924  0.00  0.00    +0.158 HD
ATOM      6  C   UNL     1       5.532  -6.539  28.268  0.00  0.00    +0.252 C 
ATOM      7  O   UNL     1       4.950  -7.148  29.147  0.00  0.00    -0.270 OA
ATOM      8  C   UNL     1       4.936  -5.822  27.108  0.00  0.00    +0.059 C 
ENDROOT
BRANCH   8   9
ATOM      9  C   UNL     1       3.536  -5.824  26.790  0.00  0.00    +0.013 A 
ATOM     10  C   UNL     1       2.819  -6.639  25.844  0.00  0.00    +0.008 A 
ATOM     11  C   UNL     1       3.172  -7.595  24.866  0.00  0.00    +0.010 A 
ATOM     12  C   UNL     1       2.175  -8.310  24.189  0.00  0.00    +0.001 A 
ATOM     13  C   UNL     1       0.831  -8.077  24.454  0.00  0.00    +0.002 A 
ATOM     14  C   UNL     1       0.444  -7.090  25.362  0.00  0.00    +0.026 A 
ATOM     15  C   UNL     1       1.454  -6.384  26.026  0.00  0.00    +0.047 A 
ATOM     16  N   UNL     1       1.351  -5.364  26.937  0.00  0.00    -0.360 N 
ATOM     17  H   UNL     1       0.481  -4.945  27.235  0.00  0.00    +0.165 HD
ATOM     18  C   UNL     1       2.590  -5.027  27.407  0.00  0.00    +0.092 A 
ENDBRANCH   8   9
BRANCH   1  26
ATOM     19  N   UNL     1       6.201  -2.532  24.140  0.00  0.00    -0.346 N 
ATOM     20  C   UNL     1       6.198  -3.589  23.250  0.00  0.00    +0.050 A 
ATOM     21  C   UNL     1       6.385  -3.625  21.859  0.00  0.00    +0.026 A 
ATOM     22  C   UNL     1       6.335  -4.864  21.211  0.00  0.00    +0.002 A 
ATOM     23  C   UNL     1       6.117  -6.031  21.933  0.00  0.00    +0.001 A 
ATOM     24  C   UNL     1       5.951  -5.992  23.326  0.00  0.00    +0.010 A 
ATOM     25  C   UNL     1       5.994  -4.755  23.999  0.00  0.00    +0.008 A 
ATOM     26  C   UNL     1       5.953  -4.357  25.368  0.00  0.00    +0.013 A 
ATOM     27  C   UNL     1       5.982  -2.984  25.415  0.00  0.00    +0.095 A 
BRANCH  19  28
ATOM     28  C   UNL     1       6.505  -1.150  23.819  0.00  0.00    +0.123 C 
BRANCH  28  29
ATOM     29  C   UNL     1       7.658  -0.560  24.626  0.00  0.00    +0.037 C 
BRANCH  29  30
ATOM     30  C   UNL     1       8.735   0.094  23.754  0.00  0.00    +0.085 C 
BRANCH  30  32
ATOM     31  C   UNL     1       9.312   0.269  21.394  0.00  0.00    +0.104 C 
ATOM     32  N   UNL     1       8.991  -0.633  22.500  0.00  0.00    -0.308 NA
ATOM     33  C   UNL     1      10.081  -1.592  22.699  0.00  0.00    +0.104 C 
ENDBRANCH  30  32
ENDBRANCH  29  30
ENDBRANCH  28  29
ENDBRANCH  19  28
ENDBRANCH   1  26
TORSDOF 6
ENDMDL
MODEL 5
REMARK VINA RESULT:      -6.9      2.200      5.762
REMARK  Name = 
REMARK  8 active torsions:
REMARK  status: ('A' for Active; 'I' for Inactive)
REMARK    1  A    between atoms: C_1  and  N_2
REMARK    2  A    between atoms: N_2  and  C_3
REMARK    3  A    between atoms: N_2  and  C_4
REMARK    4  A    between atoms: C_4  and  C_5
REMARK    5  A    between atoms: C_5  and  C_6
REMARK    6  A    between atoms: C_6  and  N_7
REMARK    7  A    between atoms: C_9  and  C_16
REMARK    8  A    between atoms: C_17  and  C_23
REMARK                            x       y       z     vdW  Elec       q    Type
REMARK                         _______ _______ _______ _____ _____    ______ ____
ROOT
ATOM      1  C   UNL     1       5.274  -5.085  23.858  0.00  0.00    +0.059 C 
ATOM      2  C   UNL     1       4.363  -5.870  23.002  0.00  0.00    +0.252 C 
ATOM      3  O   UNL     1       3.173  -6.053  23.171  0.00  0.00    -0.270 OA
ATOM      4  N   UNL     1       5.090  -6.321  21.967  0.00  0.00    -0.248 N 
ATOM      5  H   UNL     1       4.712  -6.830  21.187  0.00  0.00    +0.158 HD
ATOM      6  C   UNL     1       6.334  -5.799  21.995  0.00  0.00    +0.252 C 
ATOM      7  O   UNL     1       7.143  -5.909  21.092  0.00  0.00    -0.270 OA
ATOM      8  C   UNL     1       6.490  -5.052  23.273  0.00  0.00    +0.059 C 
ENDROOT
BRANCH   8   9
ATOM      9  C   UNL     1       7.704  -4.403  23.686  0.00  0.00    +0.013 A 
ATOM     10  C   UNL     1       8.256  -3.146  23.256  0.00  0.00    +0.008 A 
ATOM     11  C   UNL     1       7.926  -2.183  22.275  0.00  0.00    +0.010 A 
ATOM     12  C   UNL     1       8.632  -0.975  22.212  0.00  0.00    +0.001 A 
ATOM     13  C   UNL     1       9.674  -0.714  23.093  0.00  0.00    +0.002 A 
ATOM     14  C   UNL     1      10.073  -1.670  24.027  0.00  0.00    +0.026 A 
ATOM     15  C   UNL     1       9.359  -2.873  24.074  0.00  0.00    +0.047 A 
ATOM     16  N   UNL     1       9.554  -3.974  24.869  0.00  0.00    -0.360 N 
ATOM     17  H   UNL     1      10.305  -4.074  25.538  0.00  0.00    +0.165 HD
ATOM     18  C   UNL     1       8.564  -4.891  24.653  0.00  0.00    +0.092 A 
ENDBRANCH   8   9
BRANCH   1  26
ATOM     19  N   UNL     1       3.853  -3.185  26.518  0.00  0.00    -0.346 N 
ATOM     20  C   UNL     1       4.178  -4.313  27.246  0.00  0.00    +0.050 A 
ATOM     21  C   UNL     1       3.899  -4.665  28.577  0.00  0.00    +0.026 A 
ATOM     22  C   UNL     1       4.358  -5.898  29.051  0.00  0.00    +0.002 A 
ATOM     23  C   UNL     1       5.063  -6.759  28.218  0.00  0.00    +0.001 A 
ATOM     24  C   UNL     1       5.321  -6.412  26.883  0.00  0.00    +0.010 A 
ATOM     25  C   UNL     1       4.872  -5.172  26.385  0.00  0.00    +0.008 A 
ATOM     26  C   UNL     1       4.877  -4.546  25.104  0.00  0.00    +0.013 A 
ATOM     27  C   UNL     1       4.335  -3.290  25.239  0.00  0.00    +0.095 A 
BRANCH  19  28
ATOM     28  C   UNL     1       3.022  -2.087  26.974  0.00  0.00    +0.123 C 
BRANCH  28  29
ATOM     29  C   UNL     1       3.738  -0.740  27.024  0.00  0.00    +0.037 C 
BRANCH  29  30
ATOM     30  C   UNL     1       5.078  -0.794  27.766  0.00  0.00    +0.085 C 
BRANCH  30  32
ATOM     31  C   UNL     1       7.136  -1.500  26.671  0.00  0.00    +0.104 C 
ATOM     32  N   UNL     1       6.222  -0.389  26.934  0.00  0.00    -0.308 NA
ATOM     33  C   UNL     1       5.738   0.175  25.671  0.00  0.00    +0.104 C 
ENDBRANCH  30  32
ENDBRANCH  29  30
ENDBRANCH  28  29
ENDBRANCH  19  28
ENDBRANCH   1  26
TORSDOF 6
ENDMDL
MODEL 6
REMARK VINA RESULT:      -6.8      1.134      2.399
REMARK  Name = 
REMARK  8 active torsions:
REMARK  status: ('A' for Active; 'I' for Inactive)
REMARK    1  A    between atoms: C_1  and  N_2
REMARK    2  A    between atoms: N_2  and  C_3
REMARK    3  A    between atoms: N_2  and  C_4
REMARK    4  A    between atoms: C_4  and  C_5
REMARK    5  A    between atoms: C_5  and  C_6
REMARK    6  A    between atoms: C_6  and  N_7
REMARK    7  A    between atoms: C_9  and  C_16
REMARK    8  A    between atoms: C_17  and  C_23
REMARK                            x       y       z     vdW  Elec       q    Type
REMARK                         _______ _______ _______ _____ _____    ______ ____
ROOT
ATOM      1  C   UNL     1       6.048  -3.860  23.695  0.00  0.00    +0.059 C 
ATOM      2  C   UNL     1       5.434  -4.113  22.377  0.00  0.00    +0.252 C 
ATOM      3  O   UNL     1       5.428  -3.368  21.416  0.00  0.00    -0.270 OA
ATOM      4  N   UNL     1       4.907  -5.347  22.421  0.00  0.00    -0.248 N 
ATOM      5  H   UNL     1       4.484  -5.811  21.636  0.00  0.00    +0.158 HD
ATOM      6  C   UNL     1       5.234  -5.963  23.575  0.00  0.00    +0.252 C 
ATOM      7  O   UNL     1       5.030  -7.142  23.803  0.00  0.00    -0.270 OA
ATOM      8  C   UNL     1       5.913  -4.970  24.452  0.00  0.00    +0.059 C 
ENDROOT
BRANCH   8   9
ATOM      9  C   UNL     1       6.359  -5.244  25.789  0.00  0.00    +0.013 A 
ATOM     10  C   UNL     1       5.581  -5.513  26.970  0.00  0.00    +0.008 A 
ATOM     11  C   UNL     1       4.205  -5.512  27.293  0.00  0.00    +0.010 A 
ATOM     12  C   UNL     1       3.778  -5.961  28.550  0.00  0.00    +0.001 A 
ATOM     13  C   UNL     1       4.696  -6.392  29.500  0.00  0.00    +0.002 A 
ATOM     14  C   UNL     1       6.066  -6.340  29.241  0.00  0.00    +0.026 A 
ATOM     15  C   UNL     1       6.475  -5.885  27.981  0.00  0.00    +0.047 A 
ATOM     16  N   UNL     1       7.741  -5.716  27.483  0.00  0.00    -0.360 N 
ATOM     17  H   UNL     1       8.591  -5.875  28.007  0.00  0.00    +0.165 HD
ATOM     18  C   UNL     1       7.684  -5.342  26.170  0.00  0.00    +0.092 A 
ENDBRANCH   8   9
BRANCH   1  26
ATOM     19  N   UNL     1       6.856  -0.724  25.183  0.00  0.00    -0.346 N 
ATOM     20  C   UNL     1       8.052  -0.931  24.522  0.00  0.00    +0.050 A 
ATOM     21  C   UNL     1       9.259  -0.213  24.551  0.00  0.00    +0.026 A 
ATOM     22  C   UNL     1      10.324  -0.669  23.767  0.00  0.00    +0.002 A 
ATOM     23  C   UNL     1      10.192  -1.813  22.989  0.00  0.00    +0.001 A 
ATOM     24  C   UNL     1       8.991  -2.538  22.980  0.00  0.00    +0.010 A 
ATOM     25  C   UNL     1       7.903  -2.095  23.759  0.00  0.00    +0.008 A 
ATOM     26  C   UNL     1       6.605  -2.610  24.052  0.00  0.00    +0.013 A 
ATOM     27  C   UNL     1       5.953  -1.698  24.847  0.00  0.00    +0.095 A 
BRANCH  19  28
ATOM     28  C   UNL     1       6.602   0.297  26.183  0.00  0.00    +0.123 C 
BRANCH  28  29
ATOM     29  C   UNL     1       6.598   1.721  25.635  0.00  0.00    +0.037 C 
BRANCH  29  30
ATOM     30  C   UNL     1       5.755   1.879  24.366  0.00  0.00    +0.085 C 
BRANCH  30  32
ATOM     31  C   UNL     1       7.680   3.228  23.729  0.00  0.00    +0.104 C 
ATOM     32  N   UNL     1       6.474   2.542  23.266  0.00  0.00    -0.308 NA
ATOM     33  C   UNL     1       6.820   1.556  22.238  0.00  0.00    +0.104 C 
ENDBRANCH  30  32
ENDBRANCH  29  30
ENDBRANCH  28  29
ENDBRANCH  19  28
ENDBRANCH   1  26
TORSDOF 6
ENDMDL
MODEL 7
REMARK VINA RESULT:      -6.6      2.938      7.655
REMARK  Name = 
REMARK  8 active torsions:
REMARK  status: ('A' for Active; 'I' for Inactive)
REMARK    1  A    between atoms: C_1  and  N_2
REMARK    2  A    between atoms: N_2  and  C_3
REMARK    3  A    between atoms: N_2  and  C_4
REMARK    4  A    between atoms: C_4  and  C_5
REMARK    5  A    between atoms: C_5  and  C_6
REMARK    6  A    between atoms: C_6  and  N_7
REMARK    7  A    between atoms: C_9  and  C_16
REMARK    8  A    between atoms: C_17  and  C_23
REMARK                            x       y       z     vdW  Elec       q    Type
REMARK                         _______ _______ _______ _____ _____    ______ ____
ROOT
ATOM      1  C   UNL     1       8.325  -0.331  23.460  0.00  0.00    +0.059 C 
ATOM      2  C   UNL     1       9.582  -1.092  23.319  0.00  0.00    +0.252 C 
ATOM      3  O   UNL     1       9.743  -2.283  23.505  0.00  0.00    -0.270 OA
ATOM      4  N   UNL     1      10.520  -0.225  22.906  0.00  0.00    -0.248 N 
ATOM      5  H   UNL     1      11.460  -0.482  22.660  0.00  0.00    +0.158 HD
ATOM      6  C   UNL     1       9.972   0.978  22.637  0.00  0.00    +0.252 C 
ATOM      7  O   UNL     1      10.563   1.893  22.092  0.00  0.00    -0.270 OA
ATOM      8  C   UNL     1       8.549   0.943  23.074  0.00  0.00    +0.059 C 
ENDROOT
BRANCH   8   9
ATOM      9  C   UNL     1       7.654   2.064  23.000  0.00  0.00    +0.013 A 
ATOM     10  C   UNL     1       7.466   3.142  23.936  0.00  0.00    +0.008 A 
ATOM     11  C   UNL     1       7.952   3.453  25.226  0.00  0.00    +0.010 A 
ATOM     12  C   UNL     1       7.648   4.689  25.811  0.00  0.00    +0.001 A 
ATOM     13  C   UNL     1       6.853   5.614  25.145  0.00  0.00    +0.002 A 
ATOM     14  C   UNL     1       6.298   5.312  23.901  0.00  0.00    +0.026 A 
ATOM     15  C   UNL     1       6.609   4.071  23.333  0.00  0.00    +0.047 A 
ATOM     16  N   UNL     1       6.186   3.522  22.150  0.00  0.00    -0.360 N 
ATOM     17  H   UNL     1       5.528   3.957  21.517  0.00  0.00    +0.165 HD
ATOM     18  C   UNL     1       6.812   2.326  21.936  0.00  0.00    +0.092 A 
ENDBRANCH   8   9
BRANCH   1  26
ATOM     19  N   UNL     1       5.484  -2.350  24.203  0.00  0.00    -0.346 N 
ATOM     20  C   UNL     1       5.528  -1.645  25.391  0.00  0.00    +0.050 A 
ATOM     21  C   UNL     1       4.787  -1.785  26.576  0.00  0.00    +0.026 A 
ATOM     22  C   UNL     1       5.058  -0.917  27.638  0.00  0.00    +0.002 A 
ATOM     23  C   UNL     1       6.047   0.053  27.525  0.00  0.00    +0.001 A 
ATOM     24  C   UNL     1       6.798   0.176  26.346  0.00  0.00    +0.010 A 
ATOM     25  C   UNL     1       6.540  -0.686  25.261  0.00  0.00    +0.008 A 
ATOM     26  C   UNL     1       7.142  -0.900  23.986  0.00  0.00    +0.013 A 
ATOM     27  C   UNL     1       6.411  -1.856  23.323  0.00  0.00    +0.095 A 
BRANCH  19  28
ATOM     28  C   UNL     1       4.669  -3.521  23.938  0.00  0.00    +0.123 C 
BRANCH  28  29
ATOM     29  C   UNL     1       5.356  -4.846  24.259  0.00  0.00    +0.037 C 
BRANCH  29  30
ATOM     30  C   UNL     1       5.193  -5.895  23.155  0.00  0.00    +0.085 C 
BRANCH  30  32
ATOM     31  C   UNL     1       6.261  -5.588  20.987  0.00  0.00    +0.104 C 
ATOM     32  N   UNL     1       6.411  -6.092  22.352  0.00  0.00    -0.308 NA
ATOM     33  C   UNL     1       7.545  -5.436  23.009  0.00  0.00    +0.104 C 
ENDBRANCH  30  32
ENDBRANCH  29  30
ENDBRANCH  28  29
ENDBRANCH  19  28
ENDBRANCH   1  26
TORSDOF 6
ENDMDL
MODEL 8
REMARK VINA RESULT:      -6.6      3.205      8.026
REMARK  Name = 
REMARK  8 active torsions:
REMARK  status: ('A' for Active; 'I' for Inactive)
REMARK    1  A    between atoms: C_1  and  N_2
REMARK    2  A    between atoms: N_2  and  C_3
REMARK    3  A    between atoms: N_2  and  C_4
REMARK    4  A    between atoms: C_4  and  C_5
REMARK    5  A    between atoms: C_5  and  C_6
REMARK    6  A    between atoms: C_6  and  N_7
REMARK    7  A    between atoms: C_9  and  C_16
REMARK    8  A    between atoms: C_17  and  C_23
REMARK                            x       y       z     vdW  Elec       q    Type
REMARK                         _______ _______ _______ _____ _____    ______ ____
ROOT
ATOM      1  C   UNL     1       8.858   0.785  23.854  0.00  0.00    +0.059 C 
ATOM      2  C   UNL     1      10.222   0.316  24.169  0.00  0.00    +0.252 C 
ATOM      3  O   UNL     1      10.568  -0.826  24.406  0.00  0.00    -0.270 OA
ATOM      4  N   UNL     1      11.028   1.388  24.111  0.00  0.00    -0.248 N 
ATOM      5  H   UNL     1      12.027   1.353  24.214  0.00  0.00    +0.158 HD
ATOM      6  C   UNL     1      10.354   2.466  23.660  0.00  0.00    +0.252 C 
ATOM      7  O   UNL     1      10.878   3.522  23.354  0.00  0.00    -0.270 OA
ATOM      8  C   UNL     1       8.914   2.102  23.565  0.00  0.00    +0.059 C 
ENDROOT
BRANCH   8   9
ATOM      9  C   UNL     1       7.875   3.013  23.174  0.00  0.00    +0.013 A 
ATOM     10  C   UNL     1       7.237   4.051  23.942  0.00  0.00    +0.008 A 
ATOM     11  C   UNL     1       7.286   4.485  25.286  0.00  0.00    +0.010 A 
ATOM     12  C   UNL     1       6.604   5.645  25.674  0.00  0.00    +0.001 A 
ATOM     13  C   UNL     1       5.857   6.372  24.755  0.00  0.00    +0.002 A 
ATOM     14  C   UNL     1       5.729   5.934  23.436  0.00  0.00    +0.026 A 
ATOM     15  C   UNL     1       6.414   4.770  23.067  0.00  0.00    +0.047 A 
ATOM     16  N   UNL     1       6.440   4.119  21.860  0.00  0.00    -0.360 N 
ATOM     17  H   UNL     1       5.908   4.395  21.046  0.00  0.00    +0.165 HD
ATOM     18  C   UNL     1       7.318   3.072  21.910  0.00  0.00    +0.092 A 
ENDBRANCH   8   9
BRANCH   1  26
ATOM     19  N   UNL     1       6.434  -1.804  23.505  0.00  0.00    -0.346 N 
ATOM     20  C   UNL     1       5.960  -1.262  24.685  0.00  0.00    +0.050 A 
ATOM     21  C   UNL     1       4.943  -1.689  25.554  0.00  0.00    +0.026 A 
ATOM     22  C   UNL     1       4.683  -0.930  26.700  0.00  0.00    +0.002 A 
ATOM     23  C   UNL     1       5.425   0.213  26.975  0.00  0.00    +0.001 A 
ATOM     24  C   UNL     1       6.454   0.623  26.114  0.00  0.00    +0.010 A 
ATOM     25  C   UNL     1       6.731  -0.124  24.952  0.00  0.00    +0.008 A 
ATOM     26  C   UNL     1       7.724  -0.056  23.930  0.00  0.00    +0.013 A 
ATOM     27  C   UNL     1       7.455  -1.038  23.007  0.00  0.00    +0.095 A 
BRANCH  19  28
ATOM     28  C   UNL     1       6.012  -3.062  22.917  0.00  0.00    +0.123 C 
BRANCH  28  29
ATOM     29  C   UNL     1       7.080  -4.152  22.941  0.00  0.00    +0.037 C 
BRANCH  29  30
ATOM     30  C   UNL     1       7.320  -4.734  24.337  0.00  0.00    +0.085 C 
BRANCH  30  32
ATOM     31  C   UNL     1       8.194  -3.520  26.259  0.00  0.00    +0.104 C 
ATOM     32  N   UNL     1       8.516  -4.191  24.999  0.00  0.00    -0.308 NA
ATOM     33  C   UNL     1       9.481  -5.268  25.235  0.00  0.00    +0.104 C 
ENDBRANCH  30  32
ENDBRANCH  29  30
ENDBRANCH  28  29
ENDBRANCH  19  28
ENDBRANCH   1  26
TORSDOF 6
ENDMDL
MODEL 9
REMARK VINA RESULT:      -6.6      2.760      7.144
REMARK  Name = 
REMARK  8 active torsions:
REMARK  status: ('A' for Active; 'I' for Inactive)
REMARK    1  A    between atoms: C_1  and  N_2
REMARK    2  A    between atoms: N_2  and  C_3
REMARK    3  A    between atoms: N_2  and  C_4
REMARK    4  A    between atoms: C_4  and  C_5
REMARK    5  A    between atoms: C_5  and  C_6
REMARK    6  A    between atoms: C_6  and  N_7
REMARK    7  A    between atoms: C_9  and  C_16
REMARK    8  A    between atoms: C_17  and  C_23
REMARK                            x       y       z     vdW  Elec       q    Type
REMARK                         _______ _______ _______ _____ _____    ______ ____
ROOT
ATOM      1  C   UNL     1       8.562  -1.079  23.191  0.00  0.00    +0.059 C 
ATOM      2  C   UNL     1       9.978  -1.240  22.806  0.00  0.00    +0.252 C 
ATOM      3  O   UNL     1      10.575  -2.284  22.627  0.00  0.00    -0.270 OA
ATOM      4  N   UNL     1      10.484  -0.006  22.652  0.00  0.00    -0.248 N 
ATOM      5  H   UNL     1      11.414   0.189  22.323  0.00  0.00    +0.158 HD
ATOM      6  C   UNL     1       9.514   0.924  22.763  0.00  0.00    +0.252 C 
ATOM      7  O   UNL     1       9.664   2.105  22.503  0.00  0.00    -0.270 OA
ATOM      8  C   UNL     1       8.266   0.238  23.196  0.00  0.00    +0.059 C 
ENDROOT
BRANCH   8   9
ATOM      9  C   UNL     1       7.029   0.912  23.476  0.00  0.00    +0.013 A 
ATOM     10  C   UNL     1       6.258   0.933  24.692  0.00  0.00    +0.008 A 
ATOM     11  C   UNL     1       6.333   0.282  25.944  0.00  0.00    +0.010 A 
ATOM     12  C   UNL     1       5.460   0.646  26.977  0.00  0.00    +0.001 A 
ATOM     13  C   UNL     1       4.500   1.631  26.783  0.00  0.00    +0.002 A 
ATOM     14  C   UNL     1       4.350   2.244  25.538  0.00  0.00    +0.026 A 
ATOM     15  C   UNL     1       5.229   1.866  24.516  0.00  0.00    +0.047 A 
ATOM     16  N   UNL     1       5.285   2.288  23.212  0.00  0.00    -0.360 N 
ATOM     17  H   UNL     1       4.637   2.941  22.791  0.00  0.00    +0.165 HD
ATOM     18  C   UNL     1       6.363   1.732  22.583  0.00  0.00    +0.092 A 
ENDBRANCH   8   9
BRANCH   1  26
ATOM     19  N   UNL     1       6.257  -3.795  23.282  0.00  0.00    -0.346 N 
ATOM     20  C   UNL     1       6.955  -4.104  24.433  0.00  0.00    +0.050 A 
ATOM     21  C   UNL     1       6.884  -5.219  25.286  0.00  0.00    +0.026 A 
ATOM     22  C   UNL     1       7.735  -5.265  26.395  0.00  0.00    +0.002 A 
ATOM     23  C   UNL     1       8.638  -4.237  26.638  0.00  0.00    +0.001 A 
ATOM     24  C   UNL     1       8.720  -3.136  25.772  0.00  0.00    +0.010 A 
ATOM     25  C   UNL     1       7.869  -3.066  24.651  0.00  0.00    +0.008 A 
ATOM     26  C   UNL     1       7.738  -2.172  23.547  0.00  0.00    +0.013 A 
ATOM     27  C   UNL     1       6.677  -2.591  22.780  0.00  0.00    +0.095 A 
BRANCH  19  28
ATOM     28  C   UNL     1       5.296  -4.652  22.613  0.00  0.00    +0.123 C 
BRANCH  28  29
ATOM     29  C   UNL     1       3.933  -4.716  23.295  0.00  0.00    +0.037 C 
BRANCH  29  30
ATOM     30  C   UNL     1       3.198  -6.040  23.060  0.00  0.00    +0.085 C 
BRANCH  30  32
ATOM     31  C   UNL     1       1.429  -4.752  24.129  0.00  0.00    +0.104 C 
ATOM     32  N   UNL     1       1.839  -6.062  23.622  0.00  0.00    -0.308 NA
ATOM     33  C   UNL     1       0.892  -6.526  22.605  0.00  0.00    +0.104 C 
ENDBRANCH  30  32
ENDBRANCH  29  30
ENDBRANCH  28  29
ENDBRANCH  19  28
ENDBRANCH   1  26
TORSDOF 6
ENDMDL
