MODEL 1
REMARK VINA RESULT:      -3.8      0.000      0.000
REMARK  Name = 
REMARK  5 active torsions:
REMARK  status: ('A' for Active; 'I' for Inactive)
REMARK    1  A    between atoms: CG2_1  and  CB_2
REMARK    2  A    between atoms: CB_2  and  CA_4
REMARK    3  A    between atoms: CA_4  and  N_6
REMARK    4  A    between atoms: CA_4  and  C_7
REMARK    5  A    between atoms: C_7  and  O_8
REMARK                            x       y       z     vdW  Elec       q    Type
REMARK                         _______ _______ _______ _____ _____    ______ ____
ROOT
ATOM      1  CA  THR A   1       9.236  -4.667  26.049  0.00  0.00    +0.227 C 
ENDROOT
BRANCH   1   3
ATOM      2  CG2 THR A   1       8.440  -2.212  25.695  0.00  0.00    +0.088 C 
ATOM      3  CB  THR A   1       9.105  -3.444  25.139  0.00  0.00    +0.158 C 
ATOM      4  OG1 THR A   1       9.642  -3.416  24.026  0.00  0.00    -0.295 OA
ENDBRANCH   1   3
BRANCH   1   5
ATOM      5  N   THR A   1      10.140  -5.686  25.403  0.00  0.00    -0.312 NA
ATOM      6  H1  THR A   1      10.548  -6.238  26.170  0.00  0.00    +0.119 HD
ATOM      7  H2  THR A   1       9.549  -6.347  24.887  0.00  0.00    +0.119 HD
ENDBRANCH   1   5
BRANCH   1   8
ATOM      8  C   THR A   1       7.898  -5.341  26.313  0.00  0.00    +0.329 C 
ATOM      9  OXT THR A   1       6.980  -5.419  25.510  0.00  0.00    -0.249 OA
BRANCH   8  10
ATOM     10  O   THR A   1       7.845  -5.885  27.559  0.00  0.00    -0.479 OA
ATOM     11  H   THR A   1       8.759  -5.807  27.938  0.00  0.00    +0.295 HD
ENDBRANCH   8  10
ENDBRANCH   1   8
TORSDOF 4
ENDMDL
MODEL 2
REMARK VINA RESULT:      -3.8      3.770      4.780
REMARK  Name = 
REMARK  5 active torsions:
REMARK  status: ('A' for Active; 'I' for Inactive)
REMARK    1  A    between atoms: CG2_1  and  CB_2
REMARK    2  A    between atoms: CB_2  and  CA_4
REMARK    3  A    between atoms: CA_4  and  N_6
REMARK    4  A    between atoms: CA_4  and  C_7
REMARK    5  A    between atoms: C_7  and  O_8
REMARK                            x       y       z     vdW  Elec       q    Type
REMARK                         _______ _______ _______ _____ _____    ______ ____
ROOT
ATOM      1  CA  THR A   1      10.454  -1.348  22.746  0.00  0.00    +0.227 C 
ENDROOT
BRANCH   1   3
ATOM      2  CG2 THR A   1       9.938   1.127  22.117  0.00  0.00    +0.088 C 
ATOM      3  CB  THR A   1      10.375   0.125  23.154  0.00  0.00    +0.158 C 
ATOM      4  OG1 THR A   1      10.535   0.471  24.330  0.00  0.00    -0.295 OA
ENDBRANCH   1   3
BRANCH   1   5
ATOM      5  N   THR A   1       9.851  -1.528  21.376  0.00  0.00    -0.312 NA
ATOM      6  H1  THR A   1       9.731  -2.542  21.244  0.00  0.00    +0.119 HD
ATOM      7  H2  THR A   1       8.898  -1.150  21.401  0.00  0.00    +0.119 HD
ENDBRANCH   1   5
BRANCH   1   8
ATOM      8  C   THR A   1       9.699  -2.258  23.703  0.00  0.00    +0.329 C 
ATOM      9  OXT THR A   1      10.080  -3.357  24.075  0.00  0.00    -0.249 OA
BRANCH   8  10
ATOM     10  O   THR A   1       8.540  -1.687  24.131  0.00  0.00    -0.479 OA
ATOM     11  H   THR A   1       8.191  -2.272  24.854  0.00  0.00    +0.295 HD
ENDBRANCH   8  10
ENDBRANCH   1   8
TORSDOF 4
ENDMDL
MODEL 3
REMARK VINA RESULT:      -3.7      1.172      3.117
REMARK  Name = 
REMARK  5 active torsions:
REMARK  status: ('A' for Active; 'I' for Inactive)
REMARK    1  A    between atoms: CG2_1  and  CB_2
REMARK    2  A    between atoms: CB_2  and  CA_4
REMARK    3  A    between atoms: CA_4  and  N_6
REMARK    4  A    between atoms: CA_4  and  C_7
REMARK    5  A    between atoms: C_7  and  O_8
REMARK                            x       y       z     vdW  Elec       q    Type
REMARK                         _______ _______ _______ _____ _____    ______ ____
ROOT
ATOM      1  CA  THR A   1       8.939  -4.911  24.935  0.00  0.00    +0.227 C 
ENDROOT
BRANCH   1   3
ATOM      2  CG2 THR A   1       6.466  -5.443  25.555  0.00  0.00    +0.088 C 
ATOM      3  CB  THR A   1       7.850  -5.052  26.001  0.00  0.00    +0.158 C 
ATOM      4  OG1 THR A   1       8.122  -4.979  27.205  0.00  0.00    -0.295 OA
ENDBRANCH   1   3
BRANCH   1   5
ATOM      5  N   THR A   1      10.183  -5.637  25.381  0.00  0.00    -0.312 NA
ATOM      6  H1  THR A   1      10.074  -6.614  25.073  0.00  0.00    +0.119 HD
ATOM      7  H2  THR A   1      10.971  -5.273  24.835  0.00  0.00    +0.119 HD
ENDBRANCH   1   5
BRANCH   1   8
ATOM      8  C   THR A   1       9.320  -3.460  24.682  0.00  0.00    +0.329 C 
ATOM      9  OXT THR A   1      10.158  -3.084  23.877  0.00  0.00    -0.249 OA
BRANCH   8  10
ATOM     10  O   THR A   1       8.588  -2.607  25.448  0.00  0.00    -0.479 OA
ATOM     11  H   THR A   1       9.093  -2.486  26.294  0.00  0.00    +0.295 HD
ENDBRANCH   8  10
ENDBRANCH   1   8
TORSDOF 4
ENDMDL
MODEL 4
REMARK VINA RESULT:      -3.7      1.861      3.284
REMARK  Name = 
REMARK  5 active torsions:
REMARK  status: ('A' for Active; 'I' for Inactive)
REMARK    1  A    between atoms: CG2_1  and  CB_2
REMARK    2  A    between atoms: CB_2  and  CA_4
REMARK    3  A    between atoms: CA_4  and  N_6
REMARK    4  A    between atoms: CA_4  and  C_7
REMARK    5  A    between atoms: C_7  and  O_8
REMARK                            x       y       z     vdW  Elec       q    Type
REMARK                         _______ _______ _______ _____ _____    ______ ____
ROOT
ATOM      1  CA  THR A   1       8.436  -4.252  26.464  0.00  0.00    +0.227 C 
ENDROOT
BRANCH   1   3
ATOM      2  CG2 THR A   1       6.235  -5.504  25.854  0.00  0.00    +0.088 C 
ATOM      3  CB  THR A   1       7.349  -5.262  26.838  0.00  0.00    +0.158 C 
ATOM      4  OG1 THR A   1       7.446  -5.957  27.856  0.00  0.00    -0.295 OA
ENDBRANCH   1   3
BRANCH   1   5
ATOM      5  N   THR A   1       7.798  -2.992  25.936  0.00  0.00    -0.312 NA
ATOM      6  H1  THR A   1       7.112  -2.697  26.645  0.00  0.00    +0.119 HD
ATOM      7  H2  THR A   1       8.511  -2.256  25.935  0.00  0.00    +0.119 HD
ENDBRANCH   1   5
BRANCH   1   8
ATOM      8  C   THR A   1       9.373  -4.779  25.387  0.00  0.00    +0.329 C 
ATOM      9  OXT THR A   1       9.765  -4.139  24.423  0.00  0.00    -0.249 OA
BRANCH   8  10
ATOM     10  O   THR A   1       9.756  -6.060  25.636  0.00  0.00    -0.479 OA
ATOM     11  H   THR A   1       9.429  -6.604  24.872  0.00  0.00    +0.295 HD
ENDBRANCH   8  10
ENDBRANCH   1   8
TORSDOF 4
ENDMDL
MODEL 5
REMARK VINA RESULT:      -3.7      5.875      6.443
REMARK  Name = 
REMARK  5 active torsions:
REMARK  status: ('A' for Active; 'I' for Inactive)
REMARK    1  A    between atoms: CG2_1  and  CB_2
REMARK    2  A    between atoms: CB_2  and  CA_4
REMARK    3  A    between atoms: CA_4  and  N_6
REMARK    4  A    between atoms: CA_4  and  C_7
REMARK    5  A    between atoms: C_7  and  O_8
REMARK                            x       y       z     vdW  Elec       q    Type
REMARK                         _______ _______ _______ _____ _____    ______ ____
ROOT
ATOM      1  CA  THR A   1      10.107   0.838  22.257  0.00  0.00    +0.227 C 
ENDROOT
BRANCH   1   3
ATOM      2  CG2 THR A   1      10.714   0.418  24.755  0.00  0.00    +0.088 C 
ATOM      3  CB  THR A   1      10.086   1.307  23.714  0.00  0.00    +0.158 C 
ATOM      4  OG1 THR A   1       9.685   2.437  24.015  0.00  0.00    -0.295 OA
ENDBRANCH   1   3
BRANCH   1   5
ATOM      5  N   THR A   1       9.435   1.867  21.383  0.00  0.00    -0.312 NA
ATOM      6  H1  THR A   1       8.482   1.517  21.206  0.00  0.00    +0.119 HD
ATOM      7  H2  THR A   1       9.306   2.717  21.942  0.00  0.00    +0.119 HD
ENDBRANCH   1   5
BRANCH   1   8
ATOM      8  C   THR A   1       9.375  -0.481  22.060  0.00  0.00    +0.329 C 
ATOM      9  OXT THR A   1       8.213  -0.693  22.373  0.00  0.00    -0.249 OA
BRANCH   8  10
ATOM     10  O   THR A   1      10.166  -1.410  21.459  0.00  0.00    -0.479 OA
ATOM     11  H   THR A   1      10.875  -1.642  22.114  0.00  0.00    +0.295 HD
ENDBRANCH   8  10
ENDBRANCH   1   8
TORSDOF 4
ENDMDL
MODEL 6
REMARK VINA RESULT:      -3.6      4.277      5.373
REMARK  Name = 
REMARK  5 active torsions:
REMARK  status: ('A' for Active; 'I' for Inactive)
REMARK    1  A    between atoms: CG2_1  and  CB_2
REMARK    2  A    between atoms: CB_2  and  CA_4
REMARK    3  A    between atoms: CA_4  and  N_6
REMARK    4  A    between atoms: CA_4  and  C_7
REMARK    5  A    between atoms: C_7  and  O_8
REMARK                            x       y       z     vdW  Elec       q    Type
REMARK                         _______ _______ _______ _____ _____    ______ ____
ROOT
ATOM      1  CA  THR A   1       9.246  -0.533  23.383  0.00  0.00    +0.227 C 
ENDROOT
BRANCH   1   3
ATOM      2  CG2 THR A   1      10.782   1.419  24.164  0.00  0.00    +0.088 C 
ATOM      3  CB  THR A   1       9.986   0.768  23.064  0.00  0.00    +0.158 C 
ATOM      4  OG1 THR A   1      10.040   1.206  21.910  0.00  0.00    -0.295 OA
ENDBRANCH   1   3
BRANCH   1   5
ATOM      5  N   THR A   1       9.077  -0.668  24.875  0.00  0.00    -0.312 NA
ATOM      6  H1  THR A   1       8.107  -0.981  25.029  0.00  0.00    +0.119 HD
ATOM      7  H2  THR A   1       9.660  -1.451  25.187  0.00  0.00    +0.119 HD
ENDBRANCH   1   5
BRANCH   1   8
ATOM      8  C   THR A   1       9.995  -1.763  22.892  0.00  0.00    +0.329 C 
ATOM      9  OXT THR A   1      10.267  -2.739  23.575  0.00  0.00    -0.249 OA
BRANCH   8  10
ATOM     10  O   THR A   1      10.312  -1.667  21.573  0.00  0.00    -0.479 OA
ATOM     11  H   THR A   1      11.005  -0.959  21.502  0.00  0.00    +0.295 HD
ENDBRANCH   8  10
ENDBRANCH   1   8
TORSDOF 4
ENDMDL
MODEL 7
REMARK VINA RESULT:      -3.6      5.322      6.728
REMARK  Name = 
REMARK  5 active torsions:
REMARK  status: ('A' for Active; 'I' for Inactive)
REMARK    1  A    between atoms: CG2_1  and  CB_2
REMARK    2  A    between atoms: CB_2  and  CA_4
REMARK    3  A    between atoms: CA_4  and  N_6
REMARK    4  A    between atoms: CA_4  and  C_7
REMARK    5  A    between atoms: C_7  and  O_8
REMARK                            x       y       z     vdW  Elec       q    Type
REMARK                         _______ _______ _______ _____ _____    ______ ____
ROOT
ATOM      1  CA  THR A   1       8.899   0.040  22.225  0.00  0.00    +0.227 C 
ENDROOT
BRANCH   1   3
ATOM      2  CG2 THR A   1       9.715  -1.337  24.280  0.00  0.00    +0.088 C 
ATOM      3  CB  THR A   1       9.540   0.003  23.615  0.00  0.00    +0.158 C 
ATOM      4  OG1 THR A   1      10.020   1.021  24.124  0.00  0.00    -0.295 OA
ENDBRANCH   1   3
BRANCH   1   5
ATOM      5  N   THR A   1       9.760  -0.723  21.250  0.00  0.00    -0.312 NA
ATOM      6  H1  THR A   1      10.277  -0.018  20.707  0.00  0.00    +0.119 HD
ATOM      7  H2  THR A   1      10.476  -1.222  21.787  0.00  0.00    +0.119 HD
ENDBRANCH   1   5
BRANCH   1   8
ATOM      8  C   THR A   1       8.748   1.457  21.693  0.00  0.00    +0.329 C 
ATOM      9  OXT THR A   1       7.683   2.023  21.495  0.00  0.00    -0.249 OA
BRANCH   8  10
ATOM     10  O   THR A   1       9.955   2.047  21.482  0.00  0.00    -0.479 OA
ATOM     11  H   THR A   1      10.638   1.333  21.581  0.00  0.00    +0.295 HD
ENDBRANCH   8  10
ENDBRANCH   1   8
TORSDOF 4
ENDMDL
MODEL 8
REMARK VINA RESULT:      -3.5      5.340      6.958
REMARK  Name = 
REMARK  5 active torsions:
REMARK  status: ('A' for Active; 'I' for Inactive)
REMARK    1  A    between atoms: CG2_1  and  CB_2
REMARK    2  A    between atoms: CB_2  and  CA_4
REMARK    3  A    between atoms: CA_4  and  N_6
REMARK    4  A    between atoms: CA_4  and  C_7
REMARK    5  A    between atoms: C_7  and  O_8
REMARK                            x       y       z     vdW  Elec       q    Type
REMARK                         _______ _______ _______ _____ _____    ______ ____
ROOT
ATOM      1  CA  THR A   1      10.531   0.802  23.535  0.00  0.00    +0.227 C 
ENDROOT
BRANCH   1   3
ATOM      2  CG2 THR A   1      10.194  -1.695  22.876  0.00  0.00    +0.088 C 
ATOM      3  CB  THR A   1       9.663  -0.286  22.899  0.00  0.00    +0.158 C 
ATOM      4  OG1 THR A   1       8.507  -0.047  22.532  0.00  0.00    -0.295 OA
ENDBRANCH   1   3
BRANCH   1   5
ATOM      5  N   THR A   1      10.307   0.822  25.026  0.00  0.00    -0.312 NA
ATOM      6  H1  THR A   1      11.092   1.353  25.430  0.00  0.00    +0.119 HD
ATOM      7  H2  THR A   1       9.477   1.394  25.212  0.00  0.00    +0.119 HD
ENDBRANCH   1   5
BRANCH   1   8
ATOM      8  C   THR A   1      10.205   2.190  23.004  0.00  0.00    +0.329 C 
ATOM      9  OXT THR A   1      10.005   3.178  23.695  0.00  0.00    -0.249 OA
BRANCH   8  10
ATOM     10  O   THR A   1      10.187   2.218  21.644  0.00  0.00    -0.479 OA
ATOM     11  H   THR A   1      10.214   1.272  21.345  0.00  0.00    +0.295 HD
ENDBRANCH   8  10
ENDBRANCH   1   8
TORSDOF 4
ENDMDL
MODEL 9
REMARK VINA RESULT:      -3.5      5.945      6.982
REMARK  Name = 
REMARK  5 active torsions:
REMARK  status: ('A' for Active; 'I' for Inactive)
REMARK    1  A    between atoms: CG2_1  and  CB_2
REMARK    2  A    between atoms: CB_2  and  CA_4
REMARK    3  A    between atoms: CA_4  and  N_6
REMARK    4  A    between atoms: CA_4  and  C_7
REMARK    5  A    between atoms: C_7  and  O_8
REMARK                            x       y       z     vdW  Elec       q    Type
REMARK                         _______ _______ _______ _____ _____    ______ ____
ROOT
ATOM      1  CA  THR A   1       9.388   1.342  22.727  0.00  0.00    +0.227 C 
ENDROOT
BRANCH   1   3
ATOM      2  CG2 THR A   1       9.364  -0.902  21.405  0.00  0.00    +0.088 C 
ATOM      3  CB  THR A   1       9.760  -0.140  22.643  0.00  0.00    +0.158 C 
ATOM      4  OG1 THR A   1      10.478  -0.668  23.499  0.00  0.00    -0.295 OA
ENDBRANCH   1   3
BRANCH   1   5
ATOM      5  N   THR A   1       9.768   2.034  21.442  0.00  0.00    -0.312 NA
ATOM      6  H1  THR A   1       9.260   2.930  21.435  0.00  0.00    +0.119 HD
ATOM      7  H2  THR A   1      10.759   2.293  21.506  0.00  0.00    +0.119 HD
ENDBRANCH   1   5
BRANCH   1   8
ATOM      8  C   THR A   1      10.105   2.057  23.863  0.00  0.00    +0.329 C 
ATOM      9  OXT THR A   1      10.973   2.905  23.723  0.00  0.00    -0.249 OA
BRANCH   8  10
ATOM     10  O   THR A   1       9.642   1.659  25.079  0.00  0.00    -0.479 OA
ATOM     11  H   THR A   1       9.901   0.706  25.179  0.00  0.00    +0.295 HD
ENDBRANCH   8  10
ENDBRANCH   1   8
TORSDOF 4
ENDMDL
