MODEL 1
REMARK VINA RESULT:      -5.6      0.000      0.000
REMARK  Name = 
REMARK  35 active torsions:
REMARK  status: ('A' for Active; 'I' for Inactive)
REMARK    1  A    between atoms: C_1  and  O_2
REMARK    2  A    between atoms: O_2  and  C_3
REMARK    3  A    between atoms: C_3  and  C_5
REMARK    4  A    between atoms: C_3  and  C_92
REMARK    5  A    between atoms: C_12  and  O_13
REMARK    6  A    between atoms: O_13  and  C_14
REMARK    7  A    between atoms: C_17  and  O_19
REMARK    8  A    between atoms: O_19  and  C_20
REMARK    9  A    between atoms: C_23  and  O_25
REMARK   10  A    between atoms: C_26  and  O_28
REMARK   11  A    between atoms: C_29  and  C_31
REMARK   12  A    between atoms: C_33  and  O_35
REMARK   13  A    between atoms: C_36  and  C_38
REMARK   14  A    between atoms: C_40  and  C_41
REMARK   15  A    between atoms: C_42  and  O_43
REMARK   16  A    between atoms: C_45  and  O_46
REMARK   17  A    between atoms: C_50  and  O_52
REMARK   18  A    between atoms: O_52  and  C_53
REMARK   19  A    between atoms: C_56  and  O_58
REMARK   20  A    between atoms: O_58  and  C_59
REMARK   21  A    between atoms: C_62  and  O_64
REMARK   22  A    between atoms: O_64  and  C_65
REMARK   23  A    between atoms: C_68  and  C_69
REMARK   24  A    between atoms: C_68  and  O_70
REMARK   25  A    between atoms: C_71  and  O_73
REMARK   26  A    between atoms: C_74  and  C_76
REMARK   27  A    between atoms: C_78  and  O_80
REMARK   28  A    between atoms: C_81  and  C_83
REMARK   29  A    between atoms: C_85  and  O_87
REMARK   30  A    between atoms: C_88  and  C_90
REMARK   31  A    between atoms: C_92  and  C_94
REMARK   32  A    between atoms: C_94  and  O_96
REMARK   33  A    between atoms: C_94  and  C_97
REMARK   34  A    between atoms: C_97  and  C_99
REMARK   35  A    between atoms: C_97  and  O_100
REMARK                            x       y       z     vdW  Elec       q    Type
REMARK                         _______ _______ _______ _____ _____    ______ ____
ROOT
ATOM      1  C   UNL     1       3.130  -4.296  26.999  0.00  0.00    +0.066 C 
ATOM      2  C   UNL     1       1.582  -4.373  27.212  0.00  0.00    +0.198 C 
ATOM      3  C   UNL     1       1.191  -3.321  28.260  0.00  0.00    +0.196 C 
ATOM      4  O   UNL     1       0.461  -3.625  29.199  0.00  0.00    -0.289 OA
ATOM      5  C   UNL     1       1.763  -1.947  28.046  0.00  0.00    +0.065 A 
ATOM      6  C   UNL     1       2.761  -1.813  27.059  0.00  0.00    -0.032 A 
ATOM      7  C   UNL     1       3.275  -0.562  26.781  0.00  0.00    +0.013 A 
ATOM      8  C   UNL     1       2.964   0.512  27.596  0.00  0.00    -0.007 A 
ATOM      9  C   UNL     1       2.049   0.435  28.649  0.00  0.00    +0.066 A 
ATOM     10  C   UNL     1       1.908   1.625  29.435  0.00  0.00    +0.134 A 
ATOM     11  C   UNL     1       2.679   2.798  29.199  0.00  0.00    +0.033 A 
ATOM     12  C   UNL     1       2.566   3.981  30.135  0.00  0.00    +0.051 C 
ATOM     13  C   UNL     1       3.550   2.815  28.109  0.00  0.00    +0.131 A 
ATOM     14  C   UNL     1       3.669   1.665  27.343  0.00  0.00    +0.055 A 
ATOM     15  C   UNL     1       1.404  -0.828  28.825  0.00  0.00    +0.139 A 
ATOM     16  C   UNL     1       3.352  -2.958  26.289  0.00  0.00    +0.045 C 
ENDROOT
BRANCH  10  17
ATOM     17  O   UNL     1       0.998   1.558  30.471  0.00  0.00    -0.506 OA
ATOM     18  H   UNL     1       0.362   0.844  30.301  0.00  0.00    +0.292 HD
ENDBRANCH  10  17
BRANCH  15  19
ATOM     19  O   UNL     1       0.446  -0.953  29.799  0.00  0.00    -0.505 OA
ATOM     20  H   UNL     1       0.869  -1.406  30.555  0.00  0.00    +0.292 HD
ENDBRANCH  15  19
BRANCH  13  21
ATOM     21  O   UNL     1       4.327   3.924  27.810  0.00  0.00    -0.463 OA
BRANCH  21  22
ATOM     22  C   UNL     1       5.412   4.157  28.748  0.00  0.00    +0.310 C 
ATOM     23  O   UNL     1       5.437   5.450  29.367  0.00  0.00    -0.336 OA
ATOM     24  C   UNL     1       5.967   6.557  28.644  0.00  0.00    +0.150 C 
ATOM     25  C   UNL     1       5.000   7.087  27.588  0.00  0.00    +0.041 C 
ATOM     26  C   UNL     1       7.374   6.231  28.139  0.00  0.00    +0.172 C 
ATOM     27  C   UNL     1       7.376   4.921  27.342  0.00  0.00    +0.158 C 
ATOM     28  C   UNL     1       6.767   3.787  28.165  0.00  0.00    +0.109 C 
BRANCH  26  29
ATOM     29  O   UNL     1       8.238   6.099  29.283  0.00  0.00    -0.387 OA
ATOM     30  H   UNL     1       8.092   5.229  29.689  0.00  0.00    +0.210 HD
ENDBRANCH  26  29
BRANCH  27  31
ATOM     31  O   UNL     1       6.666   4.967  26.103  0.00  0.00    -0.345 OA
BRANCH  31  32
ATOM     32  C   UNL     1       6.822   3.852  25.223  0.00  0.00    +0.254 C 
ATOM     33  O   UNL     1       7.933   4.071  24.355  0.00  0.00    -0.346 OA
ATOM     34  C   UNL     1       7.777   5.080  23.349  0.00  0.00    +0.149 C 
ATOM     35  C   UNL     1       8.125   6.468  23.890  0.00  0.00    +0.041 C 
ATOM     36  C   UNL     1       6.424   5.007  22.606  0.00  0.00    +0.172 C 
ATOM     37  C   UNL     1       5.238   4.761  23.546  0.00  0.00    +0.150 C 
ATOM     38  C   UNL     1       5.548   3.574  24.448  0.00  0.00    +0.095 C 
BRANCH  37  39
ATOM     39  O   UNL     1       4.903   5.932  24.295  0.00  0.00    -0.389 OA
ATOM     40  H   UNL     1       5.378   6.690  23.895  0.00  0.00    +0.210 HD
ENDBRANCH  37  39
BRANCH  36  41
ATOM     41  O   UNL     1       6.491   3.905  21.682  0.00  0.00    -0.387 OA
ATOM     42  H   UNL     1       6.364   3.083  22.187  0.00  0.00    +0.210 HD
ENDBRANCH  36  41
ENDBRANCH  31  32
ENDBRANCH  27  31
ENDBRANCH  21  22
ENDBRANCH  13  21
BRANCH   2  43
ATOM     43  O   UNL     1       1.017  -4.128  25.924  0.00  0.00    -0.340 OA
BRANCH  43  44
ATOM     44  C   UNL     1       0.800  -5.179  24.983  0.00  0.00    +0.254 C 
ATOM     45  O   UNL     1       1.357  -6.309  25.645  0.00  0.00    -0.346 OA
ATOM     46  C   UNL     1       1.806  -7.446  24.921  0.00  0.00    +0.149 C 
ATOM     47  C   UNL     1       3.113  -7.862  25.600  0.00  0.00    +0.041 C 
ATOM     48  C   UNL     1       1.995  -7.267  23.412  0.00  0.00    +0.172 C 
ATOM     49  C   UNL     1       2.444  -5.853  23.065  0.00  0.00    +0.157 C 
ATOM     50  C   UNL     1       1.414  -4.853  23.613  0.00  0.00    +0.095 C 
BRANCH  48  51
ATOM     51  O   UNL     1       0.744  -7.506  22.744  0.00  0.00    -0.387 OA
ATOM     52  H   UNL     1       0.136  -7.908  23.389  0.00  0.00    +0.210 HD
ENDBRANCH  48  51
BRANCH  49  53
ATOM     53  O   UNL     1       3.776  -5.508  23.482  0.00  0.00    -0.345 OA
BRANCH  53  54
ATOM     54  C   UNL     1       4.609  -4.754  22.571  0.00  0.00    +0.254 C 
ATOM     55  O   UNL     1       5.770  -5.524  22.313  0.00  0.00    -0.346 OA
ATOM     56  C   UNL     1       7.054  -4.933  22.194  0.00  0.00    +0.149 C 
ATOM     57  C   UNL     1       7.929  -5.558  23.274  0.00  0.00    +0.041 C 
ATOM     58  C   UNL     1       7.108  -3.407  22.032  0.00  0.00    +0.172 C 
ATOM     59  C   UNL     1       6.141  -2.642  22.923  0.00  0.00    +0.157 C 
ATOM     60  C   UNL     1       4.767  -3.291  22.998  0.00  0.00    +0.095 C 
BRANCH  58  61
ATOM     61  O   UNL     1       8.442  -2.897  22.080  0.00  0.00    -0.387 OA
ATOM     62  H   UNL     1       8.842  -3.116  22.948  0.00  0.00    +0.210 HD
ENDBRANCH  58  61
BRANCH  59  63
ATOM     63  O   UNL     1       6.606  -2.496  24.269  0.00  0.00    -0.345 OA
BRANCH  63  64
ATOM     64  C   UNL     1       6.261  -1.272  24.914  0.00  0.00    +0.254 C 
ATOM     65  O   UNL     1       6.474  -0.182  24.028  0.00  0.00    -0.346 OA
ATOM     66  C   UNL     1       7.777   0.420  23.952  0.00  0.00    +0.149 C 
ATOM     67  C   UNL     1       8.542  -0.029  22.712  0.00  0.00    +0.041 C 
ATOM     68  C   UNL     1       8.649   0.361  25.219  0.00  0.00    +0.174 C 
ATOM     69  C   UNL     1       8.489  -0.937  26.027  0.00  0.00    +0.096 C 
ATOM     70  C   UNL     1       9.203  -2.146  25.412  0.00  0.00    +0.044 C 
ATOM     71  C   UNL     1       6.996  -1.163  26.242  0.00  0.00    +0.098 C 
BRANCH  69  72
ATOM     72  O   UNL     1       9.094  -0.705  27.320  0.00  0.00    -0.386 OA
ATOM     73  H   UNL     1       8.795  -1.419  27.914  0.00  0.00    +0.210 HD
ENDBRANCH  69  72
BRANCH  68  74
ATOM     74  O   UNL     1       8.242   1.458  26.069  0.00  0.00    -0.386 OA
ATOM     75  H   UNL     1       8.949   2.127  25.958  0.00  0.00    +0.210 HD
ENDBRANCH  68  74
ENDBRANCH  63  64
ENDBRANCH  59  63
ENDBRANCH  53  54
ENDBRANCH  49  53
ENDBRANCH  43  44
ENDBRANCH   2  43
BRANCH   1  76
ATOM     76  C   UNL     1       3.975  -4.559  28.293  0.00  0.00    +0.193 C 
BRANCH  76  77
ATOM     77  C   UNL     1       4.679  -5.932  28.361  0.00  0.00    +0.193 C 
ATOM     78  O   UNL     1       4.001  -6.967  28.331  0.00  0.00    -0.292 OA
BRANCH  77  79
ATOM     79  C   UNL     1       6.204  -5.998  28.583  0.00  0.00    +0.211 C 
BRANCH  79  80
ATOM     80  O   UNL     1       6.609  -7.296  29.032  0.00  0.00    -0.382 OA
ATOM     81  H   UNL     1       6.855  -7.825  28.257  0.00  0.00    +0.210 HD
ENDBRANCH  79  80
BRANCH  79  82
ATOM     82  C   UNL     1       6.950  -5.623  27.278  0.00  0.00    +0.147 C 
ATOM     83  C   UNL     1       6.087  -5.791  26.032  0.00  0.00    +0.041 C 
BRANCH  82  84
ATOM     84  O   UNL     1       7.364  -4.252  27.348  0.00  0.00    -0.389 OA
ATOM     85  H   UNL     1       7.895  -4.062  26.556  0.00  0.00    +0.210 HD
ENDBRANCH  82  84
ENDBRANCH  79  82
ENDBRANCH  77  79
ENDBRANCH  76  77
BRANCH  76  87
ATOM     86  C   UNL     1       4.597  -2.779  29.742  0.00  0.00    +0.194 C 
ATOM     87  O   UNL     1       4.917  -3.534  28.573  0.00  0.00    -0.372 OA
ENDBRANCH  76  87
ENDBRANCH   1  76
TORSDOF 26
ENDMDL
MODEL 2
REMARK VINA RESULT:      -5.3      2.067      9.399
REMARK  Name = 
REMARK  35 active torsions:
REMARK  status: ('A' for Active; 'I' for Inactive)
REMARK    1  A    between atoms: C_1  and  O_2
REMARK    2  A    between atoms: O_2  and  C_3
REMARK    3  A    between atoms: C_3  and  C_5
REMARK    4  A    between atoms: C_3  and  C_92
REMARK    5  A    between atoms: C_12  and  O_13
REMARK    6  A    between atoms: O_13  and  C_14
REMARK    7  A    between atoms: C_17  and  O_19
REMARK    8  A    between atoms: O_19  and  C_20
REMARK    9  A    between atoms: C_23  and  O_25
REMARK   10  A    between atoms: C_26  and  O_28
REMARK   11  A    between atoms: C_29  and  C_31
REMARK   12  A    between atoms: C_33  and  O_35
REMARK   13  A    between atoms: C_36  and  C_38
REMARK   14  A    between atoms: C_40  and  C_41
REMARK   15  A    between atoms: C_42  and  O_43
REMARK   16  A    between atoms: C_45  and  O_46
REMARK   17  A    between atoms: C_50  and  O_52
REMARK   18  A    between atoms: O_52  and  C_53
REMARK   19  A    between atoms: C_56  and  O_58
REMARK   20  A    between atoms: O_58  and  C_59
REMARK   21  A    between atoms: C_62  and  O_64
REMARK   22  A    between atoms: O_64  and  C_65
REMARK   23  A    between atoms: C_68  and  C_69
REMARK   24  A    between atoms: C_68  and  O_70
REMARK   25  A    between atoms: C_71  and  O_73
REMARK   26  A    between atoms: C_74  and  C_76
REMARK   27  A    between atoms: C_78  and  O_80
REMARK   28  A    between atoms: C_81  and  C_83
REMARK   29  A    between atoms: C_85  and  O_87
REMARK   30  A    between atoms: C_88  and  C_90
REMARK   31  A    between atoms: C_92  and  C_94
REMARK   32  A    between atoms: C_94  and  O_96
REMARK   33  A    between atoms: C_94  and  C_97
REMARK   34  A    between atoms: C_97  and  C_99
REMARK   35  A    between atoms: C_97  and  O_100
REMARK                            x       y       z     vdW  Elec       q    Type
REMARK                         _______ _______ _______ _____ _____    ______ ____
ROOT
ATOM      1  C   UNL     1       3.660   3.820  24.993  0.00  0.00    +0.066 C 
ATOM      2  C   UNL     1       3.934   4.587  26.329  0.00  0.00    +0.198 C 
ATOM      3  C   UNL     1       3.046   3.977  27.422  0.00  0.00    +0.196 C 
ATOM      4  O   UNL     1       2.381   4.703  28.155  0.00  0.00    -0.289 OA
ATOM      5  C   UNL     1       3.056   2.475  27.506  0.00  0.00    +0.065 A 
ATOM      6  C   UNL     1       3.686   1.779  26.454  0.00  0.00    -0.032 A 
ATOM      7  C   UNL     1       3.777   0.402  26.513  0.00  0.00    +0.013 A 
ATOM      8  C   UNL     1       3.085  -0.298  27.486  0.00  0.00    -0.007 A 
ATOM      9  C   UNL     1       2.366   0.323  28.510  0.00  0.00    +0.066 A 
ATOM     10  C   UNL     1       1.647  -0.557  29.383  0.00  0.00    +0.134 A 
ATOM     11  C   UNL     1       1.620  -1.968  29.201  0.00  0.00    +0.033 A 
ATOM     12  C   UNL     1       0.750  -2.832  30.087  0.00  0.00    +0.051 C 
ATOM     13  C   UNL     1       2.388  -2.522  28.176  0.00  0.00    +0.131 A 
ATOM     14  C   UNL     1       3.094  -1.665  27.345  0.00  0.00    +0.055 A 
ATOM     15  C   UNL     1       2.413   1.751  28.529  0.00  0.00    +0.139 A 
ATOM     16  C   UNL     1       4.251   2.427  25.223  0.00  0.00    +0.045 C 
ENDROOT
BRANCH  10  17
ATOM     17  O   UNL     1       0.943   0.050  30.404  0.00  0.00    -0.506 OA
ATOM     18  H   UNL     1       0.352   0.727  30.035  0.00  0.00    +0.292 HD
ENDBRANCH  10  17
BRANCH  15  19
ATOM     19  O   UNL     1       1.783   2.421  29.547  0.00  0.00    -0.505 OA
ATOM     20  H   UNL     1       1.886   3.377  29.363  0.00  0.00    +0.292 HD
ENDBRANCH  15  19
BRANCH  13  21
ATOM     21  O   UNL     1       2.420  -3.889  27.941  0.00  0.00    -0.463 OA
BRANCH  21  22
ATOM     22  C   UNL     1       2.978  -4.665  29.034  0.00  0.00    +0.310 C 
ATOM     23  O   UNL     1       4.319  -4.334  29.417  0.00  0.00    -0.336 OA
ATOM     24  C   UNL     1       5.407  -4.835  28.648  0.00  0.00    +0.150 C 
ATOM     25  C   UNL     1       5.599  -4.077  27.337  0.00  0.00    +0.041 C 
ATOM     26  C   UNL     1       5.301  -6.356  28.514  0.00  0.00    +0.172 C 
ATOM     27  C   UNL     1       3.925  -6.759  27.968  0.00  0.00    +0.158 C 
ATOM     28  C   UNL     1       2.808  -6.162  28.822  0.00  0.00    +0.109 C 
BRANCH  26  29
ATOM     29  O   UNL     1       5.486  -6.931  29.820  0.00  0.00    -0.387 OA
ATOM     30  H   UNL     1       5.991  -6.311  30.370  0.00  0.00    +0.210 HD
ENDBRANCH  26  29
BRANCH  27  31
ATOM     31  O   UNL     1       3.673  -6.368  26.617  0.00  0.00    -0.345 OA
BRANCH  31  32
ATOM     32  C   UNL     1       3.766  -7.385  25.618  0.00  0.00    +0.254 C 
ATOM     33  O   UNL     1       4.363  -6.854  24.438  0.00  0.00    -0.346 OA
ATOM     34  C   UNL     1       3.580  -5.922  23.681  0.00  0.00    +0.149 C 
ATOM     35  C   UNL     1       3.735  -4.496  24.214  0.00  0.00    +0.041 C 
ATOM     36  C   UNL     1       2.115  -6.370  23.477  0.00  0.00    +0.172 C 
ATOM     37  C   UNL     1       1.484  -6.949  24.749  0.00  0.00    +0.150 C 
ATOM     38  C   UNL     1       2.412  -8.007  25.333  0.00  0.00    +0.095 C 
BRANCH  37  39
ATOM     39  O   UNL     1       1.170  -5.927  25.698  0.00  0.00    -0.389 OA
ATOM     40  H   UNL     1       0.580  -5.281  25.259  0.00  0.00    +0.210 HD
ENDBRANCH  37  39
BRANCH  36  41
ATOM     41  O   UNL     1       2.108  -7.400  22.471  0.00  0.00    -0.387 OA
ATOM     42  H   UNL     1       1.871  -8.238  22.904  0.00  0.00    +0.210 HD
ENDBRANCH  36  41
ENDBRANCH  31  32
ENDBRANCH  27  31
ENDBRANCH  21  22
ENDBRANCH  13  21
BRANCH   2  43
ATOM     43  O   UNL     1       5.331   4.418  26.574  0.00  0.00    -0.340 OA
BRANCH  43  44
ATOM     44  C   UNL     1       6.313   5.237  25.938  0.00  0.00    +0.254 C 
ATOM     45  O   UNL     1       5.962   5.133  24.563  0.00  0.00    -0.346 OA
ATOM     46  C   UNL     1       6.913   5.366  23.534  0.00  0.00    +0.149 C 
ATOM     47  C   UNL     1       6.645   4.283  22.488  0.00  0.00    +0.041 C 
ATOM     48  C   UNL     1       8.386   5.381  23.955  0.00  0.00    +0.172 C 
ATOM     49  C   UNL     1       8.653   4.419  25.106  0.00  0.00    +0.157 C 
ATOM     50  C   UNL     1       7.740   4.789  26.286  0.00  0.00    +0.095 C 
BRANCH  48  51
ATOM     51  O   UNL     1       8.741   6.703  24.396  0.00  0.00    -0.387 OA
ATOM     52  H   UNL     1       8.414   7.335  23.732  0.00  0.00    +0.210 HD
ENDBRANCH  48  51
BRANCH  49  53
ATOM     53  O   UNL     1       8.545   3.023  24.783  0.00  0.00    -0.345 OA
BRANCH  53  54
ATOM     54  C   UNL     1       9.588   2.420  23.982  0.00  0.00    +0.254 C 
ATOM     55  O   UNL     1       9.111   2.332  22.651  0.00  0.00    -0.346 OA
ATOM     56  C   UNL     1       9.385   1.211  21.825  0.00  0.00    +0.149 C 
ATOM     57  C   UNL     1       8.040   0.613  21.432  0.00  0.00    +0.041 C 
ATOM     58  C   UNL     1      10.479   0.245  22.302  0.00  0.00    +0.172 C 
ATOM     59  C   UNL     1      10.448  -0.060  23.792  0.00  0.00    +0.157 C 
ATOM     60  C   UNL     1      10.184   1.172  24.643  0.00  0.00    +0.095 C 
BRANCH  58  61
ATOM     61  O   UNL     1      10.569  -0.926  21.488  0.00  0.00    -0.387 OA
ATOM     62  H   UNL     1       9.747  -1.452  21.584  0.00  0.00    +0.210 HD
ENDBRANCH  58  61
BRANCH  59  63
ATOM     63  O   UNL     1       9.461  -1.034  24.149  0.00  0.00    -0.345 OA
BRANCH  63  64
ATOM     64  C   UNL     1       9.472  -2.236  23.383  0.00  0.00    +0.254 C 
ATOM     65  O   UNL     1       8.253  -2.363  22.664  0.00  0.00    -0.346 OA
ATOM     66  C   UNL     1       7.120  -2.976  23.301  0.00  0.00    +0.149 C 
ATOM     67  C   UNL     1       6.102  -1.943  23.771  0.00  0.00    +0.041 C 
ATOM     68  C   UNL     1       7.411  -4.032  24.383  0.00  0.00    +0.174 C 
ATOM     69  C   UNL     1       8.652  -3.722  25.237  0.00  0.00    +0.096 C 
ATOM     70  C   UNL     1       8.429  -2.627  26.286  0.00  0.00    +0.044 C 
ATOM     71  C   UNL     1       9.802  -3.418  24.283  0.00  0.00    +0.098 C 
BRANCH  69  72
ATOM     72  O   UNL     1       8.979  -4.933  25.957  0.00  0.00    -0.386 OA
ATOM     73  H   UNL     1       9.691  -4.714  26.588  0.00  0.00    +0.210 HD
ENDBRANCH  69  72
BRANCH  68  74
ATOM     74  O   UNL     1       7.651  -5.285  23.703  0.00  0.00    -0.386 OA
ATOM     75  H   UNL     1       7.189  -5.189  22.846  0.00  0.00    +0.210 HD
ENDBRANCH  68  74
ENDBRANCH  63  64
ENDBRANCH  59  63
ENDBRANCH  53  54
ENDBRANCH  49  53
ENDBRANCH  43  44
ENDBRANCH   2  43
BRANCH   1  76
ATOM     76  C   UNL     1       2.171   3.886  24.505  0.00  0.00    +0.193 C 
BRANCH  76  77
ATOM     77  C   UNL     1       1.878   4.926  23.401  0.00  0.00    +0.193 C 
ATOM     78  O   UNL     1       0.705   5.216  23.132  0.00  0.00    -0.292 OA
BRANCH  77  79
ATOM     79  C   UNL     1       3.040   5.503  22.568  0.00  0.00    +0.211 C 
BRANCH  79  80
ATOM     80  O   UNL     1       3.406   4.620  21.502  0.00  0.00    -0.382 OA
ATOM     81  H   UNL     1       3.012   3.750  21.677  0.00  0.00    +0.210 HD
ENDBRANCH  79  80
BRANCH  79  82
ATOM     82  C   UNL     1       2.655   6.894  22.005  0.00  0.00    +0.147 C 
ATOM     83  C   UNL     1       2.957   7.036  20.517  0.00  0.00    +0.041 C 
BRANCH  82  84
ATOM     84  O   UNL     1       1.250   7.108  22.195  0.00  0.00    -0.389 OA
ATOM     85  H   UNL     1       1.065   8.044  22.009  0.00  0.00    +0.210 HD
ENDBRANCH  82  84
ENDBRANCH  79  82
ENDBRANCH  77  79
ENDBRANCH  76  77
BRANCH  76  87
ATOM     86  C   UNL     1       0.443   2.279  24.797  0.00  0.00    +0.194 C 
ATOM     87  O   UNL     1       1.648   2.626  24.112  0.00  0.00    -0.372 OA
ENDBRANCH  76  87
ENDBRANCH   1  76
TORSDOF 26
ENDMDL
MODEL 3
REMARK VINA RESULT:      -5.1      2.369     10.413
REMARK  Name = 
REMARK  35 active torsions:
REMARK  status: ('A' for Active; 'I' for Inactive)
REMARK    1  A    between atoms: C_1  and  O_2
REMARK    2  A    between atoms: O_2  and  C_3
REMARK    3  A    between atoms: C_3  and  C_5
REMARK    4  A    between atoms: C_3  and  C_92
REMARK    5  A    between atoms: C_12  and  O_13
REMARK    6  A    between atoms: O_13  and  C_14
REMARK    7  A    between atoms: C_17  and  O_19
REMARK    8  A    between atoms: O_19  and  C_20
REMARK    9  A    between atoms: C_23  and  O_25
REMARK   10  A    between atoms: C_26  and  O_28
REMARK   11  A    between atoms: C_29  and  C_31
REMARK   12  A    between atoms: C_33  and  O_35
REMARK   13  A    between atoms: C_36  and  C_38
REMARK   14  A    between atoms: C_40  and  C_41
REMARK   15  A    between atoms: C_42  and  O_43
REMARK   16  A    between atoms: C_45  and  O_46
REMARK   17  A    between atoms: C_50  and  O_52
REMARK   18  A    between atoms: O_52  and  C_53
REMARK   19  A    between atoms: C_56  and  O_58
REMARK   20  A    between atoms: O_58  and  C_59
REMARK   21  A    between atoms: C_62  and  O_64
REMARK   22  A    between atoms: O_64  and  C_65
REMARK   23  A    between atoms: C_68  and  C_69
REMARK   24  A    between atoms: C_68  and  O_70
REMARK   25  A    between atoms: C_71  and  O_73
REMARK   26  A    between atoms: C_74  and  C_76
REMARK   27  A    between atoms: C_78  and  O_80
REMARK   28  A    between atoms: C_81  and  C_83
REMARK   29  A    between atoms: C_85  and  O_87
REMARK   30  A    between atoms: C_88  and  C_90
REMARK   31  A    between atoms: C_92  and  C_94
REMARK   32  A    between atoms: C_94  and  O_96
REMARK   33  A    between atoms: C_94  and  C_97
REMARK   34  A    between atoms: C_97  and  C_99
REMARK   35  A    between atoms: C_97  and  O_100
REMARK                            x       y       z     vdW  Elec       q    Type
REMARK                         _______ _______ _______ _____ _____    ______ ____
ROOT
ATOM      1  C   UNL     1       7.920   3.490  24.530  0.00  0.00    +0.066 C 
ATOM      2  C   UNL     1       6.910   3.601  23.340  0.00  0.00    +0.198 C 
ATOM      3  C   UNL     1       6.874   2.248  22.615  0.00  0.00    +0.196 C 
ATOM      4  O   UNL     1       6.970   2.199  21.392  0.00  0.00    -0.289 OA
ATOM      5  C   UNL     1       6.726   1.041  23.499  0.00  0.00    +0.065 A 
ATOM      6  C   UNL     1       6.859   1.243  24.889  0.00  0.00    -0.032 A 
ATOM      7  C   UNL     1       6.671   0.179  25.749  0.00  0.00    +0.013 A 
ATOM      8  C   UNL     1       6.553  -1.106  25.247  0.00  0.00    -0.007 A 
ATOM      9  C   UNL     1       6.501  -1.393  23.881  0.00  0.00    +0.066 A 
ATOM     10  C   UNL     1       6.456  -2.784  23.542  0.00  0.00    +0.134 A 
ATOM     11  C   UNL     1       6.510  -3.816  24.520  0.00  0.00    +0.033 A 
ATOM     12  C   UNL     1       6.575  -5.266  24.092  0.00  0.00    +0.051 C 
ATOM     13  C   UNL     1       6.527  -3.456  25.868  0.00  0.00    +0.131 A 
ATOM     14  C   UNL     1       6.555  -2.107  26.189  0.00  0.00    +0.055 A 
ATOM     15  C   UNL     1       6.537  -0.265  23.004  0.00  0.00    +0.139 A 
ATOM     16  C   UNL     1       7.235   2.550  25.525  0.00  0.00    +0.045 C 
ENDROOT
BRANCH  10  17
ATOM     17  O   UNL     1       6.395  -3.074  22.193  0.00  0.00    -0.506 OA
ATOM     18  H   UNL     1       6.562  -2.268  21.678  0.00  0.00    +0.292 HD
ENDBRANCH  10  17
BRANCH  15  19
ATOM     19  O   UNL     1       6.423  -0.472  21.652  0.00  0.00    -0.505 OA
ATOM     20  H   UNL     1       5.669   0.071  21.346  0.00  0.00    +0.292 HD
ENDBRANCH  15  19
BRANCH  13  21
ATOM     21  O   UNL     1       6.571  -4.404  26.879  0.00  0.00    -0.463 OA
BRANCH  21  22
ATOM     22  C   UNL     1       5.910  -3.994  28.106  0.00  0.00    +0.310 C 
ATOM     23  O   UNL     1       5.953  -4.935  29.186  0.00  0.00    -0.336 OA
ATOM     24  C   UNL     1       5.044  -6.031  29.190  0.00  0.00    +0.150 C 
ATOM     25  C   UNL     1       5.450  -7.136  28.217  0.00  0.00    +0.041 C 
ATOM     26  C   UNL     1       3.608  -5.525  29.042  0.00  0.00    +0.172 C 
ATOM     27  C   UNL     1       3.474  -4.621  27.810  0.00  0.00    +0.158 C 
ATOM     28  C   UNL     1       4.497  -3.488  27.857  0.00  0.00    +0.109 C 
BRANCH  26  29
ATOM     29  O   UNL     1       3.276  -4.775  30.225  0.00  0.00    -0.387 OA
ATOM     30  H   UNL     1       3.099  -3.854  29.976  0.00  0.00    +0.210 HD
ENDBRANCH  26  29
BRANCH  27  31
ATOM     31  O   UNL     1       3.640  -5.283  26.554  0.00  0.00    -0.345 OA
BRANCH  31  32
ATOM     32  C   UNL     1       2.804  -4.853  25.478  0.00  0.00    +0.254 C 
ATOM     33  O   UNL     1       1.451  -5.221  25.738  0.00  0.00    -0.346 OA
ATOM     34  C   UNL     1       1.137  -6.618  25.669  0.00  0.00    +0.149 C 
ATOM     35  C   UNL     1       1.420  -7.321  26.998  0.00  0.00    +0.041 C 
ATOM     36  C   UNL     1       1.738  -7.325  24.433  0.00  0.00    +0.172 C 
ATOM     37  C   UNL     1       3.189  -6.916  24.157  0.00  0.00    +0.150 C 
ATOM     38  C   UNL     1       3.290  -5.396  24.148  0.00  0.00    +0.095 C 
BRANCH  37  39
ATOM     39  O   UNL     1       4.095  -7.510  25.090  0.00  0.00    -0.389 OA
ATOM     40  H   UNL     1       3.601  -7.684  25.918  0.00  0.00    +0.210 HD
ENDBRANCH  37  39
BRANCH  36  41
ATOM     41  O   UNL     1       0.948  -6.953  23.289  0.00  0.00    -0.387 OA
ATOM     42  H   UNL     1       1.308  -6.122  22.934  0.00  0.00    +0.210 HD
ENDBRANCH  36  41
ENDBRANCH  31  32
ENDBRANCH  27  31
ENDBRANCH  21  22
ENDBRANCH  13  21
BRANCH   2  43
ATOM     43  O   UNL     1       5.664   3.956  23.941  0.00  0.00    -0.340 OA
BRANCH  43  44
ATOM     44  C   UNL     1       4.421   3.448  23.459  0.00  0.00    +0.254 C 
ATOM     45  O   UNL     1       4.098   4.357  22.413  0.00  0.00    -0.346 OA
ATOM     46  C   UNL     1       2.757   4.544  21.981  0.00  0.00    +0.149 C 
ATOM     47  C   UNL     1       2.615   6.053  21.762  0.00  0.00    +0.041 C 
ATOM     48  C   UNL     1       1.659   4.011  22.906  0.00  0.00    +0.172 C 
ATOM     49  C   UNL     1       2.062   4.106  24.373  0.00  0.00    +0.157 C 
ATOM     50  C   UNL     1       3.377   3.338  24.579  0.00  0.00    +0.095 C 
BRANCH  48  51
ATOM     51  O   UNL     1       1.417   2.625  22.607  0.00  0.00    -0.387 OA
ATOM     52  H   UNL     1       1.306   2.545  21.643  0.00  0.00    +0.210 HD
ENDBRANCH  48  51
BRANCH  49  53
ATOM     53  O   UNL     1       2.150   5.439  24.904  0.00  0.00    -0.345 OA
BRANCH  53  54
ATOM     54  C   UNL     1       1.909   5.632  26.317  0.00  0.00    +0.254 C 
ATOM     55  O   UNL     1       3.167   5.814  26.945  0.00  0.00    -0.346 OA
ATOM     56  C   UNL     1       3.459   5.261  28.219  0.00  0.00    +0.149 C 
ATOM     57  C   UNL     1       4.655   4.335  28.034  0.00  0.00    +0.041 C 
ATOM     58  C   UNL     1       2.273   4.735  29.040  0.00  0.00    +0.172 C 
ATOM     59  C   UNL     1       1.243   3.957  28.235  0.00  0.00    +0.157 C 
ATOM     60  C   UNL     1       0.934   4.599  26.891  0.00  0.00    +0.095 C 
BRANCH  58  61
ATOM     61  O   UNL     1       2.686   4.059  30.229  0.00  0.00    -0.387 OA
ATOM     62  H   UNL     1       1.895   3.742  30.713  0.00  0.00    +0.210 HD
ENDBRANCH  58  61
BRANCH  59  63
ATOM     63  O   UNL     1       1.635   2.605  27.970  0.00  0.00    -0.345 OA
BRANCH  63  64
ATOM     64  C   UNL     1       0.744   1.598  28.445  0.00  0.00    +0.254 C 
ATOM     65  O   UNL     1       1.082   1.244  29.779  0.00  0.00    -0.346 OA
ATOM     66  C   UNL     1       2.079   0.235  30.009  0.00  0.00    +0.149 C 
ATOM     67  C   UNL     1       3.421   0.839  30.409  0.00  0.00    +0.041 C 
ATOM     68  C   UNL     1       2.235  -0.853  28.931  0.00  0.00    +0.174 C 
ATOM     69  C   UNL     1       2.029  -0.342  27.495  0.00  0.00    +0.096 C 
ATOM     70  C   UNL     1       3.214   0.456  26.942  0.00  0.00    +0.044 C 
ATOM     71  C   UNL     1       0.715   0.432  27.468  0.00  0.00    +0.098 C 
BRANCH  69  72
ATOM     72  O   UNL     1       1.876  -1.507  26.653  0.00  0.00    -0.386 OA
ATOM     73  H   UNL     1       2.195  -2.278  27.159  0.00  0.00    +0.210 HD
ENDBRANCH  69  72
BRANCH  68  74
ATOM     74  O   UNL     1       1.226  -1.856  29.187  0.00  0.00    -0.386 OA
ATOM     75  H   UNL     1       0.523  -1.376  29.671  0.00  0.00    +0.210 HD
ENDBRANCH  68  74
ENDBRANCH  63  64
ENDBRANCH  59  63
ENDBRANCH  53  54
ENDBRANCH  49  53
ENDBRANCH  43  44
ENDBRANCH   2  43
BRANCH   1  76
ATOM     76  C   UNL     1       9.384   3.126  24.104  0.00  0.00    +0.193 C 
BRANCH  76  77
ATOM     77  C   UNL     1      10.359   4.318  23.989  0.00  0.00    +0.193 C 
ATOM     78  O   UNL     1       9.965   5.458  24.267  0.00  0.00    -0.292 OA
BRANCH  77  79
ATOM     79  C   UNL     1      11.774   4.094  23.418  0.00  0.00    +0.211 C 
BRANCH  79  80
ATOM     80  O   UNL     1      11.723   3.490  22.121  0.00  0.00    -0.382 OA
ATOM     81  H   UNL     1      10.871   3.034  22.029  0.00  0.00    +0.210 HD
ENDBRANCH  79  80
BRANCH  79  82
ATOM     82  C   UNL     1      12.543   5.437  23.356  0.00  0.00    +0.147 C 
ATOM     83  C   UNL     1      12.401   6.262  24.631  0.00  0.00    +0.041 C 
BRANCH  82  84
ATOM     84  O   UNL     1      13.938   5.174  23.153  0.00  0.00    -0.389 OA
ATOM     85  H   UNL     1      14.095   4.236  23.360  0.00  0.00    +0.210 HD
ENDBRANCH  82  84
ENDBRANCH  79  82
ENDBRANCH  77  79
ENDBRANCH  76  77
BRANCH  76  87
ATOM     86  C   UNL     1      10.368   0.962  24.162  0.00  0.00    +0.194 C 
ATOM     87  O   UNL     1       9.973   2.114  24.908  0.00  0.00    -0.372 OA
ENDBRANCH  76  87
ENDBRANCH   1  76
TORSDOF 26
ENDMDL
MODEL 4
REMARK VINA RESULT:      -4.8      2.006     10.243
REMARK  Name = 
REMARK  35 active torsions:
REMARK  status: ('A' for Active; 'I' for Inactive)
REMARK    1  A    between atoms: C_1  and  O_2
REMARK    2  A    between atoms: O_2  and  C_3
REMARK    3  A    between atoms: C_3  and  C_5
REMARK    4  A    between atoms: C_3  and  C_92
REMARK    5  A    between atoms: C_12  and  O_13
REMARK    6  A    between atoms: O_13  and  C_14
REMARK    7  A    between atoms: C_17  and  O_19
REMARK    8  A    between atoms: O_19  and  C_20
REMARK    9  A    between atoms: C_23  and  O_25
REMARK   10  A    between atoms: C_26  and  O_28
REMARK   11  A    between atoms: C_29  and  C_31
REMARK   12  A    between atoms: C_33  and  O_35
REMARK   13  A    between atoms: C_36  and  C_38
REMARK   14  A    between atoms: C_40  and  C_41
REMARK   15  A    between atoms: C_42  and  O_43
REMARK   16  A    between atoms: C_45  and  O_46
REMARK   17  A    between atoms: C_50  and  O_52
REMARK   18  A    between atoms: O_52  and  C_53
REMARK   19  A    between atoms: C_56  and  O_58
REMARK   20  A    between atoms: O_58  and  C_59
REMARK   21  A    between atoms: C_62  and  O_64
REMARK   22  A    between atoms: O_64  and  C_65
REMARK   23  A    between atoms: C_68  and  C_69
REMARK   24  A    between atoms: C_68  and  O_70
REMARK   25  A    between atoms: C_71  and  O_73
REMARK   26  A    between atoms: C_74  and  C_76
REMARK   27  A    between atoms: C_78  and  O_80
REMARK   28  A    between atoms: C_81  and  C_83
REMARK   29  A    between atoms: C_85  and  O_87
REMARK   30  A    between atoms: C_88  and  C_90
REMARK   31  A    between atoms: C_92  and  C_94
REMARK   32  A    between atoms: C_94  and  O_96
REMARK   33  A    between atoms: C_94  and  C_97
REMARK   34  A    between atoms: C_97  and  C_99
REMARK   35  A    between atoms: C_97  and  O_100
REMARK                            x       y       z     vdW  Elec       q    Type
REMARK                         _______ _______ _______ _____ _____    ______ ____
ROOT
ATOM      1  C   UNL     1       8.551   3.205  24.847  0.00  0.00    +0.066 C 
ATOM      2  C   UNL     1       7.557   3.563  23.694  0.00  0.00    +0.198 C 
ATOM      3  C   UNL     1       7.278   2.286  22.888  0.00  0.00    +0.196 C 
ATOM      4  O   UNL     1       7.345   2.301  21.663  0.00  0.00    -0.289 OA
ATOM      5  C   UNL     1       6.939   1.067  23.700  0.00  0.00    +0.065 A 
ATOM      6  C   UNL     1       7.127   1.152  25.095  0.00  0.00    -0.032 A 
ATOM      7  C   UNL     1       6.774   0.081  25.893  0.00  0.00    +0.013 A 
ATOM      8  C   UNL     1       6.430  -1.129  25.316  0.00  0.00    -0.007 A 
ATOM      9  C   UNL     1       6.307  -1.313  23.937  0.00  0.00    +0.066 A 
ATOM     10  C   UNL     1       6.020  -2.651  23.514  0.00  0.00    +0.134 A 
ATOM     11  C   UNL     1       5.912  -3.740  24.425  0.00  0.00    +0.033 A 
ATOM     12  C   UNL     1       5.721  -5.148  23.907  0.00  0.00    +0.051 C 
ATOM     13  C   UNL     1       6.012  -3.476  25.792  0.00  0.00    +0.131 A 
ATOM     14  C   UNL     1       6.275  -2.175  26.195  0.00  0.00    +0.055 A 
ATOM     15  C   UNL     1       6.522  -0.153  23.131  0.00  0.00    +0.139 A 
ATOM     16  C   UNL     1       7.732   2.332  25.800  0.00  0.00    +0.045 C 
ENDROOT
BRANCH  10  17
ATOM     17  O   UNL     1       5.889  -2.838  22.153  0.00  0.00    -0.506 OA
ATOM     18  H   UNL     1       6.512  -3.521  21.855  0.00  0.00    +0.292 HD
ENDBRANCH  10  17
BRANCH  15  19
ATOM     19  O   UNL     1       6.352  -0.249  21.772  0.00  0.00    -0.505 OA
ATOM     20  H   UNL     1       6.905   0.449  21.368  0.00  0.00    +0.292 HD
ENDBRANCH  15  19
BRANCH  13  21
ATOM     21  O   UNL     1       5.909  -4.482  26.741  0.00  0.00    -0.463 OA
BRANCH  21  22
ATOM     22  C   UNL     1       5.348  -4.046  28.008  0.00  0.00    +0.310 C 
ATOM     23  O   UNL     1       5.627  -4.883  29.138  0.00  0.00    -0.336 OA
ATOM     24  C   UNL     1       4.863  -6.069  29.330  0.00  0.00    +0.150 C 
ATOM     25  C   UNL     1       5.286  -7.199  28.395  0.00  0.00    +0.041 C 
ATOM     26  C   UNL     1       3.369  -5.740  29.325  0.00  0.00    +0.172 C 
ATOM     27  C   UNL     1       2.988  -4.964  28.059  0.00  0.00    +0.158 C 
ATOM     28  C   UNL     1       3.865  -3.724  27.900  0.00  0.00    +0.109 C 
BRANCH  26  29
ATOM     29  O   UNL     1       3.086  -4.936  30.485  0.00  0.00    -0.387 OA
ATOM     30  H   UNL     1       3.079  -4.000  30.226  0.00  0.00    +0.210 HD
ENDBRANCH  26  29
BRANCH  27  31
ATOM     31  O   UNL     1       3.088  -5.706  26.842  0.00  0.00    -0.345 OA
BRANCH  31  32
ATOM     32  C   UNL     1       2.150  -5.392  25.810  0.00  0.00    +0.254 C 
ATOM     33  O   UNL     1       0.866  -5.914  26.146  0.00  0.00    -0.346 OA
ATOM     34  C   UNL     1       0.718  -7.339  26.103  0.00  0.00    +0.149 C 
ATOM     35  C   UNL     1       1.153  -7.988  27.419  0.00  0.00    +0.041 C 
ATOM     36  C   UNL     1       1.332  -7.986  24.840  0.00  0.00    +0.172 C 
ATOM     37  C   UNL     1       2.707  -7.411  24.483  0.00  0.00    +0.150 C 
ATOM     38  C   UNL     1       2.626  -5.890  24.459  0.00  0.00    +0.095 C 
BRANCH  37  39
ATOM     39  O   UNL     1       3.726  -7.881  25.369  0.00  0.00    -0.389 OA
ATOM     40  H   UNL     1       4.236  -7.105  25.678  0.00  0.00    +0.210 HD
ENDBRANCH  37  39
BRANCH  36  41
ATOM     41  O   UNL     1       0.443  -7.725  23.738  0.00  0.00    -0.387 OA
ATOM     42  H   UNL     1       0.890  -8.004  22.921  0.00  0.00    +0.210 HD
ENDBRANCH  36  41
ENDBRANCH  31  32
ENDBRANCH  27  31
ENDBRANCH  21  22
ENDBRANCH  13  21
BRANCH   2  43
ATOM     43  O   UNL     1       6.400   4.085  24.349  0.00  0.00    -0.340 OA
BRANCH  43  44
ATOM     44  C   UNL     1       5.082   3.854  23.851  0.00  0.00    +0.254 C 
ATOM     45  O   UNL     1       4.965   4.824  22.818  0.00  0.00    -0.346 OA
ATOM     46  C   UNL     1       3.697   5.294  22.381  0.00  0.00    +0.149 C 
ATOM     47  C   UNL     1       3.875   6.801  22.184  0.00  0.00    +0.041 C 
ATOM     48  C   UNL     1       2.504   4.989  23.291  0.00  0.00    +0.172 C 
ATOM     49  C   UNL     1       2.904   4.978  24.761  0.00  0.00    +0.157 C 
ATOM     50  C   UNL     1       4.028   3.949  24.964  0.00  0.00    +0.095 C 
BRANCH  48  51
ATOM     51  O   UNL     1       1.980   3.689  22.970  0.00  0.00    -0.387 OA
ATOM     52  H   UNL     1       1.137   3.583  23.444  0.00  0.00    +0.210 HD
ENDBRANCH  48  51
BRANCH  49  53
ATOM     53  O   UNL     1       3.264   6.256  25.313  0.00  0.00    -0.345 OA
BRANCH  53  54
ATOM     54  C   UNL     1       3.247   6.413  26.751  0.00  0.00    +0.254 C 
ATOM     55  O   UNL     1       4.592   6.415  27.198  0.00  0.00    -0.346 OA
ATOM     56  C   UNL     1       4.986   5.773  28.401  0.00  0.00    +0.149 C 
ATOM     57  C   UNL     1       6.020   4.720  28.022  0.00  0.00    +0.041 C 
ATOM     58  C   UNL     1       3.869   5.356  29.367  0.00  0.00    +0.172 C 
ATOM     59  C   UNL     1       2.648   4.744  28.697  0.00  0.00    +0.157 C 
ATOM     60  C   UNL     1       2.239   5.479  27.429  0.00  0.00    +0.095 C 
BRANCH  58  61
ATOM     61  O   UNL     1       4.355   4.582  30.467  0.00  0.00    -0.387 OA
ATOM     62  H   UNL     1       4.630   3.699  30.145  0.00  0.00    +0.210 HD
ENDBRANCH  58  61
BRANCH  59  63
ATOM     63  O   UNL     1       2.828   3.369  28.341  0.00  0.00    -0.345 OA
BRANCH  63  64
ATOM     64  C   UNL     1       2.189   2.421  29.193  0.00  0.00    +0.254 C 
ATOM     65  O   UNL     1       3.100   1.973  30.188  0.00  0.00    -0.346 OA
ATOM     66  C   UNL     1       3.976   0.872  29.897  0.00  0.00    +0.149 C 
ATOM     67  C   UNL     1       5.394   1.337  29.585  0.00  0.00    +0.041 C 
ATOM     68  C   UNL     1       3.475  -0.172  28.882  0.00  0.00    +0.174 C 
ATOM     69  C   UNL     1       2.644   0.425  27.734  0.00  0.00    +0.096 C 
ATOM     70  C   UNL     1       3.478   1.143  26.669  0.00  0.00    +0.044 C 
ATOM     71  C   UNL     1       1.569   1.310  28.357  0.00  0.00    +0.098 C 
BRANCH  69  72
ATOM     72  O   UNL     1       1.983  -0.679  27.076  0.00  0.00    -0.386 OA
ATOM     73  H   UNL     1       2.195  -1.488  27.578  0.00  0.00    +0.210 HD
ENDBRANCH  69  72
BRANCH  68  74
ATOM     74  O   UNL     1       2.626  -1.095  29.602  0.00  0.00    -0.386 OA
ATOM     75  H   UNL     1       1.896  -1.289  28.978  0.00  0.00    +0.210 HD
ENDBRANCH  68  74
ENDBRANCH  63  64
ENDBRANCH  59  63
ENDBRANCH  53  54
ENDBRANCH  49  53
ENDBRANCH  43  44
ENDBRANCH   2  43
BRANCH   1  76
ATOM     76  C   UNL     1       9.924   2.626  24.360  0.00  0.00    +0.193 C 
BRANCH  76  77
ATOM     77  C   UNL     1       9.979   1.090  24.200  0.00  0.00    +0.193 C 
ATOM     78  O   UNL     1      10.312   0.388  25.164  0.00  0.00    -0.292 OA
BRANCH  77  79
ATOM     79  C   UNL     1       9.733   0.457  22.816  0.00  0.00    +0.211 C 
BRANCH  79  80
ATOM     80  O   UNL     1      10.339   1.231  21.775  0.00  0.00    -0.382 OA
ATOM     81  H   UNL     1       9.643   1.735  21.323  0.00  0.00    +0.210 HD
ENDBRANCH  79  80
BRANCH  79  82
ATOM     82  C   UNL     1      10.272  -0.995  22.789  0.00  0.00    +0.147 C 
ATOM     83  C   UNL     1       9.891  -1.791  24.033  0.00  0.00    +0.041 C 
BRANCH  82  84
ATOM     84  O   UNL     1       9.737  -1.676  21.646  0.00  0.00    -0.389 OA
ATOM     85  H   UNL     1      10.119  -2.570  21.629  0.00  0.00    +0.210 HD
ENDBRANCH  82  84
ENDBRANCH  79  82
ENDBRANCH  77  79
ENDBRANCH  76  77
BRANCH  76  87
ATOM     86  C   UNL     1      11.658   3.907  23.357  0.00  0.00    +0.194 C 
ATOM     87  O   UNL     1      10.408   3.238  23.174  0.00  0.00    -0.372 OA
ENDBRANCH  76  87
ENDBRANCH   1  76
TORSDOF 26
ENDMDL
MODEL 5
REMARK VINA RESULT:      -4.1      2.004      9.238
REMARK  Name = 
REMARK  35 active torsions:
REMARK  status: ('A' for Active; 'I' for Inactive)
REMARK    1  A    between atoms: C_1  and  O_2
REMARK    2  A    between atoms: O_2  and  C_3
REMARK    3  A    between atoms: C_3  and  C_5
REMARK    4  A    between atoms: C_3  and  C_92
REMARK    5  A    between atoms: C_12  and  O_13
REMARK    6  A    between atoms: O_13  and  C_14
REMARK    7  A    between atoms: C_17  and  O_19
REMARK    8  A    between atoms: O_19  and  C_20
REMARK    9  A    between atoms: C_23  and  O_25
REMARK   10  A    between atoms: C_26  and  O_28
REMARK   11  A    between atoms: C_29  and  C_31
REMARK   12  A    between atoms: C_33  and  O_35
REMARK   13  A    between atoms: C_36  and  C_38
REMARK   14  A    between atoms: C_40  and  C_41
REMARK   15  A    between atoms: C_42  and  O_43
REMARK   16  A    between atoms: C_45  and  O_46
REMARK   17  A    between atoms: C_50  and  O_52
REMARK   18  A    between atoms: O_52  and  C_53
REMARK   19  A    between atoms: C_56  and  O_58
REMARK   20  A    between atoms: O_58  and  C_59
REMARK   21  A    between atoms: C_62  and  O_64
REMARK   22  A    between atoms: O_64  and  C_65
REMARK   23  A    between atoms: C_68  and  C_69
REMARK   24  A    between atoms: C_68  and  O_70
REMARK   25  A    between atoms: C_71  and  O_73
REMARK   26  A    between atoms: C_74  and  C_76
REMARK   27  A    between atoms: C_78  and  O_80
REMARK   28  A    between atoms: C_81  and  C_83
REMARK   29  A    between atoms: C_85  and  O_87
REMARK   30  A    between atoms: C_88  and  C_90
REMARK   31  A    between atoms: C_92  and  C_94
REMARK   32  A    between atoms: C_94  and  O_96
REMARK   33  A    between atoms: C_94  and  C_97
REMARK   34  A    between atoms: C_97  and  C_99
REMARK   35  A    between atoms: C_97  and  O_100
REMARK                            x       y       z     vdW  Elec       q    Type
REMARK                         _______ _______ _______ _____ _____    ______ ____
ROOT
ATOM      1  C   UNL     1       2.481   1.899  28.148  0.00  0.00    +0.066 C 
ATOM      2  C   UNL     1       3.407   3.067  27.672  0.00  0.00    +0.198 C 
ATOM      3  C   UNL     1       4.867   2.619  27.837  0.00  0.00    +0.196 C 
ATOM      4  O   UNL     1       5.681   3.355  28.386  0.00  0.00    -0.289 OA
ATOM      5  C   UNL     1       5.192   1.253  27.298  0.00  0.00    +0.065 A 
ATOM      6  C   UNL     1       4.107   0.442  26.907  0.00  0.00    -0.032 A 
ATOM      7  C   UNL     1       4.354  -0.796  26.348  0.00  0.00    +0.013 A 
ATOM      8  C   UNL     1       5.636  -1.318  26.357  0.00  0.00    -0.007 A 
ATOM      9  C   UNL     1       6.749  -0.606  26.810  0.00  0.00    +0.066 A 
ATOM     10  C   UNL     1       7.986  -1.329  26.820  0.00  0.00    +0.134 A 
ATOM     11  C   UNL     1       8.078  -2.699  26.441  0.00  0.00    +0.033 A 
ATOM     12  C   UNL     1       9.390  -3.439  26.583  0.00  0.00    +0.051 C 
ATOM     13  C   UNL     1       6.932  -3.337  25.968  0.00  0.00    +0.131 A 
ATOM     14  C   UNL     1       5.742  -2.625  25.947  0.00  0.00    +0.055 A 
ATOM     15  C   UNL     1       6.501   0.735  27.238  0.00  0.00    +0.139 A 
ATOM     16  C   UNL     1       2.663   0.811  27.086  0.00  0.00    +0.045 C 
ENDROOT
BRANCH  10  17
ATOM     17  O   UNL     1       9.091  -0.628  27.257  0.00  0.00    -0.506 OA
ATOM     18  H   UNL     1       8.810   0.217  27.644  0.00  0.00    +0.292 HD
ENDBRANCH  10  17
BRANCH  15  19
ATOM     19  O   UNL     1       7.562   1.512  27.632  0.00  0.00    -0.505 OA
ATOM     20  H   UNL     1       8.296   0.901  27.845  0.00  0.00    +0.292 HD
ENDBRANCH  15  19
BRANCH  13  21
ATOM     21  O   UNL     1       6.944  -4.667  25.572  0.00  0.00    -0.463 OA
BRANCH  21  22
ATOM     22  C   UNL     1       7.512  -4.888  24.254  0.00  0.00    +0.310 C 
ATOM     23  O   UNL     1       7.344  -3.821  23.313  0.00  0.00    -0.336 OA
ATOM     24  C   UNL     1       6.100  -3.681  22.635  0.00  0.00    +0.150 C 
ATOM     25  C   UNL     1       5.015  -3.067  23.516  0.00  0.00    +0.041 C 
ATOM     26  C   UNL     1       5.721  -4.997  21.952  0.00  0.00    +0.172 C 
ATOM     27  C   UNL     1       5.746  -6.156  22.955  0.00  0.00    +0.158 C 
ATOM     28  C   UNL     1       7.097  -6.227  23.666  0.00  0.00    +0.109 C 
BRANCH  26  29
ATOM     29  O   UNL     1       6.678  -5.246  20.905  0.00  0.00    -0.387 OA
ATOM     30  H   UNL     1       6.476  -6.101  20.491  0.00  0.00    +0.210 HD
ENDBRANCH  26  29
BRANCH  27  31
ATOM     31  O   UNL     1       4.742  -6.099  23.969  0.00  0.00    -0.345 OA
BRANCH  31  32
ATOM     32  C   UNL     1       4.612  -7.240  24.819  0.00  0.00    +0.254 C 
ATOM     33  O   UNL     1       3.531  -8.057  24.374  0.00  0.00    -0.346 OA
ATOM     34  C   UNL     1       2.208  -7.535  24.560  0.00  0.00    +0.149 C 
ATOM     35  C   UNL     1       1.796  -6.626  23.400  0.00  0.00    +0.041 C 
ATOM     36  C   UNL     1       1.978  -6.924  25.961  0.00  0.00    +0.172 C 
ATOM     37  C   UNL     1       3.150  -6.057  26.435  0.00  0.00    +0.150 C 
ATOM     38  C   UNL     1       4.449  -6.834  26.272  0.00  0.00    +0.095 C 
BRANCH  37  39
ATOM     39  O   UNL     1       3.187  -4.799  25.757  0.00  0.00    -0.389 OA
ATOM     40  H   UNL     1       2.974  -4.100  26.409  0.00  0.00    +0.210 HD
ENDBRANCH  37  39
BRANCH  36  41
ATOM     41  O   UNL     1       1.827  -8.011  26.893  0.00  0.00    -0.387 OA
ATOM     42  H   UNL     1       0.890  -8.052  27.155  0.00  0.00    +0.210 HD
ENDBRANCH  36  41
ENDBRANCH  31  32
ENDBRANCH  27  31
ENDBRANCH  21  22
ENDBRANCH  13  21
BRANCH   2  43
ATOM     43  O   UNL     1       3.037   3.305  26.313  0.00  0.00    -0.340 OA
BRANCH  43  44
ATOM     44  C   UNL     1       2.212   4.407  25.937  0.00  0.00    +0.254 C 
ATOM     45  O   UNL     1       1.712   4.002  24.668  0.00  0.00    -0.346 OA
ATOM     46  C   UNL     1       1.258   4.951  23.713  0.00  0.00    +0.149 C 
ATOM     47  C   UNL     1       1.786   4.447  22.367  0.00  0.00    +0.041 C 
ATOM     48  C   UNL     1       1.654   6.410  23.955  0.00  0.00    +0.172 C 
ATOM     49  C   UNL     1       3.019   6.520  24.625  0.00  0.00    +0.157 C 
ATOM     50  C   UNL     1       2.991   5.730  25.943  0.00  0.00    +0.095 C 
BRANCH  48  51
ATOM     51  O   UNL     1       0.689   7.027  24.824  0.00  0.00    -0.387 OA
ATOM     52  H   UNL     1       1.173   7.587  25.456  0.00  0.00    +0.210 HD
ENDBRANCH  48  51
BRANCH  49  53
ATOM     53  O   UNL     1       4.139   6.134  23.811  0.00  0.00    -0.345 OA
BRANCH  53  54
ATOM     54  C   UNL     1       5.469   6.467  24.271  0.00  0.00    +0.254 C 
ATOM     55  O   UNL     1       6.145   7.108  23.203  0.00  0.00    -0.346 OA
ATOM     56  C   UNL     1       7.518   6.872  22.931  0.00  0.00    +0.149 C 
ATOM     57  C   UNL     1       7.599   6.323  21.512  0.00  0.00    +0.041 C 
ATOM     58  C   UNL     1       8.331   6.154  24.018  0.00  0.00    +0.172 C 
ATOM     59  C   UNL     1       7.610   4.991  24.682  0.00  0.00    +0.157 C 
ATOM     60  C   UNL     1       6.151   5.295  24.985  0.00  0.00    +0.095 C 
BRANCH  58  61
ATOM     61  O   UNL     1       9.653   5.825  23.587  0.00  0.00    -0.387 OA
ATOM     62  H   UNL     1       9.777   6.126  22.662  0.00  0.00    +0.210 HD
ENDBRANCH  58  61
BRANCH  59  63
ATOM     63  O   UNL     1       7.632   3.791  23.900  0.00  0.00    -0.345 OA
BRANCH  63  64
ATOM     64  C   UNL     1       7.722   2.574  24.637  0.00  0.00    +0.254 C 
ATOM     65  O   UNL     1       9.073   2.330  25.004  0.00  0.00    -0.346 OA
ATOM     66  C   UNL     1       9.940   1.644  24.085  0.00  0.00    +0.149 C 
ATOM     67  C   UNL     1      10.881   2.602  23.363  0.00  0.00    +0.041 C 
ATOM     68  C   UNL     1       9.282   0.643  23.117  0.00  0.00    +0.174 C 
ATOM     69  C   UNL     1       7.890   1.075  22.626  0.00  0.00    +0.096 C 
ATOM     70  C   UNL     1       7.918   2.175  21.560  0.00  0.00    +0.044 C 
ATOM     71  C   UNL     1       7.065   1.446  23.854  0.00  0.00    +0.098 C 
BRANCH  69  72
ATOM     72  O   UNL     1       7.281  -0.086  22.017  0.00  0.00    -0.386 OA
ATOM     73  H   UNL     1       7.797  -0.301  21.217  0.00  0.00    +0.210 HD
ENDBRANCH  69  72
BRANCH  68  74
ATOM     74  O   UNL     1       9.126  -0.604  23.832  0.00  0.00    -0.386 OA
ATOM     75  H   UNL     1       9.682  -1.239  23.335  0.00  0.00    +0.210 HD
ENDBRANCH  68  74
ENDBRANCH  63  64
ENDBRANCH  59  63
ENDBRANCH  53  54
ENDBRANCH  49  53
ENDBRANCH  43  44
ENDBRANCH   2  43
BRANCH   1  76
ATOM     76  C   UNL     1       2.695   1.473  29.641  0.00  0.00    +0.193 C 
BRANCH  76  77
ATOM     77  C   UNL     1       3.145   0.011  29.858  0.00  0.00    +0.193 C 
ATOM     78  O   UNL     1       4.354  -0.254  29.905  0.00  0.00    -0.292 OA
BRANCH  77  79
ATOM     79  C   UNL     1       2.093  -1.115  29.896  0.00  0.00    +0.211 C 
BRANCH  79  80
ATOM     80  O   UNL     1       0.815  -0.648  29.449  0.00  0.00    -0.382 OA
ATOM     81  H   UNL     1       0.705  -0.902  28.518  0.00  0.00    +0.210 HD
ENDBRANCH  79  80
BRANCH  79  82
ATOM     82  C   UNL     1       2.560  -2.313  29.033  0.00  0.00    +0.147 C 
ATOM     83  C   UNL     1       2.472  -3.645  29.770  0.00  0.00    +0.041 C 
BRANCH  82  84
ATOM     84  O   UNL     1       1.738  -2.400  27.861  0.00  0.00    -0.389 OA
ATOM     85  H   UNL     1       0.831  -2.161  28.118  0.00  0.00    +0.210 HD
ENDBRANCH  82  84
ENDBRANCH  79  82
ENDBRANCH  77  79
ENDBRANCH  76  77
BRANCH  76  87
ATOM     86  C   UNL     1       3.045   3.668  30.485  0.00  0.00    +0.194 C 
ATOM     87  O   UNL     1       3.559   2.341  30.360  0.00  0.00    -0.372 OA
ENDBRANCH  76  87
ENDBRANCH   1  76
TORSDOF 26
ENDMDL
MODEL 6
REMARK VINA RESULT:      -3.5      2.036      7.032
REMARK  Name = 
REMARK  35 active torsions:
REMARK  status: ('A' for Active; 'I' for Inactive)
REMARK    1  A    between atoms: C_1  and  O_2
REMARK    2  A    between atoms: O_2  and  C_3
REMARK    3  A    between atoms: C_3  and  C_5
REMARK    4  A    between atoms: C_3  and  C_92
REMARK    5  A    between atoms: C_12  and  O_13
REMARK    6  A    between atoms: O_13  and  C_14
REMARK    7  A    between atoms: C_17  and  O_19
REMARK    8  A    between atoms: O_19  and  C_20
REMARK    9  A    between atoms: C_23  and  O_25
REMARK   10  A    between atoms: C_26  and  O_28
REMARK   11  A    between atoms: C_29  and  C_31
REMARK   12  A    between atoms: C_33  and  O_35
REMARK   13  A    between atoms: C_36  and  C_38
REMARK   14  A    between atoms: C_40  and  C_41
REMARK   15  A    between atoms: C_42  and  O_43
REMARK   16  A    between atoms: C_45  and  O_46
REMARK   17  A    between atoms: C_50  and  O_52
REMARK   18  A    between atoms: O_52  and  C_53
REMARK   19  A    between atoms: C_56  and  O_58
REMARK   20  A    between atoms: O_58  and  C_59
REMARK   21  A    between atoms: C_62  and  O_64
REMARK   22  A    between atoms: O_64  and  C_65
REMARK   23  A    between atoms: C_68  and  C_69
REMARK   24  A    between atoms: C_68  and  O_70
REMARK   25  A    between atoms: C_71  and  O_73
REMARK   26  A    between atoms: C_74  and  C_76
REMARK   27  A    between atoms: C_78  and  O_80
REMARK   28  A    between atoms: C_81  and  C_83
REMARK   29  A    between atoms: C_85  and  O_87
REMARK   30  A    between atoms: C_88  and  C_90
REMARK   31  A    between atoms: C_92  and  C_94
REMARK   32  A    between atoms: C_94  and  O_96
REMARK   33  A    between atoms: C_94  and  C_97
REMARK   34  A    between atoms: C_97  and  C_99
REMARK   35  A    between atoms: C_97  and  O_100
REMARK                            x       y       z     vdW  Elec       q    Type
REMARK                         _______ _______ _______ _____ _____    ______ ____
ROOT
ATOM      1  C   UNL     1       8.214  -0.792  22.466  0.00  0.00    +0.066 C 
ATOM      2  C   UNL     1       8.125  -1.971  23.490  0.00  0.00    +0.198 C 
ATOM      3  C   UNL     1       8.437  -1.416  24.887  0.00  0.00    +0.196 C 
ATOM      4  O   UNL     1       9.241  -1.991  25.616  0.00  0.00    -0.289 OA
ATOM      5  C   UNL     1       7.708  -0.156  25.263  0.00  0.00    +0.065 A 
ATOM      6  C   UNL     1       6.999   0.505  24.239  0.00  0.00    -0.032 A 
ATOM      7  C   UNL     1       6.263   1.633  24.545  0.00  0.00    +0.013 A 
ATOM      8  C   UNL     1       6.381   2.221  25.792  0.00  0.00    -0.007 A 
ATOM      9  C   UNL     1       7.135   1.670  26.831  0.00  0.00    +0.066 A 
ATOM     10  C   UNL     1       7.208   2.454  28.027  0.00  0.00    +0.134 A 
ATOM     11  C   UNL     1       6.596   3.734  28.146  0.00  0.00    +0.033 A 
ATOM     12  C   UNL     1       6.805   4.562  29.395  0.00  0.00    +0.051 C 
ATOM     13  C   UNL     1       5.829   4.207  27.081  0.00  0.00    +0.131 A 
ATOM     14  C   UNL     1       5.752   3.435  25.931  0.00  0.00    +0.055 A 
ATOM     15  C   UNL     1       7.765   0.418  26.549  0.00  0.00    +0.139 A 
ATOM     16  C   UNL     1       7.009   0.092  22.796  0.00  0.00    +0.045 C 
ENDROOT
BRANCH  10  17
ATOM     17  O   UNL     1       7.944   1.910  29.061  0.00  0.00    -0.506 OA
ATOM     18  H   UNL     1       8.510   1.199  28.719  0.00  0.00    +0.292 HD
ENDBRANCH  10  17
BRANCH  15  19
ATOM     19  O   UNL     1       8.466  -0.210  27.547  0.00  0.00    -0.505 OA
ATOM     20  H   UNL     1       9.363  -0.384  27.196  0.00  0.00    +0.292 HD
ENDBRANCH  15  19
BRANCH  13  21
ATOM     21  O   UNL     1       5.196   5.440  27.125  0.00  0.00    -0.463 OA
BRANCH  21  22
ATOM     22  C   UNL     1       4.548   5.819  25.881  0.00  0.00    +0.310 C 
ATOM     23  O   UNL     1       3.836   7.062  25.899  0.00  0.00    -0.336 OA
ATOM     24  C   UNL     1       2.531   7.108  26.468  0.00  0.00    +0.150 C 
ATOM     25  C   UNL     1       2.553   7.105  27.994  0.00  0.00    +0.041 C 
ATOM     26  C   UNL     1       1.638   6.044  25.824  0.00  0.00    +0.172 C 
ATOM     27  C   UNL     1       2.295   4.661  25.907  0.00  0.00    +0.158 C 
ATOM     28  C   UNL     1       3.700   4.694  25.308  0.00  0.00    +0.109 C 
BRANCH  26  29
ATOM     29  O   UNL     1       1.444   6.403  24.444  0.00  0.00    -0.387 OA
ATOM     30  H   UNL     1       0.619   6.908  24.362  0.00  0.00    +0.210 HD
ENDBRANCH  26  29
BRANCH  27  31
ATOM     31  O   UNL     1       2.415   4.127  27.226  0.00  0.00    -0.345 OA
BRANCH  31  32
ATOM     32  C   UNL     1       2.149   2.733  27.389  0.00  0.00    +0.254 C 
ATOM     33  O   UNL     1       0.872   2.550  27.998  0.00  0.00    -0.346 OA
ATOM     34  C   UNL     1       0.756   2.923  29.378  0.00  0.00    +0.149 C 
ATOM     35  C   UNL     1       0.443   4.413  29.531  0.00  0.00    +0.041 C 
ATOM     36  C   UNL     1       1.929   2.425  30.252  0.00  0.00    +0.172 C 
ATOM     37  C   UNL     1       3.296   2.617  29.585  0.00  0.00    +0.150 C 
ATOM     38  C   UNL     1       3.251   2.046  28.173  0.00  0.00    +0.095 C 
BRANCH  37  39
ATOM     39  O   UNL     1       3.706   3.986  29.597  0.00  0.00    -0.389 OA
ATOM     40  H   UNL     1       2.912   4.539  29.446  0.00  0.00    +0.210 HD
ENDBRANCH  37  39
BRANCH  36  41
ATOM     41  O   UNL     1       1.741   1.016  30.477  0.00  0.00    -0.387 OA
ATOM     42  H   UNL     1       1.084   0.696  29.835  0.00  0.00    +0.210 HD
ENDBRANCH  36  41
ENDBRANCH  31  32
ENDBRANCH  27  31
ENDBRANCH  21  22
ENDBRANCH  13  21
BRANCH   2  43
ATOM     43  O   UNL     1       6.795  -2.475  23.363  0.00  0.00    -0.340 OA
BRANCH  43  44
ATOM     44  C   UNL     1       6.525  -3.763  22.812  0.00  0.00    +0.254 C 
ATOM     45  O   UNL     1       5.107  -3.761  22.697  0.00  0.00    -0.346 OA
ATOM     46  C   UNL     1       4.363  -4.971  22.662  0.00  0.00    +0.149 C 
ATOM     47  C   UNL     1       3.132  -4.709  23.533  0.00  0.00    +0.041 C 
ATOM     48  C   UNL     1       5.098  -6.239  23.107  0.00  0.00    +0.172 C 
ATOM     49  C   UNL     1       6.122  -5.945  24.196  0.00  0.00    +0.157 C 
ATOM     50  C   UNL     1       7.111  -4.888  23.678  0.00  0.00    +0.095 C 
BRANCH  48  51
ATOM     51  O   UNL     1       5.801  -6.799  21.984  0.00  0.00    -0.387 OA
ATOM     52  H   UNL     1       5.139  -7.064  21.321  0.00  0.00    +0.210 HD
ENDBRANCH  48  51
BRANCH  49  53
ATOM     53  O   UNL     1       5.576  -5.565  25.471  0.00  0.00    -0.345 OA
BRANCH  53  54
ATOM     54  C   UNL     1       5.048  -6.604  26.329  0.00  0.00    +0.254 C 
ATOM     55  O   UNL     1       3.873  -7.109  25.719  0.00  0.00    -0.346 OA
ATOM     56  C   UNL     1       2.726  -7.465  26.475  0.00  0.00    +0.149 C 
ATOM     57  C   UNL     1       1.579  -6.598  25.970  0.00  0.00    +0.041 C 
ATOM     58  C   UNL     1       2.904  -7.593  27.994  0.00  0.00    +0.172 C 
ATOM     59  C   UNL     1       3.763  -6.506  28.624  0.00  0.00    +0.157 C 
ATOM     60  C   UNL     1       4.998  -6.177  27.800  0.00  0.00    +0.095 C 
BRANCH  58  61
ATOM     61  O   UNL     1       1.665  -7.797  28.676  0.00  0.00    -0.387 OA
ATOM     62  H   UNL     1       1.525  -8.757  28.814  0.00  0.00    +0.210 HD
ENDBRANCH  58  61
BRANCH  59  63
ATOM     63  O   UNL     1       3.059  -5.277  28.829  0.00  0.00    -0.345 OA
BRANCH  63  64
ATOM     64  C   UNL     1       3.782  -4.256  29.514  0.00  0.00    +0.254 C 
ATOM     65  O   UNL     1       2.917  -3.562  30.401  0.00  0.00    -0.346 OA
ATOM     66  C   UNL     1       2.145  -2.453  29.910  0.00  0.00    +0.149 C 
ATOM     67  C   UNL     1       0.691  -2.836  29.661  0.00  0.00    +0.041 C 
ATOM     68  C   UNL     1       2.740  -1.653  28.737  0.00  0.00    +0.174 C 
ATOM     69  C   UNL     1       3.513  -2.513  27.723  0.00  0.00    +0.096 C 
ATOM     70  C   UNL     1       2.615  -3.328  26.786  0.00  0.00    +0.044 C 
ATOM     71  C   UNL     1       4.501  -3.369  28.507  0.00  0.00    +0.098 C 
BRANCH  69  72
ATOM     72  O   UNL     1       4.272  -1.604  26.894  0.00  0.00    -0.386 OA
ATOM     73  H   UNL     1       5.124  -1.443  27.342  0.00  0.00    +0.210 HD
ENDBRANCH  69  72
BRANCH  68  74
ATOM     74  O   UNL     1       3.670  -0.699  29.299  0.00  0.00    -0.386 OA
ATOM     75  H   UNL     1       4.236  -0.438  28.543  0.00  0.00    +0.210 HD
ENDBRANCH  68  74
ENDBRANCH  63  64
ENDBRANCH  59  63
ENDBRANCH  53  54
ENDBRANCH  49  53
ENDBRANCH  43  44
ENDBRANCH   2  43
BRANCH   1  76
ATOM     76  C   UNL     1       9.614  -0.088  22.410  0.00  0.00    +0.193 C 
BRANCH  76  77
ATOM     77  C   UNL     1       9.583   1.457  22.433  0.00  0.00    +0.193 C 
ATOM     78  O   UNL     1       9.537   2.082  21.366  0.00  0.00    -0.292 OA
BRANCH  77  79
ATOM     79  C   UNL     1       9.729   2.203  23.775  0.00  0.00    +0.211 C 
BRANCH  79  80
ATOM     80  O   UNL     1      10.961   1.871  24.424  0.00  0.00    -0.382 OA
ATOM     81  H   UNL     1      11.025   0.905  24.484  0.00  0.00    +0.210 HD
ENDBRANCH  79  80
BRANCH  79  82
ATOM     82  C   UNL     1       9.635   3.732  23.548  0.00  0.00    +0.147 C 
ATOM     83  C   UNL     1       9.250   4.496  24.811  0.00  0.00    +0.041 C 
BRANCH  82  84
ATOM     84  O   UNL     1      10.906   4.223  23.103  0.00  0.00    -0.389 OA
ATOM     85  H   UNL     1      10.785   4.592  22.212  0.00  0.00    +0.210 HD
ENDBRANCH  82  84
ENDBRANCH  79  82
ENDBRANCH  77  79
ENDBRANCH  76  77
BRANCH  76  87
ATOM     86  C   UNL     1      11.131  -1.800  23.058  0.00  0.00    +0.194 C 
ATOM     87  O   UNL     1      10.521  -0.554  23.397  0.00  0.00    -0.372 OA
ENDBRANCH  76  87
ENDBRANCH   1  76
TORSDOF 26
ENDMDL
MODEL 7
REMARK VINA RESULT:      -2.9      1.776      5.554
REMARK  Name = 
REMARK  35 active torsions:
REMARK  status: ('A' for Active; 'I' for Inactive)
REMARK    1  A    between atoms: C_1  and  O_2
REMARK    2  A    between atoms: O_2  and  C_3
REMARK    3  A    between atoms: C_3  and  C_5
REMARK    4  A    between atoms: C_3  and  C_92
REMARK    5  A    between atoms: C_12  and  O_13
REMARK    6  A    between atoms: O_13  and  C_14
REMARK    7  A    between atoms: C_17  and  O_19
REMARK    8  A    between atoms: O_19  and  C_20
REMARK    9  A    between atoms: C_23  and  O_25
REMARK   10  A    between atoms: C_26  and  O_28
REMARK   11  A    between atoms: C_29  and  C_31
REMARK   12  A    between atoms: C_33  and  O_35
REMARK   13  A    between atoms: C_36  and  C_38
REMARK   14  A    between atoms: C_40  and  C_41
REMARK   15  A    between atoms: C_42  and  O_43
REMARK   16  A    between atoms: C_45  and  O_46
REMARK   17  A    between atoms: C_50  and  O_52
REMARK   18  A    between atoms: O_52  and  C_53
REMARK   19  A    between atoms: C_56  and  O_58
REMARK   20  A    between atoms: O_58  and  C_59
REMARK   21  A    between atoms: C_62  and  O_64
REMARK   22  A    between atoms: O_64  and  C_65
REMARK   23  A    between atoms: C_68  and  C_69
REMARK   24  A    between atoms: C_68  and  O_70
REMARK   25  A    between atoms: C_71  and  O_73
REMARK   26  A    between atoms: C_74  and  C_76
REMARK   27  A    between atoms: C_78  and  O_80
REMARK   28  A    between atoms: C_81  and  C_83
REMARK   29  A    between atoms: C_85  and  O_87
REMARK   30  A    between atoms: C_88  and  C_90
REMARK   31  A    between atoms: C_92  and  C_94
REMARK   32  A    between atoms: C_94  and  O_96
REMARK   33  A    between atoms: C_94  and  C_97
REMARK   34  A    between atoms: C_97  and  C_99
REMARK   35  A    between atoms: C_97  and  O_100
REMARK                            x       y       z     vdW  Elec       q    Type
REMARK                         _______ _______ _______ _____ _____    ______ ____
ROOT
ATOM      1  C   UNL     1       7.640  -2.949  23.549  0.00  0.00    +0.066 C 
ATOM      2  C   UNL     1       6.441  -3.934  23.753  0.00  0.00    +0.198 C 
ATOM      3  C   UNL     1       5.804  -3.638  25.118  0.00  0.00    +0.196 C 
ATOM      4  O   UNL     1       5.560  -4.554  25.898  0.00  0.00    -0.289 OA
ATOM      5  C   UNL     1       5.527  -2.188  25.405  0.00  0.00    +0.065 A 
ATOM      6  C   UNL     1       6.071  -1.242  24.512  0.00  0.00    -0.032 A 
ATOM      7  C   UNL     1       5.795   0.099  24.696  0.00  0.00    +0.013 A 
ATOM      8  C   UNL     1       5.162   0.525  25.851  0.00  0.00    -0.007 A 
ATOM      9  C   UNL     1       4.673  -0.350  26.823  0.00  0.00    +0.066 A 
ATOM     10  C   UNL     1       4.117   0.268  27.989  0.00  0.00    +0.134 A 
ATOM     11  C   UNL     1       4.102   1.679  28.179  0.00  0.00    +0.033 A 
ATOM     12  C   UNL     1       3.606   2.265  29.482  0.00  0.00    +0.051 C 
ATOM     13  C   UNL     1       4.578   2.494  27.151  0.00  0.00    +0.131 A 
ATOM     14  C   UNL     1       5.101   1.888  26.018  0.00  0.00    +0.055 A 
ATOM     15  C   UNL     1       4.825  -1.744  26.543  0.00  0.00    +0.139 A 
ATOM     16  C   UNL     1       6.982  -1.580  23.367  0.00  0.00    +0.045 C 
ENDROOT
BRANCH  10  17
ATOM     17  O   UNL     1       3.622  -0.591  28.950  0.00  0.00    -0.506 OA
ATOM     18  H   UNL     1       2.920  -1.141  28.565  0.00  0.00    +0.292 HD
ENDBRANCH  10  17
BRANCH  15  19
ATOM     19  O   UNL     1       4.306  -2.658  27.425  0.00  0.00    -0.505 OA
ATOM     20  H   UNL     1       3.429  -2.321  27.698  0.00  0.00    +0.292 HD
ENDBRANCH  15  19
BRANCH  13  21
ATOM     21  O   UNL     1       4.589   3.877  27.258  0.00  0.00    -0.463 OA
BRANCH  21  22
ATOM     22  C   UNL     1       5.357   4.378  28.384  0.00  0.00    +0.310 C 
ATOM     23  O   UNL     1       4.911   5.621  28.942  0.00  0.00    -0.336 OA
ATOM     24  C   UNL     1       5.264   6.840  28.297  0.00  0.00    +0.150 C 
ATOM     25  C   UNL     1       4.429   7.108  27.047  0.00  0.00    +0.041 C 
ATOM     26  C   UNL     1       6.780   6.911  28.098  0.00  0.00    +0.172 C 
ATOM     27  C   UNL     1       7.292   5.661  27.372  0.00  0.00    +0.158 C 
ATOM     28  C   UNL     1       6.851   4.393  28.101  0.00  0.00    +0.109 C 
BRANCH  26  29
ATOM     29  O   UNL     1       7.395   6.998  29.397  0.00  0.00    -0.387 OA
ATOM     30  H   UNL     1       7.538   6.100  29.739  0.00  0.00    +0.210 HD
ENDBRANCH  26  29
BRANCH  27  31
ATOM     31  O   UNL     1       6.865   5.534  26.015  0.00  0.00    -0.345 OA
BRANCH  31  32
ATOM     32  C   UNL     1       7.252   6.571  25.112  0.00  0.00    +0.254 C 
ATOM     33  O   UNL     1       6.191   6.839  24.197  0.00  0.00    -0.346 OA
ATOM     34  C   UNL     1       5.915   5.831  23.215  0.00  0.00    +0.149 C 
ATOM     35  C   UNL     1       4.967   4.761  23.760  0.00  0.00    +0.041 C 
ATOM     36  C   UNL     1       7.185   5.271  22.534  0.00  0.00    +0.172 C 
ATOM     37  C   UNL     1       8.323   4.996  23.524  0.00  0.00    +0.150 C 
ATOM     38  C   UNL     1       8.542   6.227  24.393  0.00  0.00    +0.095 C 
BRANCH  37  39
ATOM     39  O   UNL     1       8.075   3.824  24.305  0.00  0.00    -0.389 OA
ATOM     40  H   UNL     1       8.398   3.995  25.213  0.00  0.00    +0.210 HD
ENDBRANCH  37  39
BRANCH  36  41
ATOM     41  O   UNL     1       7.647   6.255  21.591  0.00  0.00    -0.387 OA
ATOM     42  H   UNL     1       8.346   6.777  22.022  0.00  0.00    +0.210 HD
ENDBRANCH  36  41
ENDBRANCH  31  32
ENDBRANCH  27  31
ENDBRANCH  21  22
ENDBRANCH  13  21
BRANCH   2  43
ATOM     43  O   UNL     1       5.565  -3.686  22.652  0.00  0.00    -0.340 OA
BRANCH  43  44
ATOM     44  C   UNL     1       4.605  -4.649  22.219  0.00  0.00    +0.254 C 
ATOM     45  O   UNL     1       3.409  -4.200  22.845  0.00  0.00    -0.346 OA
ATOM     46  C   UNL     1       2.328  -5.085  23.102  0.00  0.00    +0.149 C 
ATOM     47  C   UNL     1       1.824  -4.707  24.497  0.00  0.00    +0.041 C 
ATOM     48  C   UNL     1       2.633  -6.583  23.010  0.00  0.00    +0.172 C 
ATOM     49  C   UNL     1       4.061  -6.896  23.442  0.00  0.00    +0.157 C 
ATOM     50  C   UNL     1       5.034  -6.081  22.575  0.00  0.00    +0.095 C 
BRANCH  48  51
ATOM     51  O   UNL     1       2.484  -7.015  21.646  0.00  0.00    -0.387 OA
ATOM     52  H   UNL     1       2.573  -7.984  21.630  0.00  0.00    +0.210 HD
ENDBRANCH  48  51
BRANCH  49  53
ATOM     53  O   UNL     1       4.336  -6.716  24.841  0.00  0.00    -0.345 OA
BRANCH  53  54
ATOM     54  C   UNL     1       3.859  -7.717  25.769  0.00  0.00    +0.254 C 
ATOM     55  O   UNL     1       2.794  -8.412  25.142  0.00  0.00    -0.346 OA
ATOM     56  C   UNL     1       1.638  -8.819  25.856  0.00  0.00    +0.149 C 
ATOM     57  C   UNL     1       0.446  -8.145  25.188  0.00  0.00    +0.041 C 
ATOM     58  C   UNL     1       1.712  -8.774  27.389  0.00  0.00    +0.172 C 
ATOM     59  C   UNL     1       2.399  -7.540  27.953  0.00  0.00    +0.157 C 
ATOM     60  C   UNL     1       3.651  -7.155  27.180  0.00  0.00    +0.095 C 
BRANCH  58  61
ATOM     61  O   UNL     1       0.453  -9.051  28.007  0.00  0.00    -0.387 OA
ATOM     62  H   UNL     1      -0.159  -9.430  27.342  0.00  0.00    +0.210 HD
ENDBRANCH  58  61
BRANCH  59  63
ATOM     63  O   UNL     1       1.553  -6.385  27.979  0.00  0.00    -0.345 OA
BRANCH  63  64
ATOM     64  C   UNL     1       2.213  -5.131  27.817  0.00  0.00    +0.254 C 
ATOM     65  O   UNL     1       3.543  -5.217  28.310  0.00  0.00    -0.346 OA
ATOM     66  C   UNL     1       3.794  -4.980  29.706  0.00  0.00    +0.149 C 
ATOM     67  C   UNL     1       4.004  -6.279  30.476  0.00  0.00    +0.041 C 
ATOM     68  C   UNL     1       2.833  -4.025  30.436  0.00  0.00    +0.174 C 
ATOM     69  C   UNL     1       1.373  -4.126  29.962  0.00  0.00    +0.096 C 
ATOM     70  C   UNL     1       0.632  -5.362  30.484  0.00  0.00    +0.044 C 
ATOM     71  C   UNL     1       1.377  -4.023  28.441  0.00  0.00    +0.098 C 
BRANCH  69  72
ATOM     72  O   UNL     1       0.681  -2.969  30.484  0.00  0.00    -0.386 OA
ATOM     73  H   UNL     1       0.125  -3.272  31.226  0.00  0.00    +0.210 HD
ENDBRANCH  69  72
BRANCH  68  74
ATOM     74  O   UNL     1       3.286  -2.678  30.172  0.00  0.00    -0.386 OA
ATOM     75  H   UNL     1       2.469  -2.188  29.945  0.00  0.00    +0.210 HD
ENDBRANCH  68  74
ENDBRANCH  63  64
ENDBRANCH  59  63
ENDBRANCH  53  54
ENDBRANCH  49  53
ENDBRANCH  43  44
ENDBRANCH   2  43
BRANCH   1  76
ATOM     76  C   UNL     1       8.758  -3.058  24.642  0.00  0.00    +0.193 C 
BRANCH  76  77
ATOM     77  C   UNL     1       9.261  -1.714  25.215  0.00  0.00    +0.193 C 
ATOM     78  O   UNL     1       8.817  -1.307  26.297  0.00  0.00    -0.292 OA
BRANCH  77  79
ATOM     79  C   UNL     1      10.219  -0.840  24.381  0.00  0.00    +0.211 C 
BRANCH  79  80
ATOM     80  O   UNL     1       9.988  -1.006  22.978  0.00  0.00    -0.382 OA
ATOM     81  H   UNL     1       9.074  -0.741  22.786  0.00  0.00    +0.210 HD
ENDBRANCH  79  80
BRANCH  79  82
ATOM     82  C   UNL     1      10.067   0.649  24.780  0.00  0.00    +0.147 C 
ATOM     83  C   UNL     1      11.160   1.535  24.191  0.00  0.00    +0.041 C 
BRANCH  82  84
ATOM     84  O   UNL     1       8.802   1.136  24.312  0.00  0.00    -0.389 OA
ATOM     85  H   UNL     1       8.425   0.461  23.723  0.00  0.00    +0.210 HD
ENDBRANCH  82  84
ENDBRANCH  79  82
ENDBRANCH  77  79
ENDBRANCH  76  77
BRANCH  76  87
ATOM     86  C   UNL     1       9.341  -5.007  25.873  0.00  0.00    +0.194 C 
ATOM     87  O   UNL     1       8.420  -3.927  25.714  0.00  0.00    -0.372 OA
ENDBRANCH  76  87
ENDBRANCH   1  76
TORSDOF 26
ENDMDL
