MODEL 1
REMARK VINA RESULT:      -7.2      0.000      0.000
REMARK  Name = 
REMARK  15 active torsions:
REMARK  status: ('A' for Active; 'I' for Inactive)
REMARK    1  A    between atoms: C_1  and  C_2
REMARK    2  A    between atoms: C_2  and  S_3
REMARK    3  A    between atoms: S_3  and  N_6
REMARK    4  A    between atoms: N_6  and  C_7
REMARK    5  A    between atoms: C_7  and  C_9
REMARK    6  A    between atoms: C_7  and  C_19
REMARK    7  A    between atoms: C_9  and  C_10
REMARK    8  A    between atoms: N_21  and  C_22
REMARK    9  A    between atoms: C_22  and  C_24
REMARK   10  A    between atoms: C_22  and  C_29
REMARK   11  A    between atoms: C_24  and  C_25
REMARK   12  A    between atoms: C_25  and  C_26
REMARK   13  A    between atoms: N_31  and  C_32
REMARK   14  A    between atoms: C_32  and  C_33
REMARK   15  A    between atoms: C_36  and  C_39
REMARK                            x       y       z     vdW  Elec       q    Type
REMARK                         _______ _______ _______ _____ _____    ______ ____
ROOT
ATOM      1  C   UNL     1       8.248  -3.807  23.570  0.00  0.00    +0.159 C 
ENDROOT
BRANCH   1   3
ATOM      2  C   UNL     1       7.398  -4.800  25.686  0.00  0.00    +0.233 C 
ATOM      3  N   UNL     1       7.200  -4.022  24.569  0.00  0.00    -0.303 N 
ATOM      4  H   UNL     1       6.513  -3.272  24.603  0.00  0.00    +0.149 HD
ATOM      5  O   UNL     1       8.394  -5.524  25.769  0.00  0.00    -0.274 OA
BRANCH   2   6
ATOM      6  C   UNL     1       6.286  -4.797  26.763  0.00  0.00    +0.166 C 
BRANCH   6   7
ATOM      7  N   UNL     1       5.765  -6.154  27.197  0.00  0.00    -0.182 NA
ATOM      8  H   UNL     1       4.817  -6.260  26.822  0.00  0.00    +0.148 HD
BRANCH   7   9
ATOM      9  S   UNL     1       5.699  -6.463  28.841  0.00  0.00    +0.030 S 
ATOM     10  O   UNL     1       6.485  -7.645  29.083  0.00  0.00    -0.158 OA
ATOM     11  O   UNL     1       5.998  -5.211  29.500  0.00  0.00    -0.158 OA
BRANCH   9  13
ATOM     12  C   UNL     1       3.179  -6.635  27.871  0.00  0.00    +0.029 C 
ATOM     13  C   UNL     1       3.993  -6.896  29.128  0.00  0.00    +0.181 C 
ENDBRANCH   9  13
ENDBRANCH   7   9
ENDBRANCH   6   7
BRANCH   6  14
ATOM     14  C   UNL     1       5.093  -3.973  26.188  0.00  0.00    +0.067 C 
BRANCH  14  15
ATOM     15  C   UNL     1       4.954  -2.582  26.744  0.00  0.00    -0.020 A 
ATOM     16  C   UNL     1       5.291  -1.365  26.064  0.00  0.00    +0.003 A 
ATOM     17  C   UNL     1       4.981  -0.306  26.917  0.00  0.00    +0.047 A 
ATOM     18  C   UNL     1       5.147   1.034  26.545  0.00  0.00    +0.026 A 
ATOM     19  C   UNL     1       5.638   1.296  25.261  0.00  0.00    +0.002 A 
ATOM     20  C   UNL     1       5.967   0.259  24.392  0.00  0.00    +0.001 A 
ATOM     21  N   UNL     1       4.528  -0.856  28.093  0.00  0.00    -0.360 N 
ATOM     22  H   UNL     1       4.253  -0.322  28.906  0.00  0.00    +0.165 HD
ATOM     23  C   UNL     1       5.805  -1.073  24.783  0.00  0.00    +0.010 A 
ATOM     24  C   UNL     1       4.499  -2.224  27.998  0.00  0.00    +0.087 A 
ENDBRANCH  14  15
ENDBRANCH   6  14
ENDBRANCH   2   6
ENDBRANCH   1   3
BRANCH   1  25
ATOM     25  C   UNL     1       9.084  -2.557  23.952  0.00  0.00    +0.234 C 
ATOM     26  N   UNL     1       9.674  -1.912  22.884  0.00  0.00    -0.310 N 
ATOM     27  H   UNL     1       9.520  -2.248  21.943  0.00  0.00    +0.149 HD
ATOM     28  O   UNL     1       9.145  -2.132  25.104  0.00  0.00    -0.274 OA
BRANCH  26  29
ATOM     29  C   UNL     1      10.446  -0.698  23.044  0.00  0.00    +0.139 C 
BRANCH  29  30
ATOM     30  C   UNL     1       9.574   0.519  22.847  0.00  0.00    -0.030 A 
ATOM     31  C   UNL     1       9.546   1.527  23.822  0.00  0.00    +0.006 A 
ATOM     32  C   UNL     1       8.778   2.682  23.635  0.00  0.00    +0.016 A 
ATOM     33  C   UNL     1       8.039   2.849  22.459  0.00  0.00    +0.065 A 
ATOM     34  C   UNL     1       8.047   1.839  21.490  0.00  0.00    +0.016 A 
ATOM     35  C   UNL     1       8.815   0.684  21.681  0.00  0.00    +0.006 A 
BRANCH  33  36
ATOM     36  C   UNL     1       7.261   4.104  22.242  0.00  0.00    +0.308 C 
ATOM     37  N   UNL     1       7.817   5.272  22.169  0.00  0.00    -0.099 NA
ATOM     38  H   UNL     1       8.824   5.217  22.331  0.00  0.00    +0.363 HD
ATOM     39  N   UNL     1       5.904   4.071  22.111  0.00  0.00    -0.247 N 
ATOM     40  H   UNL     1       5.557   4.965  21.775  0.00  0.00    +0.288 HD
ATOM     41  H   UNL     1       5.524   3.286  21.597  0.00  0.00    +0.288 HD
ENDBRANCH  33  36
ENDBRANCH  29  30
ENDBRANCH  26  29
ENDBRANCH   1  25
BRANCH   1  42
ATOM     42  C   UNL     1       7.600  -3.614  22.195  0.00  0.00    +0.041 C 
BRANCH  42  43
ATOM     43  C   UNL     1       6.182  -4.172  22.129  0.00  0.00    +0.098 C 
BRANCH  43  44
ATOM     44  C   UNL     1       6.111  -5.455  21.341  0.00  0.00    +0.211 C 
ATOM     45  O   UNL     1       6.000  -5.484  20.121  0.00  0.00    -0.276 OA
ATOM     46  N   UNL     1       6.206  -6.601  22.067  0.00  0.00    -0.329 N 
ATOM     47  H   UNL     1       6.221  -7.471  21.550  0.00  0.00    +0.145 HD
ATOM     48  H   UNL     1       6.457  -6.614  23.046  0.00  0.00    +0.145 HD
ENDBRANCH  43  44
ENDBRANCH  42  43
ENDBRANCH   1  42
TORSDOF 14
ENDMDL
MODEL 2
REMARK VINA RESULT:      -7.2      2.739      7.279
REMARK  Name = 
REMARK  15 active torsions:
REMARK  status: ('A' for Active; 'I' for Inactive)
REMARK    1  A    between atoms: C_1  and  C_2
REMARK    2  A    between atoms: C_2  and  S_3
REMARK    3  A    between atoms: S_3  and  N_6
REMARK    4  A    between atoms: N_6  and  C_7
REMARK    5  A    between atoms: C_7  and  C_9
REMARK    6  A    between atoms: C_7  and  C_19
REMARK    7  A    between atoms: C_9  and  C_10
REMARK    8  A    between atoms: N_21  and  C_22
REMARK    9  A    between atoms: C_22  and  C_24
REMARK   10  A    between atoms: C_22  and  C_29
REMARK   11  A    between atoms: C_24  and  C_25
REMARK   12  A    between atoms: C_25  and  C_26
REMARK   13  A    between atoms: N_31  and  C_32
REMARK   14  A    between atoms: C_32  and  C_33
REMARK   15  A    between atoms: C_36  and  C_39
REMARK                            x       y       z     vdW  Elec       q    Type
REMARK                         _______ _______ _______ _____ _____    ______ ____
ROOT
ATOM      1  C   UNL     1       8.760  -0.629  22.775  0.00  0.00    +0.159 C 
ENDROOT
BRANCH   1   3
ATOM      2  C   UNL     1       6.865   0.568  23.854  0.00  0.00    +0.233 C 
ATOM      3  N   UNL     1       8.069  -0.092  23.948  0.00  0.00    -0.303 N 
ATOM      4  H   UNL     1       8.303  -0.574  24.812  0.00  0.00    +0.149 HD
ATOM      5  O   UNL     1       6.437   0.924  22.752  0.00  0.00    -0.274 OA
BRANCH   2   6
ATOM      6  C   UNL     1       6.140   0.920  25.175  0.00  0.00    +0.166 C 
BRANCH   6   7
ATOM      7  N   UNL     1       4.994   0.012  25.577  0.00  0.00    -0.182 NA
ATOM      8  H   UNL     1       4.646   0.330  26.487  0.00  0.00    +0.148 HD
BRANCH   7   9
ATOM      9  S   UNL     1       5.316  -1.627  25.700  0.00  0.00    +0.030 S 
ATOM     10  O   UNL     1       4.936  -2.229  24.448  0.00  0.00    -0.158 OA
ATOM     11  O   UNL     1       6.663  -1.736  26.211  0.00  0.00    -0.158 OA
BRANCH   9  13
ATOM     12  C   UNL     1       2.828  -2.522  26.276  0.00  0.00    +0.029 C 
ATOM     13  C   UNL     1       4.160  -2.199  26.932  0.00  0.00    +0.181 C 
ENDBRANCH   9  13
ENDBRANCH   7   9
ENDBRANCH   6   7
BRANCH   6  14
ATOM     14  C   UNL     1       5.587   2.370  25.022  0.00  0.00    +0.067 C 
BRANCH  14  15
ATOM     15  C   UNL     1       6.612   3.461  25.169  0.00  0.00    -0.020 A 
ATOM     16  C   UNL     1       7.040   4.361  24.136  0.00  0.00    +0.003 A 
ATOM     17  C   UNL     1       7.974   5.231  24.696  0.00  0.00    +0.047 A 
ATOM     18  C   UNL     1       8.564   6.273  23.969  0.00  0.00    +0.026 A 
ATOM     19  C   UNL     1       8.182   6.429  22.632  0.00  0.00    +0.002 A 
ATOM     20  C   UNL     1       7.260   5.568  22.043  0.00  0.00    +0.001 A 
ATOM     21  N   UNL     1       8.154   4.842  26.003  0.00  0.00    -0.360 N 
ATOM     22  H   UNL     1       8.798   5.282  26.647  0.00  0.00    +0.165 HD
ATOM     23  C   UNL     1       6.689   4.528  22.781  0.00  0.00    +0.010 A 
ATOM     24  C   UNL     1       7.334   3.784  26.301  0.00  0.00    +0.087 A 
ENDBRANCH  14  15
ENDBRANCH   6  14
ENDBRANCH   2   6
ENDBRANCH   1   3
BRANCH   1  25
ATOM     25  C   UNL     1       9.011  -2.148  22.968  0.00  0.00    +0.234 C 
ATOM     26  N   UNL     1       7.865  -2.914  23.048  0.00  0.00    -0.310 N 
ATOM     27  H   UNL     1       6.959  -2.477  22.953  0.00  0.00    +0.149 HD
ATOM     28  O   UNL     1      10.139  -2.635  22.966  0.00  0.00    -0.274 OA
BRANCH  26  29
ATOM     29  C   UNL     1       7.906  -4.355  23.174  0.00  0.00    +0.139 C 
BRANCH  29  30
ATOM     30  C   UNL     1       7.414  -4.786  24.535  0.00  0.00    -0.030 A 
ATOM     31  C   UNL     1       6.118  -5.302  24.681  0.00  0.00    +0.006 A 
ATOM     32  C   UNL     1       5.662  -5.748  25.927  0.00  0.00    +0.016 A 
ATOM     33  C   UNL     1       6.506  -5.697  27.042  0.00  0.00    +0.065 A 
ATOM     34  C   UNL     1       7.794  -5.165  26.908  0.00  0.00    +0.016 A 
ATOM     35  C   UNL     1       8.247  -4.718  25.661  0.00  0.00    +0.006 A 
BRANCH  33  36
ATOM     36  C   UNL     1       6.033  -6.218  28.357  0.00  0.00    +0.308 C 
ATOM     37  N   UNL     1       6.231  -5.593  29.474  0.00  0.00    -0.099 NA
ATOM     38  H   UNL     1       6.787  -4.747  29.335  0.00  0.00    +0.363 HD
ATOM     39  N   UNL     1       5.358  -7.401  28.438  0.00  0.00    -0.247 N 
ATOM     40  H   UNL     1       4.939  -7.510  29.357  0.00  0.00    +0.288 HD
ATOM     41  H   UNL     1       4.708  -7.597  27.687  0.00  0.00    +0.288 HD
ENDBRANCH  33  36
ENDBRANCH  29  30
ENDBRANCH  26  29
ENDBRANCH   1  25
BRANCH   1  42
ATOM     42  C   UNL     1      10.089   0.111  22.591  0.00  0.00    +0.041 C 
BRANCH  42  43
ATOM     43  C   UNL     1       9.900   1.562  22.162  0.00  0.00    +0.098 C 
BRANCH  43  44
ATOM     44  C   UNL     1      10.219   2.531  23.272  0.00  0.00    +0.211 C 
ATOM     45  O   UNL     1       9.881   2.348  24.436  0.00  0.00    -0.276 OA
ATOM     46  N   UNL     1      10.940   3.626  22.912  0.00  0.00    -0.329 N 
ATOM     47  H   UNL     1      11.215   4.258  23.654  0.00  0.00    +0.145 HD
ATOM     48  H   UNL     1      11.369   3.729  22.004  0.00  0.00    +0.145 HD
ENDBRANCH  43  44
ENDBRANCH  42  43
ENDBRANCH   1  42
TORSDOF 14
ENDMDL
MODEL 3
REMARK VINA RESULT:      -7.2      3.580      7.599
REMARK  Name = 
REMARK  15 active torsions:
REMARK  status: ('A' for Active; 'I' for Inactive)
REMARK    1  A    between atoms: C_1  and  C_2
REMARK    2  A    between atoms: C_2  and  S_3
REMARK    3  A    between atoms: S_3  and  N_6
REMARK    4  A    between atoms: N_6  and  C_7
REMARK    5  A    between atoms: C_7  and  C_9
REMARK    6  A    between atoms: C_7  and  C_19
REMARK    7  A    between atoms: C_9  and  C_10
REMARK    8  A    between atoms: N_21  and  C_22
REMARK    9  A    between atoms: C_22  and  C_24
REMARK   10  A    between atoms: C_22  and  C_29
REMARK   11  A    between atoms: C_24  and  C_25
REMARK   12  A    between atoms: C_25  and  C_26
REMARK   13  A    between atoms: N_31  and  C_32
REMARK   14  A    between atoms: C_32  and  C_33
REMARK   15  A    between atoms: C_36  and  C_39
REMARK                            x       y       z     vdW  Elec       q    Type
REMARK                         _______ _______ _______ _____ _____    ______ ____
ROOT
ATOM      1  C   UNL     1       9.411   0.193  23.052  0.00  0.00    +0.159 C 
ENDROOT
BRANCH   1   3
ATOM      2  C   UNL     1       7.096   0.967  23.529  0.00  0.00    +0.233 C 
ATOM      3  N   UNL     1       8.272   0.390  23.950  0.00  0.00    -0.303 N 
ATOM      4  H   UNL     1       8.252  -0.264  24.729  0.00  0.00    +0.149 HD
ATOM      5  O   UNL     1       7.041   1.540  22.437  0.00  0.00    -0.274 OA
BRANCH   2   6
ATOM      6  C   UNL     1       5.901   0.947  24.513  0.00  0.00    +0.166 C 
BRANCH   6   7
ATOM      7  N   UNL     1       5.642   2.226  25.286  0.00  0.00    -0.182 NA
ATOM      8  H   UNL     1       5.842   2.040  26.274  0.00  0.00    +0.148 HD
BRANCH   7   9
ATOM      9  S   UNL     1       4.107   2.886  25.191  0.00  0.00    +0.030 S 
ATOM     10  O   UNL     1       3.180   1.867  25.613  0.00  0.00    -0.158 OA
ATOM     11  O   UNL     1       4.175   4.166  25.860  0.00  0.00    -0.158 OA
BRANCH   9  13
ATOM     12  C   UNL     1       4.753   4.261  22.952  0.00  0.00    +0.029 C 
ATOM     13  C   UNL     1       3.855   3.138  23.443  0.00  0.00    +0.181 C 
ENDBRANCH   9  13
ENDBRANCH   7   9
ENDBRANCH   6   7
BRANCH   6  14
ATOM     14  C   UNL     1       6.167  -0.200  25.536  0.00  0.00    +0.067 C 
BRANCH  14  15
ATOM     15  C   UNL     1       5.252  -1.388  25.413  0.00  0.00    -0.020 A 
ATOM     16  C   UNL     1       5.246  -2.340  24.339  0.00  0.00    +0.003 A 
ATOM     17  C   UNL     1       4.271  -3.294  24.627  0.00  0.00    +0.047 A 
ATOM     18  C   UNL     1       4.032  -4.399  23.801  0.00  0.00    +0.026 A 
ATOM     19  C   UNL     1       4.817  -4.533  22.650  0.00  0.00    +0.002 A 
ATOM     20  C   UNL     1       5.790  -3.590  22.331  0.00  0.00    +0.001 A 
ATOM     21  N   UNL     1       3.666  -2.908  25.800  0.00  0.00    -0.360 N 
ATOM     22  H   UNL     1       2.900  -3.403  26.238  0.00  0.00    +0.165 HD
ATOM     23  C   UNL     1       6.009  -2.487  23.162  0.00  0.00    +0.010 A 
ATOM     24  C   UNL     1       4.252  -1.768  26.286  0.00  0.00    +0.087 A 
ENDBRANCH  14  15
ENDBRANCH   6  14
ENDBRANCH   2   6
ENDBRANCH   1   3
BRANCH   1  25
ATOM     25  C   UNL     1       9.882  -1.284  23.124  0.00  0.00    +0.234 C 
ATOM     26  N   UNL     1       9.443  -1.973  24.237  0.00  0.00    -0.310 N 
ATOM     27  H   UNL     1       8.841  -1.517  24.907  0.00  0.00    +0.149 HD
ATOM     28  O   UNL     1      10.524  -1.815  22.221  0.00  0.00    -0.274 OA
BRANCH  26  29
ATOM     29  C   UNL     1       9.740  -3.374  24.444  0.00  0.00    +0.139 C 
BRANCH  29  30
ATOM     30  C   UNL     1       8.630  -4.046  25.217  0.00  0.00    -0.030 A 
ATOM     31  C   UNL     1       8.183  -3.493  26.426  0.00  0.00    +0.006 A 
ATOM     32  C   UNL     1       7.125  -4.078  27.132  0.00  0.00    +0.016 A 
ATOM     33  C   UNL     1       6.489  -5.216  26.626  0.00  0.00    +0.065 A 
ATOM     34  C   UNL     1       6.941  -5.784  25.429  0.00  0.00    +0.016 A 
ATOM     35  C   UNL     1       8.002  -5.199  24.727  0.00  0.00    +0.006 A 
BRANCH  33  36
ATOM     36  C   UNL     1       5.330  -5.807  27.357  0.00  0.00    +0.308 C 
ATOM     37  N   UNL     1       4.339  -5.096  27.796  0.00  0.00    -0.099 NA
ATOM     38  H   UNL     1       4.489  -4.100  27.622  0.00  0.00    +0.363 HD
ATOM     39  N   UNL     1       5.266  -7.147  27.599  0.00  0.00    -0.247 N 
ATOM     40  H   UNL     1       4.338  -7.407  27.921  0.00  0.00    +0.288 HD
ATOM     41  H   UNL     1       5.607  -7.751  26.862  0.00  0.00    +0.288 HD
ENDBRANCH  33  36
ENDBRANCH  29  30
ENDBRANCH  26  29
ENDBRANCH   1  25
BRANCH   1  42
ATOM     42  C   UNL     1      10.546   1.135  23.465  0.00  0.00    +0.041 C 
BRANCH  42  43
ATOM     43  C   UNL     1      10.482   2.482  22.752  0.00  0.00    +0.098 C 
BRANCH  43  44
ATOM     44  C   UNL     1      10.047   3.594  23.673  0.00  0.00    +0.211 C 
ATOM     45  O   UNL     1       9.183   3.452  24.531  0.00  0.00    -0.276 OA
ATOM     46  N   UNL     1      10.697   4.779  23.517  0.00  0.00    -0.329 N 
ATOM     47  H   UNL     1      10.461   5.519  24.166  0.00  0.00    +0.145 HD
ATOM     48  H   UNL     1      11.516   4.886  22.936  0.00  0.00    +0.145 HD
ENDBRANCH  43  44
ENDBRANCH  42  43
ENDBRANCH   1  42
TORSDOF 14
ENDMDL
MODEL 4
REMARK VINA RESULT:      -7.2      3.595      7.470
REMARK  Name = 
REMARK  15 active torsions:
REMARK  status: ('A' for Active; 'I' for Inactive)
REMARK    1  A    between atoms: C_1  and  C_2
REMARK    2  A    between atoms: C_2  and  S_3
REMARK    3  A    between atoms: S_3  and  N_6
REMARK    4  A    between atoms: N_6  and  C_7
REMARK    5  A    between atoms: C_7  and  C_9
REMARK    6  A    between atoms: C_7  and  C_19
REMARK    7  A    between atoms: C_9  and  C_10
REMARK    8  A    between atoms: N_21  and  C_22
REMARK    9  A    between atoms: C_22  and  C_24
REMARK   10  A    between atoms: C_22  and  C_29
REMARK   11  A    between atoms: C_24  and  C_25
REMARK   12  A    between atoms: C_25  and  C_26
REMARK   13  A    between atoms: N_31  and  C_32
REMARK   14  A    between atoms: C_32  and  C_33
REMARK   15  A    between atoms: C_36  and  C_39
REMARK                            x       y       z     vdW  Elec       q    Type
REMARK                         _______ _______ _______ _____ _____    ______ ____
ROOT
ATOM      1  C   UNL     1       7.565   1.339  22.788  0.00  0.00    +0.159 C 
ENDROOT
BRANCH   1   3
ATOM      2  C   UNL     1       6.644   0.900  25.057  0.00  0.00    +0.233 C 
ATOM      3  N   UNL     1       7.655   1.365  24.249  0.00  0.00    -0.303 N 
ATOM      4  H   UNL     1       8.612   1.352  24.596  0.00  0.00    +0.149 HD
ATOM      5  O   UNL     1       5.533   0.650  24.579  0.00  0.00    -0.274 OA
BRANCH   2   6
ATOM      6  C   UNL     1       6.931   0.801  26.574  0.00  0.00    +0.166 C 
BRANCH   6   7
ATOM      7  N   UNL     1       7.566   2.017  27.221  0.00  0.00    -0.182 NA
ATOM      8  H   UNL     1       8.441   1.716  27.662  0.00  0.00    +0.148 HD
BRANCH   7   9
ATOM      9  S   UNL     1       6.668   2.832  28.375  0.00  0.00    +0.030 S 
ATOM     10  O   UNL     1       5.448   2.091  28.565  0.00  0.00    -0.158 OA
ATOM     11  O   UNL     1       7.568   3.097  29.475  0.00  0.00    -0.158 OA
BRANCH   9  13
ATOM     12  C   UNL     1       6.957   4.473  26.243  0.00  0.00    +0.029 C 
ATOM     13  C   UNL     1       6.234   4.367  27.575  0.00  0.00    +0.181 C 
ENDBRANCH   9  13
ENDBRANCH   7   9
ENDBRANCH   6   7
BRANCH   6  14
ATOM     14  C   UNL     1       7.882  -0.419  26.783  0.00  0.00    +0.067 C 
BRANCH  14  15
ATOM     15  C   UNL     1       7.210  -1.764  26.736  0.00  0.00    -0.020 A 
ATOM     16  C   UNL     1       7.800  -2.985  26.266  0.00  0.00    +0.003 A 
ATOM     17  C   UNL     1       6.854  -3.997  26.422  0.00  0.00    +0.047 A 
ATOM     18  C   UNL     1       7.121  -5.334  26.100  0.00  0.00    +0.026 A 
ATOM     19  C   UNL     1       8.394  -5.642  25.609  0.00  0.00    +0.002 A 
ATOM     20  C   UNL     1       9.355  -4.650  25.432  0.00  0.00    +0.001 A 
ATOM     21  N   UNL     1       5.712  -3.409  26.914  0.00  0.00    -0.360 N 
ATOM     22  H   UNL     1       4.850  -3.902  27.102  0.00  0.00    +0.165 HD
ATOM     23  C   UNL     1       9.068  -3.319  25.748  0.00  0.00    +0.010 A 
ATOM     24  C   UNL     1       5.917  -2.068  27.114  0.00  0.00    +0.087 A 
ENDBRANCH  14  15
ENDBRANCH   6  14
ENDBRANCH   2   6
ENDBRANCH   1   3
BRANCH   1  25
ATOM     25  C   UNL     1       8.232   0.047  22.247  0.00  0.00    +0.234 C 
ATOM     26  N   UNL     1       7.625  -1.125  22.651  0.00  0.00    -0.310 N 
ATOM     27  H   UNL     1       6.796  -1.091  23.229  0.00  0.00    +0.149 HD
ATOM     28  O   UNL     1       9.173   0.073  21.458  0.00  0.00    -0.274 OA
BRANCH  26  29
ATOM     29  C   UNL     1       8.077  -2.425  22.201  0.00  0.00    +0.139 C 
BRANCH  29  30
ATOM     30  C   UNL     1       7.057  -3.488  22.531  0.00  0.00    -0.030 A 
ATOM     31  C   UNL     1       5.829  -3.128  23.105  0.00  0.00    +0.006 A 
ATOM     32  C   UNL     1       4.855  -4.096  23.376  0.00  0.00    +0.016 A 
ATOM     33  C   UNL     1       5.093  -5.437  23.059  0.00  0.00    +0.065 A 
ATOM     34  C   UNL     1       6.323  -5.807  22.504  0.00  0.00    +0.016 A 
ATOM     35  C   UNL     1       7.297  -4.837  22.237  0.00  0.00    +0.006 A 
BRANCH  33  36
ATOM     36  C   UNL     1       4.032  -6.458  23.304  0.00  0.00    +0.308 C 
ATOM     37  N   UNL     1       4.193  -7.460  24.110  0.00  0.00    -0.099 NA
ATOM     38  H   UNL     1       5.139  -7.479  24.498  0.00  0.00    +0.363 HD
ATOM     39  N   UNL     1       2.825  -6.377  22.675  0.00  0.00    -0.247 N 
ATOM     40  H   UNL     1       2.160  -7.019  23.096  0.00  0.00    +0.288 HD
ATOM     41  H   UNL     1       2.446  -5.446  22.554  0.00  0.00    +0.288 HD
ENDBRANCH  33  36
ENDBRANCH  29  30
ENDBRANCH  26  29
ENDBRANCH   1  25
BRANCH   1  42
ATOM     42  C   UNL     1       8.264   2.578  22.219  0.00  0.00    +0.041 C 
BRANCH  42  43
ATOM     43  C   UNL     1       8.976   3.396  23.292  0.00  0.00    +0.098 C 
BRANCH  43  44
ATOM     44  C   UNL     1      10.432   3.025  23.419  0.00  0.00    +0.211 C 
ATOM     45  O   UNL     1      10.811   1.946  23.859  0.00  0.00    -0.276 OA
ATOM     46  N   UNL     1      11.320   3.959  22.985  0.00  0.00    -0.329 N 
ATOM     47  H   UNL     1      12.300   3.705  23.006  0.00  0.00    +0.145 HD
ATOM     48  H   UNL     1      11.045   4.786  22.474  0.00  0.00    +0.145 HD
ENDBRANCH  43  44
ENDBRANCH  42  43
ENDBRANCH   1  42
TORSDOF 14
ENDMDL
MODEL 5
REMARK VINA RESULT:      -7.2      2.835      7.404
REMARK  Name = 
REMARK  15 active torsions:
REMARK  status: ('A' for Active; 'I' for Inactive)
REMARK    1  A    between atoms: C_1  and  C_2
REMARK    2  A    between atoms: C_2  and  S_3
REMARK    3  A    between atoms: S_3  and  N_6
REMARK    4  A    between atoms: N_6  and  C_7
REMARK    5  A    between atoms: C_7  and  C_9
REMARK    6  A    between atoms: C_7  and  C_19
REMARK    7  A    between atoms: C_9  and  C_10
REMARK    8  A    between atoms: N_21  and  C_22
REMARK    9  A    between atoms: C_22  and  C_24
REMARK   10  A    between atoms: C_22  and  C_29
REMARK   11  A    between atoms: C_24  and  C_25
REMARK   12  A    between atoms: C_25  and  C_26
REMARK   13  A    between atoms: N_31  and  C_32
REMARK   14  A    between atoms: C_32  and  C_33
REMARK   15  A    between atoms: C_36  and  C_39
REMARK                            x       y       z     vdW  Elec       q    Type
REMARK                         _______ _______ _______ _____ _____    ______ ____
ROOT
ATOM      1  C   UNL     1       9.074  -0.910  23.473  0.00  0.00    +0.159 C 
ENDROOT
BRANCH   1   3
ATOM      2  C   UNL     1       6.989   0.402  23.815  0.00  0.00    +0.233 C 
ATOM      3  N   UNL     1       8.219  -0.022  24.261  0.00  0.00    -0.303 N 
ATOM      4  H   UNL     1       8.389  -0.079  25.263  0.00  0.00    +0.149 HD
ATOM      5  O   UNL     1       6.661   0.225  22.638  0.00  0.00    -0.274 OA
BRANCH   2   6
ATOM      6  C   UNL     1       6.096   1.178  24.813  0.00  0.00    +0.166 C 
BRANCH   6   7
ATOM      7  N   UNL     1       5.046   0.369  25.550  0.00  0.00    -0.182 NA
ATOM      8  H   UNL     1       4.239   0.979  25.714  0.00  0.00    +0.148 HD
BRANCH   7   9
ATOM      9  S   UNL     1       5.484  -0.304  27.019  0.00  0.00    +0.030 S 
ATOM     10  O   UNL     1       6.922  -0.373  27.043  0.00  0.00    -0.158 OA
ATOM     11  O   UNL     1       4.747   0.420  28.031  0.00  0.00    -0.158 OA
BRANCH   9  13
ATOM     12  C   UNL     1       4.577  -2.332  25.474  0.00  0.00    +0.029 C 
ATOM     13  C   UNL     1       4.876  -1.978  26.921  0.00  0.00    +0.181 C 
ENDBRANCH   9  13
ENDBRANCH   7   9
ENDBRANCH   6   7
BRANCH   6  14
ATOM     14  C   UNL     1       5.374   2.301  24.005  0.00  0.00    +0.067 C 
BRANCH  14  15
ATOM     15  C   UNL     1       6.285   3.324  23.384  0.00  0.00    -0.020 A 
ATOM     16  C   UNL     1       7.175   4.201  24.091  0.00  0.00    +0.003 A 
ATOM     17  C   UNL     1       7.855   4.964  23.144  0.00  0.00    +0.047 A 
ATOM     18  C   UNL     1       8.840   5.896  23.494  0.00  0.00    +0.026 A 
ATOM     19  C   UNL     1       9.138   6.047  24.853  0.00  0.00    +0.002 A 
ATOM     20  C   UNL     1       8.467   5.307  25.822  0.00  0.00    +0.001 A 
ATOM     21  N   UNL     1       7.361   4.609  21.911  0.00  0.00    -0.360 N 
ATOM     22  H   UNL     1       7.655   5.022  21.036  0.00  0.00    +0.165 HD
ATOM     23  C   UNL     1       7.479   4.388  25.456  0.00  0.00    +0.010 A 
ATOM     24  C   UNL     1       6.421   3.619  22.042  0.00  0.00    +0.087 A 
ENDBRANCH  14  15
ENDBRANCH   6  14
ENDBRANCH   2   6
ENDBRANCH   1   3
BRANCH   1  25
ATOM     25  C   UNL     1       9.378  -2.198  24.284  0.00  0.00    +0.234 C 
ATOM     26  N   UNL     1       8.557  -2.395  25.376  0.00  0.00    -0.310 N 
ATOM     27  H   UNL     1       7.814  -1.740  25.574  0.00  0.00    +0.149 HD
ATOM     28  O   UNL     1      10.225  -3.014  23.930  0.00  0.00    -0.274 OA
BRANCH  26  29
ATOM     29  C   UNL     1       8.659  -3.568  26.217  0.00  0.00    +0.139 C 
BRANCH  29  30
ATOM     30  C   UNL     1       7.524  -4.524  25.939  0.00  0.00    -0.030 A 
ATOM     31  C   UNL     1       6.835  -5.123  27.004  0.00  0.00    +0.006 A 
ATOM     32  C   UNL     1       5.752  -5.976  26.765  0.00  0.00    +0.016 A 
ATOM     33  C   UNL     1       5.334  -6.228  25.454  0.00  0.00    +0.065 A 
ATOM     34  C   UNL     1       6.028  -5.649  24.385  0.00  0.00    +0.016 A 
ATOM     35  C   UNL     1       7.113  -4.798  24.628  0.00  0.00    +0.006 A 
BRANCH  33  36
ATOM     36  C   UNL     1       4.148  -7.099  25.206  0.00  0.00    +0.308 C 
ATOM     37  N   UNL     1       3.834  -7.543  24.030  0.00  0.00    -0.099 NA
ATOM     38  H   UNL     1       4.464  -7.177  23.313  0.00  0.00    +0.363 HD
ATOM     39  N   UNL     1       3.327  -7.470  26.230  0.00  0.00    -0.247 N 
ATOM     40  H   UNL     1       2.699  -8.211  25.933  0.00  0.00    +0.288 HD
ATOM     41  H   UNL     1       3.779  -7.673  27.113  0.00  0.00    +0.288 HD
ENDBRANCH  33  36
ENDBRANCH  29  30
ENDBRANCH  26  29
ENDBRANCH   1  25
BRANCH   1  42
ATOM     42  C   UNL     1      10.375  -0.179  23.127  0.00  0.00    +0.041 C 
BRANCH  42  43
ATOM     43  C   UNL     1      10.547   1.119  23.910  0.00  0.00    +0.098 C 
BRANCH  43  44
ATOM     44  C   UNL     1      10.574   2.328  23.011  0.00  0.00    +0.211 C 
ATOM     45  O   UNL     1      11.123   3.380  23.321  0.00  0.00    -0.276 OA
ATOM     46  N   UNL     1       9.971   2.179  21.801  0.00  0.00    -0.329 N 
ATOM     47  H   UNL     1      10.031   2.960  21.160  0.00  0.00    +0.145 HD
ATOM     48  H   UNL     1       9.652   1.287  21.450  0.00  0.00    +0.145 HD
ENDBRANCH  43  44
ENDBRANCH  42  43
ENDBRANCH   1  42
TORSDOF 14
ENDMDL
MODEL 6
REMARK VINA RESULT:      -7.1      2.275      5.175
REMARK  Name = 
REMARK  15 active torsions:
REMARK  status: ('A' for Active; 'I' for Inactive)
REMARK    1  A    between atoms: C_1  and  C_2
REMARK    2  A    between atoms: C_2  and  S_3
REMARK    3  A    between atoms: S_3  and  N_6
REMARK    4  A    between atoms: N_6  and  C_7
REMARK    5  A    between atoms: C_7  and  C_9
REMARK    6  A    between atoms: C_7  and  C_19
REMARK    7  A    between atoms: C_9  and  C_10
REMARK    8  A    between atoms: N_21  and  C_22
REMARK    9  A    between atoms: C_22  and  C_24
REMARK   10  A    between atoms: C_22  and  C_29
REMARK   11  A    between atoms: C_24  and  C_25
REMARK   12  A    between atoms: C_25  and  C_26
REMARK   13  A    between atoms: N_31  and  C_32
REMARK   14  A    between atoms: C_32  and  C_33
REMARK   15  A    between atoms: C_36  and  C_39
REMARK                            x       y       z     vdW  Elec       q    Type
REMARK                         _______ _______ _______ _____ _____    ______ ____
ROOT
ATOM      1  C   UNL     1       4.730  -2.953  27.166  0.00  0.00    +0.159 C 
ENDROOT
BRANCH   1   3
ATOM      2  C   UNL     1       5.729  -2.766  24.896  0.00  0.00    +0.233 C 
ATOM      3  N   UNL     1       5.769  -3.257  26.180  0.00  0.00    -0.303 N 
ATOM      4  H   UNL     1       6.669  -3.483  26.596  0.00  0.00    +0.149 HD
ATOM      5  O   UNL     1       4.701  -2.234  24.466  0.00  0.00    -0.274 OA
BRANCH   2   6
ATOM      6  C   UNL     1       6.974  -2.996  24.005  0.00  0.00    +0.166 C 
BRANCH   6   7
ATOM      7  N   UNL     1       7.061  -4.336  23.301  0.00  0.00    -0.182 NA
ATOM      8  H   UNL     1       8.009  -4.430  22.922  0.00  0.00    +0.148 HD
BRANCH   7   9
ATOM      9  S   UNL     1       5.982  -4.622  22.053  0.00  0.00    +0.030 S 
ATOM     10  O   UNL     1       5.582  -3.339  21.536  0.00  0.00    -0.158 OA
ATOM     11  O   UNL     1       6.599  -5.618  21.206  0.00  0.00    -0.158 OA
BRANCH   9  13
ATOM     12  C   UNL     1       5.011  -6.407  23.841  0.00  0.00    +0.029 C 
ATOM     13  C   UNL     1       4.562  -5.329  22.869  0.00  0.00    +0.181 C 
ENDBRANCH   9  13
ENDBRANCH   7   9
ENDBRANCH   6   7
BRANCH   6  14
ATOM     14  C   UNL     1       8.227  -2.840  24.921  0.00  0.00    +0.067 C 
BRANCH  14  15
ATOM     15  C   UNL     1       8.863  -1.476  24.902  0.00  0.00    -0.020 A 
ATOM     16  C   UNL     1       9.170  -0.706  23.731  0.00  0.00    +0.003 A 
ATOM     17  C   UNL     1       9.718   0.504  24.154  0.00  0.00    +0.047 A 
ATOM     18  C   UNL     1      10.092   1.516  23.261  0.00  0.00    +0.026 A 
ATOM     19  C   UNL     1       9.893   1.283  21.896  0.00  0.00    +0.002 A 
ATOM     20  C   UNL     1       9.358   0.080  21.443  0.00  0.00    +0.001 A 
ATOM     21  N   UNL     1       9.797   0.452  25.526  0.00  0.00    -0.360 N 
ATOM     22  H   UNL     1      10.180   1.186  26.106  0.00  0.00    +0.165 HD
ATOM     23  C   UNL     1       9.001  -0.923  22.348  0.00  0.00    +0.010 A 
ATOM     24  C   UNL     1       9.278  -0.731  25.988  0.00  0.00    +0.087 A 
ENDBRANCH  14  15
ENDBRANCH   6  14
ENDBRANCH   2   6
ENDBRANCH   1   3
BRANCH   1  25
ATOM     25  C   UNL     1       4.984  -1.548  27.774  0.00  0.00    +0.234 C 
ATOM     26  N   UNL     1       5.881  -0.771  27.069  0.00  0.00    -0.310 N 
ATOM     27  H   UNL     1       6.291  -1.122  26.214  0.00  0.00    +0.149 HD
ATOM     28  O   UNL     1       4.372  -1.135  28.756  0.00  0.00    -0.274 OA
BRANCH  26  29
ATOM     29  C   UNL     1       6.199   0.587  27.457  0.00  0.00    +0.139 C 
BRANCH  29  30
ATOM     30  C   UNL     1       6.412   1.454  26.239  0.00  0.00    -0.030 A 
ATOM     31  C   UNL     1       7.065   2.689  26.363  0.00  0.00    +0.006 A 
ATOM     32  C   UNL     1       7.311   3.484  25.238  0.00  0.00    +0.016 A 
ATOM     33  C   UNL     1       6.919   3.044  23.969  0.00  0.00    +0.065 A 
ATOM     34  C   UNL     1       6.250   1.821  23.840  0.00  0.00    +0.016 A 
ATOM     35  C   UNL     1       6.003   1.029  24.967  0.00  0.00    +0.006 A 
BRANCH  33  36
ATOM     36  C   UNL     1       7.227   3.872  22.767  0.00  0.00    +0.308 C 
ATOM     37  N   UNL     1       6.453   3.921  21.729  0.00  0.00    -0.099 NA
ATOM     38  H   UNL     1       5.656   3.289  21.828  0.00  0.00    +0.363 HD
ATOM     39  N   UNL     1       8.361   4.627  22.710  0.00  0.00    -0.247 N 
ATOM     40  H   UNL     1       8.321   5.273  21.927  0.00  0.00    +0.288 HD
ATOM     41  H   UNL     1       8.642   5.077  23.573  0.00  0.00    +0.288 HD
ENDBRANCH  33  36
ENDBRANCH  29  30
ENDBRANCH  26  29
ENDBRANCH   1  25
BRANCH   1  42
ATOM     42  C   UNL     1       4.753  -4.020  28.265  0.00  0.00    +0.041 C 
BRANCH  42  43
ATOM     43  C   UNL     1       4.334  -5.396  27.757  0.00  0.00    +0.098 C 
BRANCH  43  44
ATOM     44  C   UNL     1       5.490  -6.363  27.714  0.00  0.00    +0.211 C 
ATOM     45  O   UNL     1       6.496  -6.174  27.039  0.00  0.00    -0.276 OA
ATOM     46  N   UNL     1       5.369  -7.466  28.501  0.00  0.00    -0.329 N 
ATOM     47  H   UNL     1       6.160  -8.096  28.532  0.00  0.00    +0.145 HD
ATOM     48  H   UNL     1       4.634  -7.576  29.186  0.00  0.00    +0.145 HD
ENDBRANCH  43  44
ENDBRANCH  42  43
ENDBRANCH   1  42
TORSDOF 14
ENDMDL
MODEL 7
REMARK VINA RESULT:      -7.1      2.424      4.495
REMARK  Name = 
REMARK  15 active torsions:
REMARK  status: ('A' for Active; 'I' for Inactive)
REMARK    1  A    between atoms: C_1  and  C_2
REMARK    2  A    between atoms: C_2  and  S_3
REMARK    3  A    between atoms: S_3  and  N_6
REMARK    4  A    between atoms: N_6  and  C_7
REMARK    5  A    between atoms: C_7  and  C_9
REMARK    6  A    between atoms: C_7  and  C_19
REMARK    7  A    between atoms: C_9  and  C_10
REMARK    8  A    between atoms: N_21  and  C_22
REMARK    9  A    between atoms: C_22  and  C_24
REMARK   10  A    between atoms: C_22  and  C_29
REMARK   11  A    between atoms: C_24  and  C_25
REMARK   12  A    between atoms: C_25  and  C_26
REMARK   13  A    between atoms: N_31  and  C_32
REMARK   14  A    between atoms: C_32  and  C_33
REMARK   15  A    between atoms: C_36  and  C_39
REMARK                            x       y       z     vdW  Elec       q    Type
REMARK                         _______ _______ _______ _____ _____    ______ ____
ROOT
ATOM      1  C   UNL     1       8.142  -3.864  24.128  0.00  0.00    +0.159 C 
ENDROOT
BRANCH   1   3
ATOM      2  C   UNL     1       6.944  -3.167  26.193  0.00  0.00    +0.233 C 
ATOM      3  N   UNL     1       6.948  -3.402  24.838  0.00  0.00    -0.303 N 
ATOM      4  H   UNL     1       6.296  -2.894  24.245  0.00  0.00    +0.149 HD
ATOM      5  O   UNL     1       7.885  -3.552  26.893  0.00  0.00    -0.274 OA
BRANCH   2   6
ATOM      6  C   UNL     1       5.685  -2.500  26.797  0.00  0.00    +0.166 C 
BRANCH   6   7
ATOM      7  N   UNL     1       5.889  -1.151  27.461  0.00  0.00    -0.182 NA
ATOM      8  H   UNL     1       5.383  -1.161  28.352  0.00  0.00    +0.148 HD
BRANCH   7   9
ATOM      9  S   UNL     1       5.402   0.207  26.612  0.00  0.00    +0.030 S 
ATOM     10  O   UNL     1       4.392  -0.217  25.676  0.00  0.00    -0.158 OA
ATOM     11  O   UNL     1       5.132   1.226  27.601  0.00  0.00    -0.158 OA
BRANCH   9  13
ATOM     12  C   UNL     1       6.683   0.186  24.229  0.00  0.00    +0.029 C 
ATOM     13  C   UNL     1       6.843   0.660  25.664  0.00  0.00    +0.181 C 
ENDBRANCH   9  13
ENDBRANCH   7   9
ENDBRANCH   6   7
BRANCH   6  14
ATOM     14  C   UNL     1       5.106  -3.487  27.857  0.00  0.00    +0.067 C 
BRANCH  14  15
ATOM     15  C   UNL     1       4.897  -4.894  27.369  0.00  0.00    -0.020 A 
ATOM     16  C   UNL     1       4.020  -5.296  26.306  0.00  0.00    +0.003 A 
ATOM     17  C   UNL     1       4.147  -6.676  26.154  0.00  0.00    +0.047 A 
ATOM     18  C   UNL     1       3.459  -7.391  25.167  0.00  0.00    +0.026 A 
ATOM     19  C   UNL     1       2.621  -6.672  24.308  0.00  0.00    +0.002 A 
ATOM     20  C   UNL     1       2.466  -5.295  24.443  0.00  0.00    +0.001 A 
ATOM     21  N   UNL     1       5.022  -7.108  27.123  0.00  0.00    -0.360 N 
ATOM     22  H   UNL     1       5.284  -8.074  27.267  0.00  0.00    +0.165 HD
ATOM     23  C   UNL     1       3.152  -4.598  25.441  0.00  0.00    +0.010 A 
ATOM     24  C   UNL     1       5.485  -6.045  27.854  0.00  0.00    +0.087 A 
ENDBRANCH  14  15
ENDBRANCH   6  14
ENDBRANCH   2   6
ENDBRANCH   1   3
BRANCH   1  25
ATOM     25  C   UNL     1       8.555  -2.814  23.063  0.00  0.00    +0.234 C 
ATOM     26  N   UNL     1       9.853  -2.358  23.178  0.00  0.00    -0.310 N 
ATOM     27  H   UNL     1      10.456  -2.731  23.898  0.00  0.00    +0.149 HD
ATOM     28  O   UNL     1       7.811  -2.481  22.144  0.00  0.00    -0.274 OA
BRANCH  26  29
ATOM     29  C   UNL     1      10.428  -1.418  22.241  0.00  0.00    +0.139 C 
BRANCH  29  30
ATOM     30  C   UNL     1      10.161   0.003  22.678  0.00  0.00    -0.030 A 
ATOM     31  C   UNL     1       9.510   0.892  21.811  0.00  0.00    +0.006 A 
ATOM     32  C   UNL     1       9.215   2.199  22.217  0.00  0.00    +0.016 A 
ATOM     33  C   UNL     1       9.555   2.626  23.505  0.00  0.00    +0.065 A 
ATOM     34  C   UNL     1      10.223   1.751  24.369  0.00  0.00    +0.016 A 
ATOM     35  C   UNL     1      10.519   0.445  23.959  0.00  0.00    +0.006 A 
BRANCH  33  36
ATOM     36  C   UNL     1       9.194   4.004  23.950  0.00  0.00    +0.308 C 
ATOM     37  N   UNL     1       8.243   4.244  24.796  0.00  0.00    -0.099 NA
ATOM     38  H   UNL     1       7.757   3.386  25.064  0.00  0.00    +0.363 HD
ATOM     39  N   UNL     1       9.865   5.091  23.472  0.00  0.00    -0.247 N 
ATOM     40  H   UNL     1       9.637   5.919  24.015  0.00  0.00    +0.288 HD
ATOM     41  H   UNL     1      10.862   4.977  23.336  0.00  0.00    +0.288 HD
ENDBRANCH  33  36
ENDBRANCH  29  30
ENDBRANCH  26  29
ENDBRANCH   1  25
BRANCH   1  42
ATOM     42  C   UNL     1       7.841  -5.210  23.460  0.00  0.00    +0.041 C 
BRANCH  42  43
ATOM     43  C   UNL     1       6.375  -5.613  23.584  0.00  0.00    +0.098 C 
BRANCH  43  44
ATOM     44  C   UNL     1       5.593  -5.310  22.332  0.00  0.00    +0.211 C 
ATOM     45  O   UNL     1       4.955  -4.275  22.175  0.00  0.00    -0.276 OA
ATOM     46  N   UNL     1       5.656  -6.253  21.353  0.00  0.00    -0.329 N 
ATOM     47  H   UNL     1       5.187  -6.041  20.481  0.00  0.00    +0.145 HD
ATOM     48  H   UNL     1       6.294  -7.035  21.382  0.00  0.00    +0.145 HD
ENDBRANCH  43  44
ENDBRANCH  42  43
ENDBRANCH   1  42
TORSDOF 14
ENDMDL
MODEL 8
REMARK VINA RESULT:      -7.0      1.531      2.008
REMARK  Name = 
REMARK  15 active torsions:
REMARK  status: ('A' for Active; 'I' for Inactive)
REMARK    1  A    between atoms: C_1  and  C_2
REMARK    2  A    between atoms: C_2  and  S_3
REMARK    3  A    between atoms: S_3  and  N_6
REMARK    4  A    between atoms: N_6  and  C_7
REMARK    5  A    between atoms: C_7  and  C_9
REMARK    6  A    between atoms: C_7  and  C_19
REMARK    7  A    between atoms: C_9  and  C_10
REMARK    8  A    between atoms: N_21  and  C_22
REMARK    9  A    between atoms: C_22  and  C_24
REMARK   10  A    between atoms: C_22  and  C_29
REMARK   11  A    between atoms: C_24  and  C_25
REMARK   12  A    between atoms: C_25  and  C_26
REMARK   13  A    between atoms: N_31  and  C_32
REMARK   14  A    between atoms: C_32  and  C_33
REMARK   15  A    between atoms: C_36  and  C_39
REMARK                            x       y       z     vdW  Elec       q    Type
REMARK                         _______ _______ _______ _____ _____    ______ ____
ROOT
ATOM      1  C   UNL     1       8.305  -3.680  23.800  0.00  0.00    +0.159 C 
ENDROOT
BRANCH   1   3
ATOM      2  C   UNL     1       7.065  -3.746  25.955  0.00  0.00    +0.233 C 
ATOM      3  N   UNL     1       7.214  -3.255  24.679  0.00  0.00    -0.303 N 
ATOM      4  H   UNL     1       6.854  -2.329  24.459  0.00  0.00    +0.149 HD
ATOM      5  O   UNL     1       7.718  -4.728  26.323  0.00  0.00    -0.274 OA
BRANCH   2   6
ATOM      6  C   UNL     1       5.994  -3.083  26.853  0.00  0.00    +0.166 C 
BRANCH   6   7
ATOM      7  N   UNL     1       4.747  -3.901  27.132  0.00  0.00    -0.182 NA
ATOM      8  H   UNL     1       3.948  -3.260  27.142  0.00  0.00    +0.148 HD
BRANCH   7   9
ATOM      9  S   UNL     1       4.708  -4.785  28.553  0.00  0.00    +0.030 S 
ATOM     10  O   UNL     1       6.070  -4.933  28.999  0.00  0.00    -0.158 OA
ATOM     11  O   UNL     1       3.705  -4.165  29.388  0.00  0.00    -0.158 OA
BRANCH   9  13
ATOM     12  C   UNL     1       4.766  -6.755  26.699  0.00  0.00    +0.029 C 
ATOM     13  C   UNL     1       4.144  -6.398  28.039  0.00  0.00    +0.181 C 
ENDBRANCH   9  13
ENDBRANCH   7   9
ENDBRANCH   6   7
BRANCH   6  14
ATOM     14  C   UNL     1       5.565  -1.757  26.153  0.00  0.00    +0.067 C 
BRANCH  14  15
ATOM     15  C   UNL     1       6.350  -0.539  26.560  0.00  0.00    -0.020 A 
ATOM     16  C   UNL     1       6.085   0.810  26.152  0.00  0.00    +0.003 A 
ATOM     17  C   UNL     1       7.023   1.631  26.776  0.00  0.00    +0.047 A 
ATOM     18  C   UNL     1       7.021   3.024  26.628  0.00  0.00    +0.026 A 
ATOM     19  C   UNL     1       6.028   3.591  25.823  0.00  0.00    +0.002 A 
ATOM     20  C   UNL     1       5.085   2.795  25.178  0.00  0.00    +0.001 A 
ATOM     21  N   UNL     1       7.863   0.811  27.490  0.00  0.00    -0.360 N 
ATOM     22  H   UNL     1       8.659   1.133  28.026  0.00  0.00    +0.165 HD
ATOM     23  C   UNL     1       5.107   1.406  25.328  0.00  0.00    +0.010 A 
ATOM     24  C   UNL     1       7.464  -0.496  27.375  0.00  0.00    +0.087 A 
ENDBRANCH  14  15
ENDBRANCH   6  14
ENDBRANCH   2   6
ENDBRANCH   1   3
BRANCH   1  25
ATOM     25  C   UNL     1       9.347  -2.537  23.672  0.00  0.00    +0.234 C 
ATOM     26  N   UNL     1       9.079  -1.426  24.446  0.00  0.00    -0.310 N 
ATOM     27  H   UNL     1       8.271  -1.417  25.053  0.00  0.00    +0.149 HD
ATOM     28  O   UNL     1      10.370  -2.651  23.000  0.00  0.00    -0.274 OA
BRANCH  26  29
ATOM     29  C   UNL     1       9.969  -0.286  24.496  0.00  0.00    +0.139 C 
BRANCH  29  30
ATOM     30  C   UNL     1       9.314   0.930  23.885  0.00  0.00    -0.030 A 
ATOM     31  C   UNL     1       8.168   0.783  23.091  0.00  0.00    +0.006 A 
ATOM     32  C   UNL     1       7.522   1.903  22.553  0.00  0.00    +0.016 A 
ATOM     33  C   UNL     1       8.009   3.188  22.819  0.00  0.00    +0.065 A 
ATOM     34  C   UNL     1       9.163   3.340  23.596  0.00  0.00    +0.016 A 
ATOM     35  C   UNL     1       9.808   2.218  24.129  0.00  0.00    +0.006 A 
BRANCH  33  36
ATOM     36  C   UNL     1       7.289   4.380  22.285  0.00  0.00    +0.308 C 
ATOM     37  N   UNL     1       7.865   5.527  22.103  0.00  0.00    -0.099 NA
ATOM     38  H   UNL     1       8.837   5.510  22.419  0.00  0.00    +0.363 HD
ATOM     39  N   UNL     1       5.966   4.311  21.962  0.00  0.00    -0.247 N 
ATOM     40  H   UNL     1       5.684   5.133  21.434  0.00  0.00    +0.288 HD
ATOM     41  H   UNL     1       5.655   3.448  21.534  0.00  0.00    +0.288 HD
ENDBRANCH  33  36
ENDBRANCH  29  30
ENDBRANCH  26  29
ENDBRANCH   1  25
BRANCH   1  42
ATOM     42  C   UNL     1       7.733  -4.034  22.423  0.00  0.00    +0.041 C 
BRANCH  42  43
ATOM     43  C   UNL     1       7.434  -5.523  22.276  0.00  0.00    +0.098 C 
BRANCH  43  44
ATOM     44  C   UNL     1       6.115  -5.774  21.590  0.00  0.00    +0.211 C 
ATOM     45  O   UNL     1       5.932  -5.567  20.396  0.00  0.00    -0.276 OA
ATOM     46  N   UNL     1       5.126  -6.278  22.376  0.00  0.00    -0.329 N 
ATOM     47  H   UNL     1       4.252  -6.510  21.922  0.00  0.00    +0.145 HD
ATOM     48  H   UNL     1       5.285  -6.609  23.318  0.00  0.00    +0.145 HD
ENDBRANCH  43  44
ENDBRANCH  42  43
ENDBRANCH   1  42
TORSDOF 14
ENDMDL
MODEL 9
REMARK VINA RESULT:      -7.0      2.381      3.697
REMARK  Name = 
REMARK  15 active torsions:
REMARK  status: ('A' for Active; 'I' for Inactive)
REMARK    1  A    between atoms: C_1  and  C_2
REMARK    2  A    between atoms: C_2  and  S_3
REMARK    3  A    between atoms: S_3  and  N_6
REMARK    4  A    between atoms: N_6  and  C_7
REMARK    5  A    between atoms: C_7  and  C_9
REMARK    6  A    between atoms: C_7  and  C_19
REMARK    7  A    between atoms: C_9  and  C_10
REMARK    8  A    between atoms: N_21  and  C_22
REMARK    9  A    between atoms: C_22  and  C_24
REMARK   10  A    between atoms: C_22  and  C_29
REMARK   11  A    between atoms: C_24  and  C_25
REMARK   12  A    between atoms: C_25  and  C_26
REMARK   13  A    between atoms: N_31  and  C_32
REMARK   14  A    between atoms: C_32  and  C_33
REMARK   15  A    between atoms: C_36  and  C_39
REMARK                            x       y       z     vdW  Elec       q    Type
REMARK                         _______ _______ _______ _____ _____    ______ ____
ROOT
ATOM      1  C   UNL     1       7.750  -4.067  24.711  0.00  0.00    +0.159 C 
ENDROOT
BRANCH   1   3
ATOM      2  C   UNL     1       6.986  -2.148  26.096  0.00  0.00    +0.233 C 
ATOM      3  N   UNL     1       6.702  -3.251  25.325  0.00  0.00    -0.303 N 
ATOM      4  H   UNL     1       5.813  -3.293  24.830  0.00  0.00    +0.149 HD
ATOM      5  O   UNL     1       8.140  -1.940  26.481  0.00  0.00    -0.274 OA
BRANCH   2   6
ATOM      6  C   UNL     1       5.798  -1.256  26.530  0.00  0.00    +0.166 C 
BRANCH   6   7
ATOM      7  N   UNL     1       4.496  -1.452  25.776  0.00  0.00    -0.182 NA
ATOM      8  H   UNL     1       4.173  -0.531  25.464  0.00  0.00    +0.148 HD
BRANCH   7   9
ATOM      9  S   UNL     1       3.234  -2.184  26.597  0.00  0.00    +0.030 S 
ATOM     10  O   UNL     1       3.795  -2.810  27.766  0.00  0.00    -0.158 OA
ATOM     11  O   UNL     1       2.189  -1.191  26.701  0.00  0.00    -0.158 OA
BRANCH   9  13
ATOM     12  C   UNL     1       2.477  -4.765  26.293  0.00  0.00    +0.029 C 
ATOM     13  C   UNL     1       2.710  -3.490  25.499  0.00  0.00    +0.181 C 
ENDBRANCH   9  13
ENDBRANCH   7   9
ENDBRANCH   6   7
BRANCH   6  14
ATOM     14  C   UNL     1       6.249   0.227  26.352  0.00  0.00    +0.067 C 
BRANCH  14  15
ATOM     15  C   UNL     1       6.322   0.703  24.927  0.00  0.00    -0.020 A 
ATOM     16  C   UNL     1       6.059   2.038  24.469  0.00  0.00    +0.003 A 
ATOM     17  C   UNL     1       6.270   2.060  23.091  0.00  0.00    +0.047 A 
ATOM     18  C   UNL     1       6.143   3.227  22.328  0.00  0.00    +0.026 A 
ATOM     19  C   UNL     1       5.795   4.406  22.997  0.00  0.00    +0.002 A 
ATOM     20  C   UNL     1       5.567   4.412  24.370  0.00  0.00    +0.001 A 
ATOM     21  N   UNL     1       6.593   0.778  22.713  0.00  0.00    -0.360 N 
ATOM     22  H   UNL     1       6.776   0.490  21.761  0.00  0.00    +0.165 HD
ATOM     23  C   UNL     1       5.688   3.235  25.115  0.00  0.00    +0.010 A 
ATOM     24  C   UNL     1       6.636  -0.045  23.810  0.00  0.00    +0.087 A 
ENDBRANCH  14  15
ENDBRANCH   6  14
ENDBRANCH   2   6
ENDBRANCH   1   3
BRANCH   1  25
ATOM     25  C   UNL     1       8.304  -3.346  23.453  0.00  0.00    +0.234 C 
ATOM     26  N   UNL     1       9.422  -2.569  23.682  0.00  0.00    -0.310 N 
ATOM     27  H   UNL     1       9.828  -2.529  24.607  0.00  0.00    +0.149 HD
ATOM     28  O   UNL     1       7.831  -3.521  22.333  0.00  0.00    -0.274 OA
BRANCH  26  29
ATOM     29  C   UNL     1      10.106  -1.867  22.618  0.00  0.00    +0.139 C 
BRANCH  29  30
ATOM     30  C   UNL     1      10.148  -0.384  22.897  0.00  0.00    -0.030 A 
ATOM     31  C   UNL     1       9.964   0.532  21.852  0.00  0.00    +0.006 A 
ATOM     32  C   UNL     1       9.955   1.909  22.101  0.00  0.00    +0.016 A 
ATOM     33  C   UNL     1      10.115   2.386  23.406  0.00  0.00    +0.065 A 
ATOM     34  C   UNL     1      10.319   1.479  24.452  0.00  0.00    +0.016 A 
ATOM     35  C   UNL     1      10.330   0.102  24.199  0.00  0.00    +0.006 A 
BRANCH  33  36
ATOM     36  C   UNL     1      10.056   3.853  23.674  0.00  0.00    +0.308 C 
ATOM     37  N   UNL     1       9.140   4.398  24.411  0.00  0.00    -0.099 NA
ATOM     38  H   UNL     1       8.456   3.707  24.726  0.00  0.00    +0.363 HD
ATOM     39  N   UNL     1      10.984   4.699  23.140  0.00  0.00    -0.247 N 
ATOM     40  H   UNL     1      10.921   5.616  23.574  0.00  0.00    +0.288 HD
ATOM     41  H   UNL     1      11.934   4.351  23.098  0.00  0.00    +0.288 HD
ENDBRANCH  33  36
ENDBRANCH  29  30
ENDBRANCH  26  29
ENDBRANCH   1  25
BRANCH   1  42
ATOM     42  C   UNL     1       7.166  -5.431  24.329  0.00  0.00    +0.041 C 
BRANCH  42  43
ATOM     43  C   UNL     1       5.641  -5.441  24.337  0.00  0.00    +0.098 C 
BRANCH  43  44
ATOM     44  C   UNL     1       5.065  -5.546  22.947  0.00  0.00    +0.211 C 
ATOM     45  O   UNL     1       3.966  -5.095  22.643  0.00  0.00    -0.276 OA
ATOM     46  N   UNL     1       5.856  -6.154  22.023  0.00  0.00    -0.329 N 
ATOM     47  H   UNL     1       5.513  -6.181  21.072  0.00  0.00    +0.145 HD
ATOM     48  H   UNL     1       6.823  -6.392  22.197  0.00  0.00    +0.145 HD
ENDBRANCH  43  44
ENDBRANCH  42  43
ENDBRANCH   1  42
TORSDOF 14
ENDMDL
