MODEL 1
REMARK VINA RESULT:      -7.1      0.000      0.000
REMARK  Name = 
REMARK  5 active torsions:
REMARK  status: ('A' for Active; 'I' for Inactive)
REMARK    1  A    between atoms: N_1  and  C_2
REMARK    2  A    between atoms: C_2  and  C_3
REMARK    3  A    between atoms: C_5  and  C_6
REMARK    4  A    between atoms: C_6  and  S_7
REMARK    5  A    between atoms: S_7  and  C_8
REMARK                            x       y       z     vdW  Elec       q    Type
REMARK                         _______ _______ _______ _____ _____    ______ ____
ROOT
ATOM      1  C   UNL     1       6.230  -5.507  22.744  0.00  0.00    -0.033 A 
ATOM      2  C   UNL     1       5.172  -6.246  23.271  0.00  0.00    +0.020 A 
ATOM      3  C   UNL     1       5.083  -6.431  24.655  0.00  0.00    +0.065 A 
ATOM      4  C   UNL     1       6.015  -5.877  25.547  0.00  0.00    +0.084 A 
ATOM      5  N   UNL     1       5.946  -6.145  26.932  0.00  0.00    -0.216 NA
ATOM      6  C   UNL     1       5.004  -6.914  27.374  0.00  0.00    +0.194 A 
ATOM      7  N   UNL     1       4.048  -7.452  26.569  0.00  0.00    -0.295 N 
ATOM      8  H   UNL     1       3.345  -8.063  26.948  0.00  0.00    +0.172 HD
ATOM      9  N   UNL     1       4.926  -7.227  28.689  0.00  0.00    -0.329 N 
ATOM     10  H   UNL     1       4.016  -7.434  29.075  0.00  0.00    +0.145 HD
ATOM     11  H   UNL     1       5.495  -6.626  29.276  0.00  0.00    +0.145 HD
ATOM     12  C   UNL     1       7.059  -5.084  25.030  0.00  0.00    -0.011 A 
ATOM     13  C   UNL     1       4.006  -7.265  25.214  0.00  0.00    +0.260 A 
ATOM     14  O   UNL     1       3.137  -7.772  24.514  0.00  0.00    -0.267 OA
ATOM     15  C   UNL     1       7.169  -4.954  23.626  0.00  0.00    +0.011 A 
ENDROOT
BRANCH   1  16
ATOM     16  C   UNL     1       6.410  -5.361  21.257  0.00  0.00    +0.113 C 
BRANCH  16  17
ATOM     17  N   UNL     1       5.769  -4.142  20.783  0.00  0.00    -0.326 NA
ATOM     18  H   UNL     1       5.283  -3.698  21.560  0.00  0.00    +0.119 HD
ATOM     19  H   UNL     1       6.482  -3.485  20.474  0.00  0.00    +0.119 HD
ENDBRANCH  16  17
ENDBRANCH   1  16
BRANCH  12  20
ATOM     20  C   UNL     1       8.104  -4.469  25.952  0.00  0.00    +0.111 C 
BRANCH  20  21
ATOM     21  S   UNL     1       7.770  -2.697  26.328  0.00  0.00    -0.120 S 
BRANCH  21  22
ATOM     22  C   UNL     1       8.812  -1.768  25.219  0.00  0.00    +0.008 A 
ATOM     23  C   UNL     1       9.162  -0.476  25.647  0.00  0.00    +0.015 A 
ATOM     24  C   UNL     1      10.021   0.329  24.896  0.00  0.00    +0.001 A 
ATOM     25  C   UNL     1      10.542  -0.148  23.699  0.00  0.00    +0.000 A 
ATOM     26  C   UNL     1      10.188  -1.419  23.248  0.00  0.00    +0.001 A 
ATOM     27  C   UNL     1       9.324  -2.226  24.003  0.00  0.00    +0.015 A 
ENDBRANCH  21  22
ENDBRANCH  20  21
ENDBRANCH  12  20
TORSDOF 5
ENDMDL
MODEL 2
REMARK VINA RESULT:      -6.9      1.504      3.995
REMARK  Name = 
REMARK  5 active torsions:
REMARK  status: ('A' for Active; 'I' for Inactive)
REMARK    1  A    between atoms: N_1  and  C_2
REMARK    2  A    between atoms: C_2  and  C_3
REMARK    3  A    between atoms: C_5  and  C_6
REMARK    4  A    between atoms: C_6  and  S_7
REMARK    5  A    between atoms: S_7  and  C_8
REMARK                            x       y       z     vdW  Elec       q    Type
REMARK                         _______ _______ _______ _____ _____    ______ ____
ROOT
ATOM      1  C   UNL     1       6.180  -5.770  27.313  0.00  0.00    -0.033 A 
ATOM      2  C   UNL     1       5.342  -6.369  26.374  0.00  0.00    +0.020 A 
ATOM      3  C   UNL     1       5.590  -6.182  25.010  0.00  0.00    +0.065 A 
ATOM      4  C   UNL     1       6.674  -5.422  24.542  0.00  0.00    +0.084 A 
ATOM      5  N   UNL     1       6.855  -5.184  23.162  0.00  0.00    -0.216 NA
ATOM      6  C   UNL     1       6.001  -5.678  22.325  0.00  0.00    +0.194 A 
ATOM      7  N   UNL     1       4.951  -6.454  22.709  0.00  0.00    -0.295 N 
ATOM      8  H   UNL     1       4.297  -6.802  22.029  0.00  0.00    +0.172 HD
ATOM      9  N   UNL     1       6.117  -5.440  20.997  0.00  0.00    -0.329 N 
ATOM     10  H   UNL     1       5.755  -6.133  20.357  0.00  0.00    +0.145 HD
ATOM     11  H   UNL     1       7.026  -5.073  20.736  0.00  0.00    +0.145 HD
ATOM     12  C   UNL     1       7.558  -4.853  25.481  0.00  0.00    -0.011 A 
ATOM     13  C   UNL     1       4.672  -6.757  24.014  0.00  0.00    +0.260 A 
ATOM     14  O   UNL     1       3.711  -7.451  24.329  0.00  0.00    -0.267 OA
ATOM     15  C   UNL     1       7.263  -5.004  26.856  0.00  0.00    +0.011 A 
ENDROOT
BRANCH   1  16
ATOM     16  C   UNL     1       5.896  -5.874  28.787  0.00  0.00    +0.113 C 
BRANCH  16  17
ATOM     17  N   UNL     1       6.452  -7.106  29.328  0.00  0.00    -0.326 NA
ATOM     18  H   UNL     1       7.430  -6.952  29.567  0.00  0.00    +0.119 HD
ATOM     19  H   UNL     1       5.975  -7.337  30.196  0.00  0.00    +0.119 HD
ENDBRANCH  16  17
ENDBRANCH   1  16
BRANCH  12  20
ATOM     20  C   UNL     1       8.744  -4.011  25.029  0.00  0.00    +0.111 C 
BRANCH  20  21
ATOM     21  S   UNL     1       8.619  -2.254  25.566  0.00  0.00    -0.120 S 
BRANCH  21  22
ATOM     22  C   UNL     1       9.144  -1.287  24.162  0.00  0.00    +0.008 A 
ATOM     23  C   UNL     1       8.989  -1.899  22.907  0.00  0.00    +0.015 A 
ATOM     24  C   UNL     1       9.308  -1.222  21.727  0.00  0.00    +0.001 A 
ATOM     25  C   UNL     1       9.791   0.080  21.788  0.00  0.00    +0.000 A 
ATOM     26  C   UNL     1       9.971   0.693  23.027  0.00  0.00    +0.001 A 
ATOM     27  C   UNL     1       9.651   0.013  24.211  0.00  0.00    +0.015 A 
ENDBRANCH  21  22
ENDBRANCH  20  21
ENDBRANCH  12  20
TORSDOF 5
ENDMDL
MODEL 3
REMARK VINA RESULT:      -6.8      2.155      3.118
REMARK  Name = 
REMARK  5 active torsions:
REMARK  status: ('A' for Active; 'I' for Inactive)
REMARK    1  A    between atoms: N_1  and  C_2
REMARK    2  A    between atoms: C_2  and  C_3
REMARK    3  A    between atoms: C_5  and  C_6
REMARK    4  A    between atoms: C_6  and  S_7
REMARK    5  A    between atoms: S_7  and  C_8
REMARK                            x       y       z     vdW  Elec       q    Type
REMARK                         _______ _______ _______ _____ _____    ______ ____
ROOT
ATOM      1  C   UNL     1       4.082  -5.960  23.858  0.00  0.00    -0.033 A 
ATOM      2  C   UNL     1       4.515  -6.306  25.137  0.00  0.00    +0.020 A 
ATOM      3  C   UNL     1       5.757  -5.848  25.590  0.00  0.00    +0.065 A 
ATOM      4  C   UNL     1       6.586  -5.028  24.808  0.00  0.00    +0.084 A 
ATOM      5  N   UNL     1       7.868  -4.646  25.259  0.00  0.00    -0.216 NA
ATOM      6  C   UNL     1       8.276  -5.065  26.413  0.00  0.00    +0.194 A 
ATOM      7  N   UNL     1       7.509  -5.830  27.237  0.00  0.00    -0.295 N 
ATOM      8  H   UNL     1       7.870  -6.154  28.118  0.00  0.00    +0.172 HD
ATOM      9  N   UNL     1       9.514  -4.753  26.866  0.00  0.00    -0.329 N 
ATOM     10  H   UNL     1       9.654  -4.698  27.864  0.00  0.00    +0.145 HD
ATOM     11  H   UNL     1       9.949  -3.999  26.346  0.00  0.00    +0.145 HD
ATOM     12  C   UNL     1       6.135  -4.630  23.533  0.00  0.00    -0.011 A 
ATOM     13  C   UNL     1       6.251  -6.263  26.914  0.00  0.00    +0.260 A 
ATOM     14  O   UNL     1       5.588  -6.961  27.673  0.00  0.00    -0.267 OA
ATOM     15  C   UNL     1       4.905  -5.146  23.067  0.00  0.00    +0.011 A 
ENDROOT
BRANCH   1  16
ATOM     16  C   UNL     1       2.795  -6.505  23.301  0.00  0.00    +0.113 C 
BRANCH  16  17
ATOM     17  N   UNL     1       2.687  -7.932  23.566  0.00  0.00    -0.326 NA
ATOM     18  H   UNL     1       3.485  -8.227  24.126  0.00  0.00    +0.119 HD
ATOM     19  H   UNL     1       1.858  -8.108  24.129  0.00  0.00    +0.119 HD
ENDBRANCH  16  17
ENDBRANCH   1  16
BRANCH  12  20
ATOM     20  C   UNL     1       6.998  -3.749  22.639  0.00  0.00    +0.111 C 
BRANCH  20  21
ATOM     21  S   UNL     1       6.570  -1.963  22.766  0.00  0.00    -0.120 S 
BRANCH  21  22
ATOM     22  C   UNL     1       8.121  -1.115  23.002  0.00  0.00    +0.008 A 
ATOM     23  C   UNL     1       8.614  -1.099  24.318  0.00  0.00    +0.015 A 
ATOM     24  C   UNL     1       9.848  -0.518  24.622  0.00  0.00    +0.001 A 
ATOM     25  C   UNL     1      10.605   0.061  23.611  0.00  0.00    +0.000 A 
ATOM     26  C   UNL     1      10.119   0.074  22.304  0.00  0.00    +0.001 A 
ATOM     27  C   UNL     1       8.881  -0.509  22.000  0.00  0.00    +0.015 A 
ENDBRANCH  21  22
ENDBRANCH  20  21
ENDBRANCH  12  20
TORSDOF 5
ENDMDL
MODEL 4
REMARK VINA RESULT:      -6.5      3.027      5.025
REMARK  Name = 
REMARK  5 active torsions:
REMARK  status: ('A' for Active; 'I' for Inactive)
REMARK    1  A    between atoms: N_1  and  C_2
REMARK    2  A    between atoms: C_2  and  C_3
REMARK    3  A    between atoms: C_5  and  C_6
REMARK    4  A    between atoms: C_6  and  S_7
REMARK    5  A    between atoms: S_7  and  C_8
REMARK                            x       y       z     vdW  Elec       q    Type
REMARK                         _______ _______ _______ _____ _____    ______ ____
ROOT
ATOM      1  C   UNL     1       4.835  -2.417  26.964  0.00  0.00    -0.033 A 
ATOM      2  C   UNL     1       5.317  -3.641  27.424  0.00  0.00    +0.020 A 
ATOM      3  C   UNL     1       6.583  -4.080  27.017  0.00  0.00    +0.065 A 
ATOM      4  C   UNL     1       7.405  -3.317  26.173  0.00  0.00    +0.084 A 
ATOM      5  N   UNL     1       8.644  -3.819  25.715  0.00  0.00    -0.216 NA
ATOM      6  C   UNL     1       9.016  -5.001  26.087  0.00  0.00    +0.194 A 
ATOM      7  N   UNL     1       8.284  -5.775  26.934  0.00  0.00    -0.295 N 
ATOM      8  H   UNL     1       8.598  -6.698  27.182  0.00  0.00    +0.172 HD
ATOM      9  N   UNL     1      10.178  -5.533  25.640  0.00  0.00    -0.329 N 
ATOM     10  H   UNL     1      10.651  -6.203  26.229  0.00  0.00    +0.145 HD
ATOM     11  H   UNL     1      10.794  -4.847  25.218  0.00  0.00    +0.145 HD
ATOM     12  C   UNL     1       6.949  -2.054  25.743  0.00  0.00    -0.011 A 
ATOM     13  C   UNL     1       7.072  -5.401  27.445  0.00  0.00    +0.260 A 
ATOM     14  O   UNL     1       6.431  -6.126  28.198  0.00  0.00    -0.267 OA
ATOM     15  C   UNL     1       5.647  -1.651  26.115  0.00  0.00    +0.011 A 
ENDROOT
BRANCH   1  16
ATOM     16  C   UNL     1       3.445  -1.952  27.306  0.00  0.00    +0.113 C 
BRANCH  16  17
ATOM     17  N   UNL     1       2.508  -2.333  26.259  0.00  0.00    -0.326 NA
ATOM     18  H   UNL     1       3.019  -2.466  25.388  0.00  0.00    +0.119 HD
ATOM     19  H   UNL     1       2.092  -3.232  26.490  0.00  0.00    +0.119 HD
ENDBRANCH  16  17
ENDBRANCH   1  16
BRANCH  12  20
ATOM     20  C   UNL     1       7.796  -1.191  24.817  0.00  0.00    +0.111 C 
BRANCH  20  21
ATOM     21  S   UNL     1       7.212  -1.228  23.071  0.00  0.00    -0.120 S 
BRANCH  21  22
ATOM     22  C   UNL     1       6.750  -2.922  22.758  0.00  0.00    +0.008 A 
ATOM     23  C   UNL     1       5.381  -3.213  22.873  0.00  0.00    +0.015 A 
ATOM     24  C   UNL     1       4.885  -4.490  22.594  0.00  0.00    +0.001 A 
ATOM     25  C   UNL     1       5.758  -5.496  22.199  0.00  0.00    +0.000 A 
ATOM     26  C   UNL     1       7.123  -5.230  22.102  0.00  0.00    +0.001 A 
ATOM     27  C   UNL     1       7.619  -3.949  22.382  0.00  0.00    +0.015 A 
ENDBRANCH  21  22
ENDBRANCH  20  21
ENDBRANCH  12  20
TORSDOF 5
ENDMDL
MODEL 5
REMARK VINA RESULT:      -6.4      6.043      9.427
REMARK  Name = 
REMARK  5 active torsions:
REMARK  status: ('A' for Active; 'I' for Inactive)
REMARK    1  A    between atoms: N_1  and  C_2
REMARK    2  A    between atoms: C_2  and  C_3
REMARK    3  A    between atoms: C_5  and  C_6
REMARK    4  A    between atoms: C_6  and  S_7
REMARK    5  A    between atoms: S_7  and  C_8
REMARK                            x       y       z     vdW  Elec       q    Type
REMARK                         _______ _______ _______ _____ _____    ______ ____
ROOT
ATOM      1  C   UNL     1       7.245   2.471  24.542  0.00  0.00    -0.033 A 
ATOM      2  C   UNL     1       7.672   3.793  24.435  0.00  0.00    +0.020 A 
ATOM      3  C   UNL     1       8.981   4.063  24.020  0.00  0.00    +0.065 A 
ATOM      4  C   UNL     1       9.886   3.044  23.682  0.00  0.00    +0.084 A 
ATOM      5  N   UNL     1      11.224   3.341  23.342  0.00  0.00    -0.216 NA
ATOM      6  C   UNL     1      11.611   4.576  23.346  0.00  0.00    +0.194 A 
ATOM      7  N   UNL     1      10.775   5.613  23.627  0.00  0.00    -0.295 N 
ATOM      8  H   UNL     1      11.120   6.558  23.640  0.00  0.00    +0.172 HD
ATOM      9  N   UNL     1      12.895   4.900  23.064  0.00  0.00    -0.329 N 
ATOM     10  H   UNL     1      13.077   5.805  22.655  0.00  0.00    +0.145 HD
ATOM     11  H   UNL     1      13.411   4.141  22.633  0.00  0.00    +0.145 HD
ATOM     12  C   UNL     1       9.449   1.705  23.737  0.00  0.00    -0.011 A 
ATOM     13  C   UNL     1       9.460   5.454  23.967  0.00  0.00    +0.260 A 
ATOM     14  O   UNL     1       8.734   6.409  24.225  0.00  0.00    -0.267 OA
ATOM     15  C   UNL     1       8.143   1.446  24.213  0.00  0.00    +0.011 A 
ENDROOT
BRANCH   1  16
ATOM     16  C   UNL     1       5.876   2.137  25.070  0.00  0.00    +0.113 C 
BRANCH  16  17
ATOM     17  N   UNL     1       5.318   0.997  24.356  0.00  0.00    -0.326 NA
ATOM     18  H   UNL     1       5.196   0.224  25.008  0.00  0.00    +0.119 HD
ATOM     19  H   UNL     1       4.391   1.235  24.014  0.00  0.00    +0.119 HD
ENDBRANCH  16  17
ENDBRANCH   1  16
BRANCH  12  20
ATOM     20  C   UNL     1      10.393   0.560  23.392  0.00  0.00    +0.111 C 
BRANCH  20  21
ATOM     21  S   UNL     1       9.785  -0.469  21.991  0.00  0.00    -0.120 S 
BRANCH  21  22
ATOM     22  C   UNL     1       9.135  -1.954  22.734  0.00  0.00    +0.008 A 
ATOM     23  C   UNL     1       9.853  -2.450  23.835  0.00  0.00    +0.015 A 
ATOM     24  C   UNL     1       9.413  -3.572  24.541  0.00  0.00    +0.001 A 
ATOM     25  C   UNL     1       8.246  -4.218  24.150  0.00  0.00    +0.000 A 
ATOM     26  C   UNL     1       7.534  -3.752  23.045  0.00  0.00    +0.001 A 
ATOM     27  C   UNL     1       7.977  -2.626  22.338  0.00  0.00    +0.015 A 
ENDBRANCH  21  22
ENDBRANCH  20  21
ENDBRANCH  12  20
TORSDOF 5
ENDMDL
MODEL 6
REMARK VINA RESULT:      -6.4      3.649      6.543
REMARK  Name = 
REMARK  5 active torsions:
REMARK  status: ('A' for Active; 'I' for Inactive)
REMARK    1  A    between atoms: N_1  and  C_2
REMARK    2  A    between atoms: C_2  and  C_3
REMARK    3  A    between atoms: C_5  and  C_6
REMARK    4  A    between atoms: C_6  and  S_7
REMARK    5  A    between atoms: S_7  and  C_8
REMARK                            x       y       z     vdW  Elec       q    Type
REMARK                         _______ _______ _______ _____ _____    ______ ____
ROOT
ATOM      1  C   UNL     1       8.641  -3.660  25.697  0.00  0.00    -0.033 A 
ATOM      2  C   UNL     1       9.277  -2.720  24.888  0.00  0.00    +0.020 A 
ATOM      3  C   UNL     1       8.534  -1.671  24.336  0.00  0.00    +0.065 A 
ATOM      4  C   UNL     1       7.161  -1.513  24.583  0.00  0.00    +0.084 A 
ATOM      5  N   UNL     1       6.419  -0.491  23.950  0.00  0.00    -0.216 NA
ATOM      6  C   UNL     1       7.025   0.305  23.130  0.00  0.00    +0.194 A 
ATOM      7  N   UNL     1       8.360   0.230  22.875  0.00  0.00    -0.295 N 
ATOM      8  H   UNL     1       8.790   0.855  22.215  0.00  0.00    +0.172 HD
ATOM      9  N   UNL     1       6.343   1.272  22.473  0.00  0.00    -0.329 N 
ATOM     10  H   UNL     1       6.842   2.109  22.208  0.00  0.00    +0.145 HD
ATOM     11  H   UNL     1       5.424   1.448  22.866  0.00  0.00    +0.145 HD
ATOM     12  C   UNL     1       6.518  -2.428  25.441  0.00  0.00    -0.011 A 
ATOM     13  C   UNL     1       9.184  -0.712  23.428  0.00  0.00    +0.260 A 
ATOM     14  O   UNL     1      10.382  -0.761  23.170  0.00  0.00    -0.267 OA
ATOM     15  C   UNL     1       7.269  -3.514  25.946  0.00  0.00    +0.011 A 
ENDROOT
BRANCH   1  16
ATOM     16  C   UNL     1       9.386  -4.851  26.237  0.00  0.00    +0.113 C 
BRANCH  16  17
ATOM     17  N   UNL     1       9.862  -5.692  25.147  0.00  0.00    -0.326 NA
ATOM     18  H   UNL     1       9.309  -6.547  25.121  0.00  0.00    +0.119 HD
ATOM     19  H   UNL     1       9.702  -5.218  24.262  0.00  0.00    +0.119 HD
ENDBRANCH  16  17
ENDBRANCH   1  16
BRANCH  12  20
ATOM     20  C   UNL     1       5.028  -2.309  25.736  0.00  0.00    +0.111 C 
BRANCH  20  21
ATOM     21  S   UNL     1       4.029  -3.615  24.906  0.00  0.00    -0.120 S 
BRANCH  21  22
ATOM     22  C   UNL     1       5.026  -4.185  23.542  0.00  0.00    +0.008 A 
ATOM     23  C   UNL     1       5.482  -5.511  23.631  0.00  0.00    +0.015 A 
ATOM     24  C   UNL     1       6.222  -6.094  22.599  0.00  0.00    +0.001 A 
ATOM     25  C   UNL     1       6.519  -5.353  21.461  0.00  0.00    +0.000 A 
ATOM     26  C   UNL     1       6.093  -4.029  21.366  0.00  0.00    +0.001 A 
ATOM     27  C   UNL     1       5.351  -3.445  22.403  0.00  0.00    +0.015 A 
ENDBRANCH  21  22
ENDBRANCH  20  21
ENDBRANCH  12  20
TORSDOF 5
ENDMDL
MODEL 7
REMARK VINA RESULT:      -6.3      2.749      4.565
REMARK  Name = 
REMARK  5 active torsions:
REMARK  status: ('A' for Active; 'I' for Inactive)
REMARK    1  A    between atoms: N_1  and  C_2
REMARK    2  A    between atoms: C_2  and  C_3
REMARK    3  A    between atoms: C_5  and  C_6
REMARK    4  A    between atoms: C_6  and  S_7
REMARK    5  A    between atoms: S_7  and  C_8
REMARK                            x       y       z     vdW  Elec       q    Type
REMARK                         _______ _______ _______ _____ _____    ______ ____
ROOT
ATOM      1  C   UNL     1       7.591  -1.893  25.930  0.00  0.00    -0.033 A 
ATOM      2  C   UNL     1       6.876  -3.075  26.110  0.00  0.00    +0.020 A 
ATOM      3  C   UNL     1       6.696  -3.943  25.028  0.00  0.00    +0.065 A 
ATOM      4  C   UNL     1       7.231  -3.678  23.757  0.00  0.00    +0.084 A 
ATOM      5  N   UNL     1       6.968  -4.531  22.663  0.00  0.00    -0.216 NA
ATOM      6  C   UNL     1       6.219  -5.571  22.846  0.00  0.00    +0.194 A 
ATOM      7  N   UNL     1       5.701  -5.905  24.060  0.00  0.00    -0.295 N 
ATOM      8  H   UNL     1       5.106  -6.710  24.157  0.00  0.00    +0.172 HD
ATOM      9  N   UNL     1       5.911  -6.392  21.815  0.00  0.00    -0.329 N 
ATOM     10  H   UNL     1       5.724  -7.363  22.022  0.00  0.00    +0.145 HD
ATOM     11  H   UNL     1       6.500  -6.250  21.003  0.00  0.00    +0.145 HD
ATOM     12  C   UNL     1       8.000  -2.510  23.576  0.00  0.00    -0.011 A 
ATOM     13  C   UNL     1       5.886  -5.161  25.193  0.00  0.00    +0.260 A 
ATOM     14  O   UNL     1       5.397  -5.483  26.270  0.00  0.00    -0.267 OA
ATOM     15  C   UNL     1       8.125  -1.616  24.663  0.00  0.00    +0.011 A 
ENDROOT
BRANCH   1  16
ATOM     16  C   UNL     1       7.731  -0.892  27.046  0.00  0.00    +0.113 C 
BRANCH  16  17
ATOM     17  N   UNL     1       8.370   0.324  26.563  0.00  0.00    -0.326 NA
ATOM     18  H   UNL     1       8.243   0.388  25.554  0.00  0.00    +0.119 HD
ATOM     19  H   UNL     1       7.901   1.133  26.964  0.00  0.00    +0.119 HD
ENDBRANCH  16  17
ENDBRANCH   1  16
BRANCH  12  20
ATOM     20  C   UNL     1       8.595  -2.169  22.216  0.00  0.00    +0.111 C 
BRANCH  20  21
ATOM     21  S   UNL     1      10.234  -1.338  22.341  0.00  0.00    -0.120 S 
BRANCH  21  22
ATOM     22  C   UNL     1       9.876   0.381  22.653  0.00  0.00    +0.008 A 
ATOM     23  C   UNL     1       8.933   0.974  21.797  0.00  0.00    +0.015 A 
ATOM     24  C   UNL     1       8.524   2.297  21.975  0.00  0.00    +0.001 A 
ATOM     25  C   UNL     1       9.059   3.050  23.015  0.00  0.00    +0.000 A 
ATOM     26  C   UNL     1      10.012   2.483  23.859  0.00  0.00    +0.001 A 
ATOM     27  C   UNL     1      10.422   1.155  23.679  0.00  0.00    +0.015 A 
ENDBRANCH  21  22
ENDBRANCH  20  21
ENDBRANCH  12  20
TORSDOF 5
ENDMDL
MODEL 8
REMARK VINA RESULT:      -6.2      3.783      6.118
REMARK  Name = 
REMARK  5 active torsions:
REMARK  status: ('A' for Active; 'I' for Inactive)
REMARK    1  A    between atoms: N_1  and  C_2
REMARK    2  A    between atoms: C_2  and  C_3
REMARK    3  A    between atoms: C_5  and  C_6
REMARK    4  A    between atoms: C_6  and  S_7
REMARK    5  A    between atoms: S_7  and  C_8
REMARK                            x       y       z     vdW  Elec       q    Type
REMARK                         _______ _______ _______ _____ _____    ______ ____
ROOT
ATOM      1  C   UNL     1       6.680  -3.278  22.450  0.00  0.00    -0.033 A 
ATOM      2  C   UNL     1       7.979  -2.816  22.244  0.00  0.00    +0.020 A 
ATOM      3  C   UNL     1       8.438  -1.708  22.964  0.00  0.00    +0.065 A 
ATOM      4  C   UNL     1       7.640  -1.047  23.913  0.00  0.00    +0.084 A 
ATOM      5  N   UNL     1       8.100   0.116  24.568  0.00  0.00    -0.216 NA
ATOM      6  C   UNL     1       9.277   0.572  24.281  0.00  0.00    +0.194 A 
ATOM      7  N   UNL     1      10.114  -0.041  23.400  0.00  0.00    -0.295 N 
ATOM      8  H   UNL     1      11.013   0.357  23.188  0.00  0.00    +0.172 HD
ATOM      9  N   UNL     1       9.739   1.706  24.858  0.00  0.00    -0.329 N 
ATOM     10  H   UNL     1      10.738   1.806  24.975  0.00  0.00    +0.145 HD
ATOM     11  H   UNL     1       9.200   1.989  25.669  0.00  0.00    +0.145 HD
ATOM     12  C   UNL     1       6.343  -1.538  24.166  0.00  0.00    -0.011 A 
ATOM     13  C   UNL     1       9.785  -1.173  22.706  0.00  0.00    +0.260 A 
ATOM     14  O   UNL     1      10.557  -1.697  21.911  0.00  0.00    -0.267 OA
ATOM     15  C   UNL     1       5.874  -2.622  23.391  0.00  0.00    +0.011 A 
ENDROOT
BRANCH   1  16
ATOM     16  C   UNL     1       6.120  -4.411  21.631  0.00  0.00    +0.113 C 
BRANCH  16  17
ATOM     17  N   UNL     1       4.951  -4.982  22.284  0.00  0.00    -0.326 NA
ATOM     18  H   UNL     1       5.257  -5.587  23.044  0.00  0.00    +0.119 HD
ATOM     19  H   UNL     1       4.405  -4.237  22.710  0.00  0.00    +0.119 HD
ENDBRANCH  16  17
ENDBRANCH   1  16
BRANCH  12  20
ATOM     20  C   UNL     1       5.432  -0.853  25.177  0.00  0.00    +0.111 C 
BRANCH  20  21
ATOM     21  S   UNL     1       5.620  -1.527  26.881  0.00  0.00    -0.120 S 
BRANCH  21  22
ATOM     22  C   UNL     1       6.628  -2.988  26.708  0.00  0.00    +0.008 A 
ATOM     23  C   UNL     1       5.930  -4.202  26.593  0.00  0.00    +0.015 A 
ATOM     24  C   UNL     1       6.604  -5.410  26.394  0.00  0.00    +0.001 A 
ATOM     25  C   UNL     1       7.991  -5.419  26.311  0.00  0.00    +0.000 A 
ATOM     26  C   UNL     1       8.700  -4.227  26.446  0.00  0.00    +0.001 A 
ATOM     27  C   UNL     1       8.023  -3.015  26.647  0.00  0.00    +0.015 A 
ENDBRANCH  21  22
ENDBRANCH  20  21
ENDBRANCH  12  20
TORSDOF 5
ENDMDL
MODEL 9
REMARK VINA RESULT:      -6.2      3.483      4.582
REMARK  Name = 
REMARK  5 active torsions:
REMARK  status: ('A' for Active; 'I' for Inactive)
REMARK    1  A    between atoms: N_1  and  C_2
REMARK    2  A    between atoms: C_2  and  C_3
REMARK    3  A    between atoms: C_5  and  C_6
REMARK    4  A    between atoms: C_6  and  S_7
REMARK    5  A    between atoms: S_7  and  C_8
REMARK                            x       y       z     vdW  Elec       q    Type
REMARK                         _______ _______ _______ _____ _____    ______ ____
ROOT
ATOM      1  C   UNL     1       6.201  -3.572  23.131  0.00  0.00    -0.033 A 
ATOM      2  C   UNL     1       5.450  -2.835  24.045  0.00  0.00    +0.020 A 
ATOM      3  C   UNL     1       6.100  -1.978  24.939  0.00  0.00    +0.065 A 
ATOM      4  C   UNL     1       7.494  -1.810  24.938  0.00  0.00    +0.084 A 
ATOM      5  N   UNL     1       8.131  -0.999  25.903  0.00  0.00    -0.216 NA
ATOM      6  C   UNL     1       7.408  -0.405  26.796  0.00  0.00    +0.194 A 
ATOM      7  N   UNL     1       6.050  -0.494  26.830  0.00  0.00    -0.295 N 
ATOM      8  H   UNL     1       5.526  -0.034  27.554  0.00  0.00    +0.172 HD
ATOM      9  N   UNL     1       7.983   0.351  27.761  0.00  0.00    -0.329 N 
ATOM     10  H   UNL     1       7.448   1.115  28.148  0.00  0.00    +0.145 HD
ATOM     11  H   UNL     1       8.949   0.585  27.561  0.00  0.00    +0.145 HD
ATOM     12  C   UNL     1       8.260  -2.511  23.984  0.00  0.00    -0.011 A 
ATOM     13  C   UNL     1       5.320  -1.246  25.950  0.00  0.00    +0.260 A 
ATOM     14  O   UNL     1       4.097  -1.315  26.013  0.00  0.00    -0.267 OA
ATOM     15  C   UNL     1       7.595  -3.417  23.126  0.00  0.00    +0.011 A 
ENDROOT
BRANCH   1  16
ATOM     16  C   UNL     1       5.547  -4.571  22.215  0.00  0.00    +0.113 C 
BRANCH  16  17
ATOM     17  N   UNL     1       4.194  -4.865  22.663  0.00  0.00    -0.326 NA
ATOM     18  H   UNL     1       4.027  -4.392  23.549  0.00  0.00    +0.119 HD
ATOM     19  H   UNL     1       3.528  -4.478  21.999  0.00  0.00    +0.119 HD
ENDBRANCH  16  17
ENDBRANCH   1  16
BRANCH  12  20
ATOM     20  C   UNL     1       9.776  -2.375  23.946  0.00  0.00    +0.111 C 
BRANCH  20  21
ATOM     21  S   UNL     1      10.376  -1.471  22.458  0.00  0.00    -0.120 S 
BRANCH  21  22
ATOM     22  C   UNL     1       9.783   0.201  22.643  0.00  0.00    +0.008 A 
ATOM     23  C   UNL     1      10.221   0.881  23.791  0.00  0.00    +0.015 A 
ATOM     24  C   UNL     1       9.875   2.215  24.021  0.00  0.00    +0.001 A 
ATOM     25  C   UNL     1       9.077   2.887  23.102  0.00  0.00    +0.000 A 
ATOM     26  C   UNL     1       8.615   2.220  21.968  0.00  0.00    +0.001 A 
ATOM     27  C   UNL     1       8.964   0.881  21.740  0.00  0.00    +0.015 A 
ENDBRANCH  21  22
ENDBRANCH  20  21
ENDBRANCH  12  20
TORSDOF 5
ENDMDL
