MODEL 1
REMARK VINA RESULT:      -7.2      0.000      0.000
REMARK  Name = 
REMARK  3 active torsions:
REMARK  status: ('A' for Active; 'I' for Inactive)
REMARK    1  A    between atoms: C_1  and  C_2
REMARK    2  A    between atoms: C_8  and  C_10
REMARK    3  A    between atoms: C_14  and  C_19
REMARK                            x       y       z     vdW  Elec       q    Type
REMARK                         _______ _______ _______ _____ _____    ______ ____
ROOT
ATOM      1  C   UNL     1       8.218  -2.284  23.247  0.00  0.00    +0.047 A 
ATOM      2  N   UNL     1       9.224  -2.015  24.149  0.00  0.00    -0.354 N 
ATOM      3  H   UNL     1       9.482  -2.718  24.846  0.00  0.00    +0.166 HD
ATOM      4  C   UNL     1       9.650  -0.716  24.051  0.00  0.00    +0.047 A 
ATOM      5  C   UNL     1       8.988  -0.164  22.962  0.00  0.00    +0.001 A 
ATOM      6  C   UNL     1       9.229   1.185  22.637  0.00  0.00    +0.025 A 
ATOM      7  C   UNL     1      10.068   1.969  23.457  0.00  0.00    +0.061 A 
ATOM      8  C   UNL     1      10.717   1.359  24.545  0.00  0.00    +0.018 A 
ATOM      9  C   UNL     1      10.542   0.004  24.846  0.00  0.00    +0.027 A 
ATOM     10  C   UNL     1       8.131  -1.169  22.432  0.00  0.00    +0.036 A 
ENDROOT
BRANCH   1  14
ATOM     11  C   UNL     1       6.111  -6.037  20.741  0.00  0.00    +0.044 C 
ATOM     12  C   UNL     1       6.409  -5.386  22.055  0.00  0.00    -0.049 A 
ATOM     13  C   UNL     1       7.185  -4.229  22.109  0.00  0.00    +0.012 A 
ATOM     14  C   UNL     1       7.451  -3.558  23.326  0.00  0.00    -0.008 A 
ATOM     15  C   UNL     1       6.944  -4.053  24.585  0.00  0.00    -0.085 A 
ATOM     16  O   UNL     1       7.154  -3.467  25.713  0.00  0.00    -0.873 OA
ATOM     17  C   UNL     1       6.174  -5.247  24.468  0.00  0.00    +0.011 A 
ATOM     18 BR   UNL     1       5.383  -6.085  26.010  0.00  0.00    -0.051 Br
ATOM     19  C   UNL     1       5.911  -5.893  23.246  0.00  0.00    +0.018 A 
ENDBRANCH   1  14
BRANCH   7  20
ATOM     20  C   UNL     1      10.218   3.411  23.198  0.00  0.00    +0.266 C 
ATOM     21  N   UNL     1      11.416   3.943  23.073  0.00  0.00    -0.288 N 
ATOM     22  H   UNL     1      11.559   4.929  22.913  0.00  0.00    +0.301 HD
ATOM     23  H   UNL     1      12.238   3.352  23.127  0.00  0.00    +0.301 HD
ATOM     24  N   UNL     1       9.147   4.173  23.097  0.00  0.00    -0.250 N 
ATOM     25  H   UNL     1       9.195   5.163  22.910  0.00  0.00    +0.288 HD
ATOM     26  H   UNL     1       8.226   3.770  23.242  0.00  0.00    +0.288 HD
ENDBRANCH   7  20
TORSDOF 2
ENDMDL
MODEL 2
REMARK VINA RESULT:      -7.2      3.962      8.208
REMARK  Name = 
REMARK  3 active torsions:
REMARK  status: ('A' for Active; 'I' for Inactive)
REMARK    1  A    between atoms: C_1  and  C_2
REMARK    2  A    between atoms: C_8  and  C_10
REMARK    3  A    between atoms: C_14  and  C_19
REMARK                            x       y       z     vdW  Elec       q    Type
REMARK                         _______ _______ _______ _____ _____    ______ ____
ROOT
ATOM      1  C   UNL     1      10.237   1.741  23.626  0.00  0.00    +0.047 A 
ATOM      2  N   UNL     1       9.880   1.103  22.458  0.00  0.00    -0.354 N 
ATOM      3  H   UNL     1       9.780   1.643  21.595  0.00  0.00    +0.166 HD
ATOM      4  C   UNL     1       9.565  -0.212  22.681  0.00  0.00    +0.047 A 
ATOM      5  C   UNL     1       9.851  -0.466  24.017  0.00  0.00    +0.001 A 
ATOM      6  C   UNL     1       9.603  -1.753  24.529  0.00  0.00    +0.025 A 
ATOM      7  C   UNL     1       9.002  -2.733  23.711  0.00  0.00    +0.061 A 
ATOM      8  C   UNL     1       8.737  -2.426  22.364  0.00  0.00    +0.018 A 
ATOM      9  C   UNL     1       9.036  -1.172  21.819  0.00  0.00    +0.027 A 
ATOM     10  C   UNL     1      10.321   0.750  24.589  0.00  0.00    +0.036 A 
ENDROOT
BRANCH   1  14
ATOM     11  C   UNL     1      13.294   5.608  22.909  0.00  0.00    +0.044 C 
ATOM     12  C   UNL     1      11.943   5.103  23.312  0.00  0.00    -0.049 A 
ATOM     13  C   UNL     1      11.650   3.742  23.246  0.00  0.00    +0.012 A 
ATOM     14  C   UNL     1      10.401   3.221  23.660  0.00  0.00    -0.008 A 
ATOM     15  C   UNL     1       9.354   4.081  24.158  0.00  0.00    -0.085 A 
ATOM     16  O   UNL     1       8.208   3.647  24.556  0.00  0.00    -0.873 OA
ATOM     17  C   UNL     1       9.706   5.463  24.186  0.00  0.00    +0.011 A 
ATOM     18 BR   UNL     1       8.475   6.798  24.824  0.00  0.00    -0.051 Br
ATOM     19  C   UNL     1      10.958   5.960  23.779  0.00  0.00    +0.018 A 
ENDBRANCH   1  14
BRANCH   7  20
ATOM     20  C   UNL     1       8.620  -4.038  24.278  0.00  0.00    +0.266 C 
ATOM     21  N   UNL     1       9.073  -4.410  25.457  0.00  0.00    -0.288 N 
ATOM     22  H   UNL     1       8.846  -5.302  25.869  0.00  0.00    +0.301 HD
ATOM     23  H   UNL     1       9.665  -3.783  25.990  0.00  0.00    +0.301 HD
ATOM     24  N   UNL     1       7.825  -4.839  23.597  0.00  0.00    -0.250 N 
ATOM     25  H   UNL     1       7.523  -5.738  23.945  0.00  0.00    +0.288 HD
ATOM     26  H   UNL     1       7.515  -4.572  22.667  0.00  0.00    +0.288 HD
ENDBRANCH   7  20
TORSDOF 2
ENDMDL
MODEL 3
REMARK VINA RESULT:      -7.1      2.019      3.043
REMARK  Name = 
REMARK  3 active torsions:
REMARK  status: ('A' for Active; 'I' for Inactive)
REMARK    1  A    between atoms: C_1  and  C_2
REMARK    2  A    between atoms: C_8  and  C_10
REMARK    3  A    between atoms: C_14  and  C_19
REMARK                            x       y       z     vdW  Elec       q    Type
REMARK                         _______ _______ _______ _____ _____    ______ ____
ROOT
ATOM      1  C   UNL     1       8.806  -0.995  24.457  0.00  0.00    +0.047 A 
ATOM      2  N   UNL     1       8.046   0.002  25.027  0.00  0.00    -0.354 N 
ATOM      3  H   UNL     1       7.151  -0.229  25.465  0.00  0.00    +0.166 HD
ATOM      4  C   UNL     1       8.578   1.241  24.780  0.00  0.00    +0.047 A 
ATOM      5  C   UNL     1       9.792   1.029  24.139  0.00  0.00    +0.001 A 
ATOM      6  C   UNL     1      10.555   2.146  23.749  0.00  0.00    +0.025 A 
ATOM      7  C   UNL     1      10.047   3.448  23.940  0.00  0.00    +0.061 A 
ATOM      8  C   UNL     1       8.814   3.607  24.599  0.00  0.00    +0.018 A 
ATOM      9  C   UNL     1       8.071   2.512  25.052  0.00  0.00    +0.027 A 
ATOM     10  C   UNL     1       9.952  -0.377  23.987  0.00  0.00    +0.036 A 
ENDROOT
BRANCH   1  14
ATOM     11  C   UNL     1       7.902  -5.191  26.985  0.00  0.00    +0.044 C 
ATOM     12  C   UNL     1       7.884  -4.454  25.681  0.00  0.00    -0.049 A 
ATOM     13  C   UNL     1       8.262  -3.114  25.624  0.00  0.00    +0.012 A 
ATOM     14  C   UNL     1       8.301  -2.395  24.405  0.00  0.00    -0.008 A 
ATOM     15  C   UNL     1       7.932  -3.014  23.154  0.00  0.00    -0.085 A 
ATOM     16  O   UNL     1       7.964  -2.400  22.022  0.00  0.00    -0.873 OA
ATOM     17  C   UNL     1       7.538  -4.379  23.279  0.00  0.00    +0.011 A 
ATOM     18 BR   UNL     1       7.015  -5.416  21.744  0.00  0.00    -0.051 Br
ATOM     19  C   UNL     1       7.516  -5.079  24.500  0.00  0.00    +0.018 A 
ENDBRANCH   1  14
BRANCH   7  20
ATOM     20  C   UNL     1      10.779   4.614  23.416  0.00  0.00    +0.266 C 
ATOM     21  N   UNL     1      10.183   5.783  23.313  0.00  0.00    -0.288 N 
ATOM     22  H   UNL     1      10.648   6.599  22.944  0.00  0.00    +0.301 HD
ATOM     23  H   UNL     1       9.225   5.889  23.624  0.00  0.00    +0.301 HD
ATOM     24  N   UNL     1      12.036   4.482  23.042  0.00  0.00    -0.250 N 
ATOM     25  H   UNL     1      12.586   5.250  22.687  0.00  0.00    +0.288 HD
ATOM     26  H   UNL     1      12.480   3.568  23.076  0.00  0.00    +0.288 HD
ENDBRANCH   7  20
TORSDOF 2
ENDMDL
MODEL 4
REMARK VINA RESULT:      -7.0      1.970      2.576
REMARK  Name = 
REMARK  3 active torsions:
REMARK  status: ('A' for Active; 'I' for Inactive)
REMARK    1  A    between atoms: C_1  and  C_2
REMARK    2  A    between atoms: C_8  and  C_10
REMARK    3  A    between atoms: C_14  and  C_19
REMARK                            x       y       z     vdW  Elec       q    Type
REMARK                         _______ _______ _______ _____ _____    ______ ____
ROOT
ATOM      1  C   UNL     1       7.010  -3.495  24.123  0.00  0.00    +0.047 A 
ATOM      2  N   UNL     1       8.372  -3.492  23.915  0.00  0.00    -0.354 N 
ATOM      3  H   UNL     1       8.941  -4.266  24.264  0.00  0.00    +0.166 HD
ATOM      4  C   UNL     1       8.789  -2.312  23.357  0.00  0.00    +0.047 A 
ATOM      5  C   UNL     1       7.643  -1.579  23.077  0.00  0.00    +0.001 A 
ATOM      6  C   UNL     1       7.781  -0.299  22.506  0.00  0.00    +0.025 A 
ATOM      7  C   UNL     1       9.066   0.246  22.300  0.00  0.00    +0.061 A 
ATOM      8  C   UNL     1      10.194  -0.540  22.597  0.00  0.00    +0.018 A 
ATOM      9  C   UNL     1      10.077  -1.839  23.104  0.00  0.00    +0.027 A 
ATOM     10  C   UNL     1       6.529  -2.350  23.513  0.00  0.00    +0.036 A 
ENDROOT
BRANCH   1  14
ATOM     11  C   UNL     1       3.610  -7.134  24.229  0.00  0.00    +0.044 C 
ATOM     12  C   UNL     1       4.670  -6.354  24.942  0.00  0.00    -0.049 A 
ATOM     13  C   UNL     1       5.391  -5.367  24.271  0.00  0.00    +0.012 A 
ATOM     14  C   UNL     1       6.370  -4.578  24.921  0.00  0.00    -0.008 A 
ATOM     15  C   UNL     1       6.686  -4.770  26.317  0.00  0.00    -0.085 A 
ATOM     16  O   UNL     1       7.562  -4.066  26.949  0.00  0.00    -0.873 OA
ATOM     17  C   UNL     1       5.930  -5.804  26.944  0.00  0.00    +0.011 A 
ATOM     18 BR   UNL     1       6.169  -6.233  28.805  0.00  0.00    -0.051 Br
ATOM     19  C   UNL     1       4.953  -6.571  26.282  0.00  0.00    +0.018 A 
ENDBRANCH   1  14
BRANCH   7  20
ATOM     20  C   UNL     1       9.214   1.633  21.827  0.00  0.00    +0.266 C 
ATOM     21  N   UNL     1      10.400   2.205  21.804  0.00  0.00    -0.288 N 
ATOM     22  H   UNL     1      10.538   3.158  21.503  0.00  0.00    +0.301 HD
ATOM     23  H   UNL     1      11.219   1.679  22.087  0.00  0.00    +0.301 HD
ATOM     24  N   UNL     1       8.153   2.306  21.430  0.00  0.00    -0.250 N 
ATOM     25  H   UNL     1       8.201   3.254  21.087  0.00  0.00    +0.288 HD
ATOM     26  H   UNL     1       7.232   1.881  21.494  0.00  0.00    +0.288 HD
ENDBRANCH   7  20
TORSDOF 2
ENDMDL
MODEL 5
REMARK VINA RESULT:      -6.9      1.733      2.198
REMARK  Name = 
REMARK  3 active torsions:
REMARK  status: ('A' for Active; 'I' for Inactive)
REMARK    1  A    between atoms: C_1  and  C_2
REMARK    2  A    between atoms: C_8  and  C_10
REMARK    3  A    between atoms: C_14  and  C_19
REMARK                            x       y       z     vdW  Elec       q    Type
REMARK                         _______ _______ _______ _____ _____    ______ ____
ROOT
ATOM      1  C   UNL     1       8.038  -0.974  23.302  0.00  0.00    +0.047 A 
ATOM      2  N   UNL     1       9.039  -0.225  23.879  0.00  0.00    -0.354 N 
ATOM      3  H   UNL     1       9.713  -0.674  24.504  0.00  0.00    +0.166 HD
ATOM      4  C   UNL     1       8.882   1.110  23.615  0.00  0.00    +0.047 A 
ATOM      5  C   UNL     1       7.816   1.216  22.730  0.00  0.00    +0.001 A 
ATOM      6  C   UNL     1       7.420   2.496  22.297  0.00  0.00    +0.025 A 
ATOM      7  C   UNL     1       8.051   3.643  22.821  0.00  0.00    +0.061 A 
ATOM      8  C   UNL     1       9.128   3.481  23.711  0.00  0.00    +0.018 A 
ATOM      9  C   UNL     1       9.579   2.216  24.103  0.00  0.00    +0.027 A 
ATOM     10  C   UNL     1       7.326  -0.100  22.498  0.00  0.00    +0.036 A 
ENDROOT
BRANCH   1  14
ATOM     11  C   UNL     1       7.039  -5.559  21.631  0.00  0.00    +0.044 C 
ATOM     12  C   UNL     1       7.365  -4.661  22.783  0.00  0.00    -0.049 A 
ATOM     13  C   UNL     1       7.611  -3.305  22.573  0.00  0.00    +0.012 A 
ATOM     14  C   UNL     1       7.879  -2.415  23.641  0.00  0.00    -0.008 A 
ATOM     15  C   UNL     1       7.930  -2.875  25.009  0.00  0.00    -0.085 A 
ATOM     16  O   UNL     1       8.160  -2.097  26.011  0.00  0.00    -0.873 OA
ATOM     17  C   UNL     1       7.689  -4.273  25.159  0.00  0.00    +0.011 A 
ATOM     18 BR   UNL     1       7.693  -5.111  26.891  0.00  0.00    -0.051 Br
ATOM     19  C   UNL     1       7.413  -5.139  24.084  0.00  0.00    +0.018 A 
ENDBRANCH   1  14
BRANCH   7  20
ATOM     20  C   UNL     1       7.554   4.986  22.473  0.00  0.00    +0.266 C 
ATOM     21  N   UNL     1       8.364   6.023  22.501  0.00  0.00    -0.288 N 
ATOM     22  H   UNL     1       8.056   6.959  22.286  0.00  0.00    +0.301 HD
ATOM     23  H   UNL     1       9.341   5.893  22.736  0.00  0.00    +0.301 HD
ATOM     24  N   UNL     1       6.290   5.148  22.138  0.00  0.00    -0.250 N 
ATOM     25  H   UNL     1       5.902   6.044  21.880  0.00  0.00    +0.288 HD
ATOM     26  H   UNL     1       5.655   4.356  22.164  0.00  0.00    +0.288 HD
ENDBRANCH   7  20
TORSDOF 2
ENDMDL
MODEL 6
REMARK VINA RESULT:      -6.7      1.587      2.381
REMARK  Name = 
REMARK  3 active torsions:
REMARK  status: ('A' for Active; 'I' for Inactive)
REMARK    1  A    between atoms: C_1  and  C_2
REMARK    2  A    between atoms: C_8  and  C_10
REMARK    3  A    between atoms: C_14  and  C_19
REMARK                            x       y       z     vdW  Elec       q    Type
REMARK                         _______ _______ _______ _____ _____    ______ ____
ROOT
ATOM      1  C   UNL     1       8.896  -0.730  24.541  0.00  0.00    +0.047 A 
ATOM      2  N   UNL     1       8.169   0.267  25.156  0.00  0.00    -0.354 N 
ATOM      3  H   UNL     1       7.311   0.032  25.659  0.00  0.00    +0.166 HD
ATOM      4  C   UNL     1       8.672   1.507  24.862  0.00  0.00    +0.047 A 
ATOM      5  C   UNL     1       9.839   1.300  24.138  0.00  0.00    +0.001 A 
ATOM      6  C   UNL     1      10.563   2.419  23.686  0.00  0.00    +0.025 A 
ATOM      7  C   UNL     1      10.060   3.719  23.903  0.00  0.00    +0.061 A 
ATOM      8  C   UNL     1       8.875   3.874  24.647  0.00  0.00    +0.018 A 
ATOM      9  C   UNL     1       8.176   2.776  25.161  0.00  0.00    +0.027 A 
ATOM     10  C   UNL     1      10.000  -0.106  23.985  0.00  0.00    +0.036 A 
ENDROOT
BRANCH   1  14
ATOM     11  C   UNL     1       7.073  -4.490  21.830  0.00  0.00    +0.044 C 
ATOM     12  C   UNL     1       7.486  -3.962  23.168  0.00  0.00    -0.049 A 
ATOM     13  C   UNL     1       8.038  -2.686  23.283  0.00  0.00    +0.012 A 
ATOM     14  C   UNL     1       8.400  -2.134  24.535  0.00  0.00    -0.008 A 
ATOM     15  C   UNL     1       8.232  -2.876  25.762  0.00  0.00    -0.085 A 
ATOM     16  O   UNL     1       8.538  -2.407  26.923  0.00  0.00    -0.873 OA
ATOM     17  C   UNL     1       7.681  -4.179  25.579  0.00  0.00    +0.011 A 
ATOM     18 BR   UNL     1       7.354  -5.348  27.073  0.00  0.00    -0.051 Br
ATOM     19  C   UNL     1       7.317  -4.706  24.326  0.00  0.00    +0.018 A 
ENDBRANCH   1  14
BRANCH   7  20
ATOM     20  C   UNL     1      10.743   4.885  23.319  0.00  0.00    +0.266 C 
ATOM     21  N   UNL     1      10.112   6.035  23.198  0.00  0.00    -0.288 N 
ATOM     22  H   UNL     1      10.542   6.850  22.788  0.00  0.00    +0.301 HD
ATOM     23  H   UNL     1       9.161   6.125  23.535  0.00  0.00    +0.301 HD
ATOM     24  N   UNL     1      11.991   4.775  22.910  0.00  0.00    -0.250 N 
ATOM     25  H   UNL     1      12.509   5.546  22.514  0.00  0.00    +0.288 HD
ATOM     26  H   UNL     1      12.461   3.875  22.959  0.00  0.00    +0.288 HD
ENDBRANCH   7  20
TORSDOF 2
ENDMDL
MODEL 7
REMARK VINA RESULT:      -6.6      1.905      2.772
REMARK  Name = 
REMARK  3 active torsions:
REMARK  status: ('A' for Active; 'I' for Inactive)
REMARK    1  A    between atoms: C_1  and  C_2
REMARK    2  A    between atoms: C_8  and  C_10
REMARK    3  A    between atoms: C_14  and  C_19
REMARK                            x       y       z     vdW  Elec       q    Type
REMARK                         _______ _______ _______ _____ _____    ______ ____
ROOT
ATOM      1  C   UNL     1       7.736  -1.282  23.773  0.00  0.00    +0.047 A 
ATOM      2  N   UNL     1       8.481  -0.957  22.660  0.00  0.00    -0.354 N 
ATOM      3  H   UNL     1       8.711  -1.680  21.975  0.00  0.00    +0.166 HD
ATOM      4  C   UNL     1       8.936   0.334  22.722  0.00  0.00    +0.047 A 
ATOM      5  C   UNL     1       8.360   0.903  23.851  0.00  0.00    +0.001 A 
ATOM      6  C   UNL     1       8.673   2.238  24.170  0.00  0.00    +0.025 A 
ATOM      7  C   UNL     1       9.615   2.946  23.395  0.00  0.00    +0.061 A 
ATOM      8  C   UNL     1      10.165   2.325  22.259  0.00  0.00    +0.018 A 
ATOM      9  C   UNL     1       9.818   1.022  21.888  0.00  0.00    +0.027 A 
ATOM     10  C   UNL     1       7.568  -0.101  24.476  0.00  0.00    +0.036 A 
ENDROOT
BRANCH   1  14
ATOM     11  C   UNL     1       7.515  -5.023  27.054  0.00  0.00    +0.044 C 
ATOM     12  C   UNL     1       7.254  -4.521  25.668  0.00  0.00    -0.049 A 
ATOM     13  C   UNL     1       7.522  -3.194  25.337  0.00  0.00    +0.012 A 
ATOM     14  C   UNL     1       7.332  -2.693  24.027  0.00  0.00    -0.008 A 
ATOM     15  C   UNL     1       6.830  -3.533  22.965  0.00  0.00    -0.085 A 
ATOM     16  O   UNL     1       6.653  -3.120  21.757  0.00  0.00    -0.873 OA
ATOM     17  C   UNL     1       6.558  -4.873  23.368  0.00  0.00    +0.011 A 
ATOM     18 BR   UNL     1       5.894  -6.180  22.121  0.00  0.00    -0.051 Br
ATOM     19  C   UNL     1       6.764  -5.355  24.674  0.00  0.00    +0.018 A 
ENDBRANCH   1  14
BRANCH   7  20
ATOM     20  C   UNL     1      10.044   4.296  23.800  0.00  0.00    +0.266 C 
ATOM     21  N   UNL     1       9.288   5.023  24.595  0.00  0.00    -0.288 N 
ATOM     22  H   UNL     1       9.541   5.957  24.881  0.00  0.00    +0.301 HD
ATOM     23  H   UNL     1       8.419   4.643  24.952  0.00  0.00    +0.301 HD
ATOM     24  N   UNL     1      11.189   4.778  23.360  0.00  0.00    -0.250 N 
ATOM     25  H   UNL     1      11.534   5.691  23.617  0.00  0.00    +0.288 HD
ATOM     26  H   UNL     1      11.748   4.235  22.708  0.00  0.00    +0.288 HD
ENDBRANCH   7  20
TORSDOF 2
ENDMDL
MODEL 8
REMARK VINA RESULT:      -6.4      3.966      7.784
REMARK  Name = 
REMARK  3 active torsions:
REMARK  status: ('A' for Active; 'I' for Inactive)
REMARK    1  A    between atoms: C_1  and  C_2
REMARK    2  A    between atoms: C_8  and  C_10
REMARK    3  A    between atoms: C_14  and  C_19
REMARK                            x       y       z     vdW  Elec       q    Type
REMARK                         _______ _______ _______ _____ _____    ______ ____
ROOT
ATOM      1  C   UNL     1       8.783   0.040  24.825  0.00  0.00    +0.047 A 
ATOM      2  N   UNL     1       9.100  -0.955  23.927  0.00  0.00    -0.354 N 
ATOM      3  H   UNL     1       9.488  -0.710  23.014  0.00  0.00    +0.166 HD
ATOM      4  C   UNL     1       8.693  -2.184  24.377  0.00  0.00    +0.047 A 
ATOM      5  C   UNL     1       8.211  -1.994  25.666  0.00  0.00    +0.001 A 
ATOM      6  C   UNL     1       7.706  -3.103  26.370  0.00  0.00    +0.025 A 
ATOM      7  C   UNL     1       7.623  -4.361  25.738  0.00  0.00    +0.061 A 
ATOM      8  C   UNL     1       8.129  -4.501  24.432  0.00  0.00    +0.018 A 
ATOM      9  C   UNL     1       8.695  -3.425  23.740  0.00  0.00    +0.027 A 
ATOM     10  C   UNL     1       8.320  -0.605  25.959  0.00  0.00    +0.036 A 
ENDROOT
BRANCH   1  14
ATOM     11  C   UNL     1       6.463   4.324  23.784  0.00  0.00    +0.044 C 
ATOM     12  C   UNL     1       7.747   3.566  23.923  0.00  0.00    -0.049 A 
ATOM     13  C   UNL     1       7.739   2.237  24.346  0.00  0.00    +0.012 A 
ATOM     14  C   UNL     1       8.927   1.474  24.447  0.00  0.00    -0.008 A 
ATOM     15  C   UNL     1      10.216   2.042  24.132  0.00  0.00    -0.085 A 
ATOM     16  O   UNL     1      11.319   1.378  24.200  0.00  0.00    -0.873 OA
ATOM     17  C   UNL     1      10.162   3.407  23.723  0.00  0.00    +0.011 A 
ATOM     18 BR   UNL     1      11.755   4.372  23.239  0.00  0.00    -0.051 Br
ATOM     19  C   UNL     1       8.969   4.146  23.618  0.00  0.00    +0.018 A 
ENDBRANCH   1  14
BRANCH   7  20
ATOM     20  C   UNL     1       6.975  -5.493  26.422  0.00  0.00    +0.266 C 
ATOM     21  N   UNL     1       5.812  -5.947  26.002  0.00  0.00    -0.288 N 
ATOM     22  H   UNL     1       5.331  -6.708  26.456  0.00  0.00    +0.301 HD
ATOM     23  H   UNL     1       5.375  -5.534  25.187  0.00  0.00    +0.301 HD
ATOM     24  N   UNL     1       7.560  -6.050  27.463  0.00  0.00    -0.250 N 
ATOM     25  H   UNL     1       7.164  -6.834  27.960  0.00  0.00    +0.288 HD
ATOM     26  H   UNL     1       8.433  -5.668  27.816  0.00  0.00    +0.288 HD
ENDBRANCH   7  20
TORSDOF 2
ENDMDL
MODEL 9
REMARK VINA RESULT:      -6.4      3.995      7.683
REMARK  Name = 
REMARK  3 active torsions:
REMARK  status: ('A' for Active; 'I' for Inactive)
REMARK    1  A    between atoms: C_1  and  C_2
REMARK    2  A    between atoms: C_8  and  C_10
REMARK    3  A    between atoms: C_14  and  C_19
REMARK                            x       y       z     vdW  Elec       q    Type
REMARK                         _______ _______ _______ _____ _____    ______ ____
ROOT
ATOM      1  C   UNL     1       8.854   0.563  23.901  0.00  0.00    +0.047 A 
ATOM      2  N   UNL     1       8.311  -0.271  22.948  0.00  0.00    -0.354 N 
ATOM      3  H   UNL     1       7.859   0.128  22.123  0.00  0.00    +0.166 HD
ATOM      4  C   UNL     1       8.347  -1.581  23.351  0.00  0.00    +0.047 A 
ATOM      5  C   UNL     1       9.052  -1.608  24.547  0.00  0.00    +0.001 A 
ATOM      6  C   UNL     1       9.228  -2.842  25.201  0.00  0.00    +0.025 A 
ATOM      7  C   UNL     1       8.628  -4.007  24.680  0.00  0.00    +0.061 A 
ATOM      8  C   UNL     1       7.928  -3.926  23.463  0.00  0.00    +0.018 A 
ATOM      9  C   UNL     1       7.797  -2.721  22.765  0.00  0.00    +0.027 A 
ATOM     10  C   UNL     1       9.411  -0.266  24.859  0.00  0.00    +0.036 A 
ENDROOT
BRANCH   1  14
ATOM     11  C   UNL     1       5.790   4.410  23.104  0.00  0.00    +0.044 C 
ATOM     12  C   UNL     1       7.179   3.913  23.364  0.00  0.00    -0.049 A 
ATOM     13  C   UNL     1       7.415   2.555  23.573  0.00  0.00    +0.012 A 
ATOM     14  C   UNL     1       8.717   2.041  23.778  0.00  0.00    -0.008 A 
ATOM     15  C   UNL     1       9.873   2.906  23.798  0.00  0.00    -0.085 A 
ATOM     16  O   UNL     1      11.077   2.479  23.971  0.00  0.00    -0.873 OA
ATOM     17  C   UNL     1       9.567   4.285  23.597  0.00  0.00    +0.011 A 
ATOM     18 BR   UNL     1      10.948   5.625  23.571  0.00  0.00    -0.051 Br
ATOM     19  C   UNL     1       8.265   4.775  23.384  0.00  0.00    +0.018 A 
ENDBRANCH   1  14
BRANCH   7  20
ATOM     20  C   UNL     1       8.698  -5.274  25.429  0.00  0.00    +0.266 C 
ATOM     21  N   UNL     1       9.793  -6.006  25.398  0.00  0.00    -0.288 N 
ATOM     22  H   UNL     1       9.871  -6.886  25.883  0.00  0.00    +0.301 HD
ATOM     23  H   UNL     1      10.601  -5.682  24.879  0.00  0.00    +0.301 HD
ATOM     24  N   UNL     1       7.657  -5.679  26.128  0.00  0.00    -0.250 N 
ATOM     25  H   UNL     1       7.657  -6.533  26.667  0.00  0.00    +0.288 HD
ATOM     26  H   UNL     1       6.797  -5.139  26.112  0.00  0.00    +0.288 HD
ENDBRANCH   7  20
TORSDOF 2
ENDMDL
