MODEL 1
REMARK VINA RESULT:      -7.7      0.000      0.000
REMARK  Name = 
REMARK  13 active torsions:
REMARK  status: ('A' for Active; 'I' for Inactive)
REMARK    1  A    between atoms: O_1  and  C_2
REMARK    2  A    between atoms: C_5  and  N_24
REMARK    3  A    between atoms: C_8  and  C_10
REMARK    4  A    between atoms: C_10  and  O_11
REMARK    5  A    between atoms: O_11  and  P_12
REMARK    6  A    between atoms: P_12  and  O_13
REMARK    7  A    between atoms: P_12  and  N_15
REMARK    8  A    between atoms: N_15  and  P_16
REMARK    9  A    between atoms: P_16  and  O_17
REMARK   10  A    between atoms: P_16  and  O_19
REMARK   11  A    between atoms: O_19  and  P_20
REMARK   12  A    between atoms: P_20  and  O_21
REMARK   13  A    between atoms: P_20  and  O_22
REMARK                            x       y       z     vdW  Elec       q    Type
REMARK                         _______ _______ _______ _____ _____    ______ ____
ROOT
ATOM      1  O   UNL     1       8.477   0.817  23.097  0.00  0.00    -0.293 OA
ENDROOT
BRANCH   1   2
ATOM      2  P   UNL     1       8.769   1.916  21.926  0.00  0.00    +0.415 P 
ATOM      3  O   UNL     1       7.714   2.970  21.946  0.00  0.00    -0.240 OA
BRANCH   2   4
ATOM      4  N   UNL     1      10.293   2.447  21.932  0.00  0.00    -0.125 NA
ATOM      5  H   UNL     1      10.942   1.691  21.758  0.00  0.00    +0.146 HD
BRANCH   4   6
ATOM      6  P   UNL     1      10.494   2.988  23.454  0.00  0.00    +0.423 P 
ATOM      7  O   UNL     1       9.442   3.683  24.245  0.00  0.00    -0.239 OA
BRANCH   6   8
ATOM      8  O   UNL     1      10.860   1.667  24.294  0.00  0.00    -0.312 OA
ATOM      9  H   UNL     1      10.906   1.925  25.239  0.00  0.00    +0.221 HD
ENDBRANCH   6   8
BRANCH   6  10
ATOM     10  O   UNL     1      11.914   3.705  23.492  0.00  0.00    -0.196 OA
BRANCH  10  11
ATOM     11  P   UNL     1      12.228   5.206  23.103  0.00  0.00    +0.480 P 
ATOM     12  O   UNL     1      13.064   5.490  21.912  0.00  0.00    -0.227 OA
BRANCH  11  13
ATOM     13  O   UNL     1      12.794   5.903  24.435  0.00  0.00    -0.302 OA
ATOM     14  H   UNL     1      12.214   6.661  24.665  0.00  0.00    +0.222 HD
ENDBRANCH  11  13
BRANCH  11  15
ATOM     15  O   UNL     1      10.769   5.854  23.072  0.00  0.00    -0.302 OA
ATOM     16  H   UNL     1      10.058   5.192  23.004  0.00  0.00    +0.222 HD
ENDBRANCH  11  15
ENDBRANCH  10  11
ENDBRANCH   6  10
ENDBRANCH   4   6
ENDBRANCH   2   4
BRANCH   2  17
ATOM     17  O   UNL     1       8.673   0.870  20.718  0.00  0.00    -0.312 OA
ATOM     18  H   UNL     1       8.266   1.293  19.934  0.00  0.00    +0.221 HD
ENDBRANCH   2  17
ENDBRANCH   1   2
BRANCH   1  19
ATOM     19  C   UNL     1       7.174   0.246  22.908  0.00  0.00    +0.205 C 
BRANCH  19  21
ATOM     20  C   UNL     1       6.938  -2.296  22.657  0.00  0.00    +0.150 C 
ATOM     21  C   UNL     1       6.877  -1.085  23.575  0.00  0.00    +0.175 C 
ATOM     22  O   UNL     1       7.946  -1.242  24.548  0.00  0.00    -0.348 OA
ATOM     23  C   UNL     1       8.656  -2.463  24.292  0.00  0.00    +0.226 C 
ATOM     24  C   UNL     1       8.358  -2.787  22.832  0.00  0.00    +0.088 C 
BRANCH  23  25
ATOM     25  N   UNL     1       8.228  -3.467  25.270  0.00  0.00    -0.274 N 
ATOM     26  C   UNL     1       8.987  -4.624  25.397  0.00  0.00    +0.331 A 
ATOM     27  O   UNL     1       9.991  -4.860  24.743  0.00  0.00    -0.246 OA
ATOM     28  N   UNL     1       8.550  -5.525  26.340  0.00  0.00    -0.275 N 
ATOM     29  H   UNL     1       9.085  -6.375  26.432  0.00  0.00    +0.173 HD
ATOM     30  C   UNL     1       7.533  -5.334  27.220  0.00  0.00    +0.254 A 
ATOM     31  O   UNL     1       7.218  -6.150  28.076  0.00  0.00    -0.268 OA
ATOM     32  C   UNL     1       6.827  -4.054  27.107  0.00  0.00    +0.088 A 
ATOM     33  C   UNL     1       7.207  -3.191  26.168  0.00  0.00    +0.098 A 
ENDBRANCH  23  25
BRANCH  20  34
ATOM     34  O   UNL     1       6.023  -3.307  23.092  0.00  0.00    -0.389 OA
ATOM     35  H   UNL     1       5.135  -2.913  23.170  0.00  0.00    +0.210 HD
ENDBRANCH  20  34
ENDBRANCH  19  21
ENDBRANCH   1  19
TORSDOF 13
ENDMDL
MODEL 2
REMARK VINA RESULT:      -7.3      3.589      8.638
REMARK  Name = 
REMARK  13 active torsions:
REMARK  status: ('A' for Active; 'I' for Inactive)
REMARK    1  A    between atoms: O_1  and  C_2
REMARK    2  A    between atoms: C_5  and  N_24
REMARK    3  A    between atoms: C_8  and  C_10
REMARK    4  A    between atoms: C_10  and  O_11
REMARK    5  A    between atoms: O_11  and  P_12
REMARK    6  A    between atoms: P_12  and  O_13
REMARK    7  A    between atoms: P_12  and  N_15
REMARK    8  A    between atoms: N_15  and  P_16
REMARK    9  A    between atoms: P_16  and  O_17
REMARK   10  A    between atoms: P_16  and  O_19
REMARK   11  A    between atoms: O_19  and  P_20
REMARK   12  A    between atoms: P_20  and  O_21
REMARK   13  A    between atoms: P_20  and  O_22
REMARK                            x       y       z     vdW  Elec       q    Type
REMARK                         _______ _______ _______ _____ _____    ______ ____
ROOT
ATOM      1  O   UNL     1      10.213  -2.344  23.976  0.00  0.00    -0.293 OA
ENDROOT
BRANCH   1   2
ATOM      2  P   UNL     1       9.117  -3.468  24.419  0.00  0.00    +0.415 P 
ATOM      3  O   UNL     1       9.769  -4.808  24.500  0.00  0.00    -0.240 OA
BRANCH   2   4
ATOM      4  N   UNL     1       8.255  -3.028  25.711  0.00  0.00    -0.125 NA
ATOM      5  H   UNL     1       8.638  -3.429  26.556  0.00  0.00    +0.146 HD
BRANCH   4   6
ATOM      6  P   UNL     1       6.791  -3.680  25.423  0.00  0.00    +0.423 P 
ATOM      7  O   UNL     1       5.769  -3.086  24.518  0.00  0.00    -0.239 OA
BRANCH   6   8
ATOM      8  O   UNL     1       7.122  -5.127  24.804  0.00  0.00    -0.312 OA
ATOM      9  H   UNL     1       7.640  -5.620  25.476  0.00  0.00    +0.221 HD
ENDBRANCH   6   8
BRANCH   6  10
ATOM     10  O   UNL     1       6.218  -4.141  26.834  0.00  0.00    -0.196 OA
BRANCH  10  11
ATOM     11  P   UNL     1       6.404  -5.557  27.514  0.00  0.00    +0.480 P 
ATOM     12  O   UNL     1       5.626  -6.714  27.010  0.00  0.00    -0.227 OA
BRANCH  11  13
ATOM     13  O   UNL     1       6.209  -5.323  29.092  0.00  0.00    -0.302 OA
ATOM     14  H   UNL     1       6.899  -4.699  29.405  0.00  0.00    +0.222 HD
ENDBRANCH  11  13
BRANCH  11  15
ATOM     15  O   UNL     1       7.989  -5.741  27.475  0.00  0.00    -0.302 OA
ATOM     16  H   UNL     1       8.470  -5.002  27.888  0.00  0.00    +0.222 HD
ENDBRANCH  11  15
ENDBRANCH  10  11
ENDBRANCH   6  10
ENDBRANCH   4   6
ENDBRANCH   2   4
BRANCH   2  17
ATOM     17  O   UNL     1       8.160  -3.244  23.156  0.00  0.00    -0.312 OA
ATOM     18  H   UNL     1       7.676  -4.070  22.945  0.00  0.00    +0.221 HD
ENDBRANCH   2  17
ENDBRANCH   1   2
BRANCH   1  19
ATOM     19  C   UNL     1       9.887  -1.840  22.673  0.00  0.00    +0.205 C 
BRANCH  19  21
ATOM     20  C   UNL     1       8.612   0.277  21.986  0.00  0.00    +0.150 C 
ATOM     21  C   UNL     1       9.919  -0.337  22.463  0.00  0.00    +0.175 C 
ATOM     22  O   UNL     1      10.176   0.202  23.789  0.00  0.00    -0.348 OA
ATOM     23  C   UNL     1       9.121   1.103  24.156  0.00  0.00    +0.226 C 
ATOM     24  C   UNL     1       7.943   0.703  23.274  0.00  0.00    +0.088 C 
BRANCH  23  25
ATOM     25  N   UNL     1       9.602   2.479  23.996  0.00  0.00    -0.274 N 
ATOM     26  C   UNL     1       8.852   3.504  24.557  0.00  0.00    +0.331 A 
ATOM     27  O   UNL     1       7.814   3.335  25.178  0.00  0.00    -0.246 OA
ATOM     28  N   UNL     1       9.357   4.774  24.391  0.00  0.00    -0.275 N 
ATOM     29  H   UNL     1       8.814   5.528  24.782  0.00  0.00    +0.173 HD
ATOM     30  C   UNL     1      10.557   5.092  23.841  0.00  0.00    +0.254 A 
ATOM     31  O   UNL     1      10.982   6.237  23.763  0.00  0.00    -0.268 OA
ATOM     32  C   UNL     1      11.352   3.961  23.351  0.00  0.00    +0.088 A 
ATOM     33  C   UNL     1      10.857   2.732  23.463  0.00  0.00    +0.098 A 
ENDBRANCH  23  25
BRANCH  20  34
ATOM     34  O   UNL     1       8.861   1.428  21.172  0.00  0.00    -0.389 OA
ATOM     35  H   UNL     1       8.753   2.227  21.719  0.00  0.00    +0.210 HD
ENDBRANCH  20  34
ENDBRANCH  19  21
ENDBRANCH   1  19
TORSDOF 13
ENDMDL
MODEL 3
REMARK VINA RESULT:      -7.3      3.597      8.555
REMARK  Name = 
REMARK  13 active torsions:
REMARK  status: ('A' for Active; 'I' for Inactive)
REMARK    1  A    between atoms: O_1  and  C_2
REMARK    2  A    between atoms: C_5  and  N_24
REMARK    3  A    between atoms: C_8  and  C_10
REMARK    4  A    between atoms: C_10  and  O_11
REMARK    5  A    between atoms: O_11  and  P_12
REMARK    6  A    between atoms: P_12  and  O_13
REMARK    7  A    between atoms: P_12  and  N_15
REMARK    8  A    between atoms: N_15  and  P_16
REMARK    9  A    between atoms: P_16  and  O_17
REMARK   10  A    between atoms: P_16  and  O_19
REMARK   11  A    between atoms: O_19  and  P_20
REMARK   12  A    between atoms: P_20  and  O_21
REMARK   13  A    between atoms: P_20  and  O_22
REMARK                            x       y       z     vdW  Elec       q    Type
REMARK                         _______ _______ _______ _____ _____    ______ ____
ROOT
ATOM      1  O   UNL     1       9.944  -2.377  24.089  0.00  0.00    -0.293 OA
ENDROOT
BRANCH   1   2
ATOM      2  P   UNL     1       8.631  -3.156  24.665  0.00  0.00    +0.415 P 
ATOM      3  O   UNL     1       8.741  -3.308  26.145  0.00  0.00    -0.240 OA
BRANCH   2   4
ATOM      4  N   UNL     1       7.245  -2.530  24.125  0.00  0.00    -0.125 NA
ATOM      5  H   UNL     1       6.794  -1.975  24.841  0.00  0.00    +0.146 HD
BRANCH   4   6
ATOM      6  P   UNL     1       6.337  -3.845  23.815  0.00  0.00    +0.423 P 
ATOM      7  O   UNL     1       6.310  -5.067  24.665  0.00  0.00    -0.239 OA
BRANCH   6   8
ATOM      8  O   UNL     1       4.828  -3.288  23.818  0.00  0.00    -0.312 OA
ATOM      9  H   UNL     1       4.281  -3.930  24.321  0.00  0.00    +0.221 HD
ENDBRANCH   6   8
BRANCH   6  10
ATOM     10  O   UNL     1       6.488  -4.140  22.259  0.00  0.00    -0.196 OA
BRANCH  10  11
ATOM     11  P   UNL     1       6.104  -5.478  21.507  0.00  0.00    +0.480 P 
ATOM     12  O   UNL     1       6.017  -5.482  20.027  0.00  0.00    -0.227 OA
BRANCH  11  13
ATOM     13  O   UNL     1       4.759  -6.011  22.205  0.00  0.00    -0.302 OA
ATOM     14  H   UNL     1       4.025  -5.398  21.985  0.00  0.00    +0.222 HD
ENDBRANCH  11  13
BRANCH  11  15
ATOM     15  O   UNL     1       7.146  -6.518  22.125  0.00  0.00    -0.302 OA
ATOM     16  H   UNL     1       8.024  -6.472  21.707  0.00  0.00    +0.222 HD
ENDBRANCH  11  15
ENDBRANCH  10  11
ENDBRANCH   6  10
ENDBRANCH   4   6
ENDBRANCH   2   4
BRANCH   2  17
ATOM     17  O   UNL     1       8.870  -4.491  23.816  0.00  0.00    -0.312 OA
ATOM     18  H   UNL     1       9.639  -4.986  24.169  0.00  0.00    +0.221 HD
ENDBRANCH   2  17
ENDBRANCH   1   2
BRANCH   1  19
ATOM     19  C   UNL     1       9.673  -1.888  22.768  0.00  0.00    +0.205 C 
BRANCH  19  21
ATOM     20  C   UNL     1       8.578   0.271  21.921  0.00  0.00    +0.150 C 
ATOM     21  C   UNL     1       9.806  -0.396  22.520  0.00  0.00    +0.175 C 
ATOM     22  O   UNL     1       9.985   0.170  23.847  0.00  0.00    -0.348 OA
ATOM     23  C   UNL     1       8.955   1.137  24.102  0.00  0.00    +0.226 C 
ATOM     24  C   UNL     1       7.832   0.772  23.137  0.00  0.00    +0.088 C 
BRANCH  23  25
ATOM     25  N   UNL     1       9.524   2.480  23.944  0.00  0.00    -0.274 N 
ATOM     26  C   UNL     1       8.790   3.561  24.413  0.00  0.00    +0.331 A 
ATOM     27  O   UNL     1       7.696   3.467  24.950  0.00  0.00    -0.246 OA
ATOM     28  N   UNL     1       9.376   4.796  24.253  0.00  0.00    -0.275 N 
ATOM     29  H   UNL     1       8.847   5.591  24.577  0.00  0.00    +0.173 HD
ATOM     30  C   UNL     1      10.632   5.032  23.795  0.00  0.00    +0.254 A 
ATOM     31  O   UNL     1      11.126   6.150  23.722  0.00  0.00    -0.268 OA
ATOM     32  C   UNL     1      11.401   3.846  23.405  0.00  0.00    +0.088 A 
ATOM     33  C   UNL     1      10.830   2.648  23.509  0.00  0.00    +0.098 A 
ENDBRANCH  23  25
BRANCH  20  34
ATOM     34  O   UNL     1       8.954   1.380  21.098  0.00  0.00    -0.389 OA
ATOM     35  H   UNL     1       8.556   1.264  20.216  0.00  0.00    +0.210 HD
ENDBRANCH  20  34
ENDBRANCH  19  21
ENDBRANCH   1  19
TORSDOF 13
ENDMDL
MODEL 4
REMARK VINA RESULT:      -7.3      2.197      3.416
REMARK  Name = 
REMARK  13 active torsions:
REMARK  status: ('A' for Active; 'I' for Inactive)
REMARK    1  A    between atoms: O_1  and  C_2
REMARK    2  A    between atoms: C_5  and  N_24
REMARK    3  A    between atoms: C_8  and  C_10
REMARK    4  A    between atoms: C_10  and  O_11
REMARK    5  A    between atoms: O_11  and  P_12
REMARK    6  A    between atoms: P_12  and  O_13
REMARK    7  A    between atoms: P_12  and  N_15
REMARK    8  A    between atoms: N_15  and  P_16
REMARK    9  A    between atoms: P_16  and  O_17
REMARK   10  A    between atoms: P_16  and  O_19
REMARK   11  A    between atoms: O_19  and  P_20
REMARK   12  A    between atoms: P_20  and  O_21
REMARK   13  A    between atoms: P_20  and  O_22
REMARK                            x       y       z     vdW  Elec       q    Type
REMARK                         _______ _______ _______ _____ _____    ______ ____
ROOT
ATOM      1  O   UNL     1       9.174  -0.853  24.725  0.00  0.00    -0.293 OA
ENDROOT
BRANCH   1   2
ATOM      2  P   UNL     1       9.747   0.503  24.020  0.00  0.00    +0.415 P 
ATOM      3  O   UNL     1       9.945   0.269  22.560  0.00  0.00    -0.240 OA
BRANCH   2   4
ATOM      4  N   UNL     1       8.898   1.819  24.411  0.00  0.00    -0.125 NA
ATOM      5  H   UNL     1       7.969   1.783  24.013  0.00  0.00    +0.146 HD
BRANCH   4   6
ATOM      6  P   UNL     1       9.736   3.026  23.710  0.00  0.00    +0.423 P 
ATOM      7  O   UNL     1      11.218   3.047  23.565  0.00  0.00    -0.239 OA
BRANCH   6   8
ATOM      8  O   UNL     1       9.158   3.084  22.211  0.00  0.00    -0.312 OA
ATOM      9  H   UNL     1       9.692   2.465  21.668  0.00  0.00    +0.221 HD
ENDBRANCH   6   8
BRANCH   6  10
ATOM     10  O   UNL     1       9.120   4.383  24.265  0.00  0.00    -0.196 OA
BRANCH  10  11
ATOM     11  P   UNL     1       9.398   5.842  23.720  0.00  0.00    +0.480 P 
ATOM     12  O   UNL     1       9.333   6.993  24.653  0.00  0.00    -0.227 OA
BRANCH  11  13
ATOM     13  O   UNL     1       8.444   6.030  22.441  0.00  0.00    -0.302 OA
ATOM     14  H   UNL     1       7.509   6.001  22.739  0.00  0.00    +0.222 HD
ENDBRANCH  11  13
BRANCH  11  15
ATOM     15  O   UNL     1      10.797   5.658  22.973  0.00  0.00    -0.302 OA
ATOM     16  H   UNL     1      11.482   6.273  23.289  0.00  0.00    +0.222 HD
ENDBRANCH  11  15
ENDBRANCH  10  11
ENDBRANCH   6  10
ENDBRANCH   4   6
ENDBRANCH   2   4
BRANCH   2  17
ATOM     17  O   UNL     1      11.085   0.568  24.894  0.00  0.00    -0.312 OA
ATOM     18  H   UNL     1      10.996   0.010  25.695  0.00  0.00    +0.221 HD
ENDBRANCH   2  17
ENDBRANCH   1   2
BRANCH   1  19
ATOM     19  C   UNL     1       9.801  -2.003  24.139  0.00  0.00    +0.205 C 
BRANCH  19  21
ATOM     20  C   UNL     1       9.672  -4.416  24.998  0.00  0.00    +0.150 C 
ATOM     21  C   UNL     1       9.040  -3.316  24.160  0.00  0.00    +0.175 C 
ATOM     22  O   UNL     1       7.773  -2.983  24.792  0.00  0.00    -0.348 OA
ATOM     23  C   UNL     1       7.584  -3.802  25.956  0.00  0.00    +0.226 C 
ATOM     24  C   UNL     1       8.987  -4.263  26.338  0.00  0.00    +0.088 C 
BRANCH  23  25
ATOM     25  N   UNL     1       6.628  -4.865  25.631  0.00  0.00    -0.274 N 
ATOM     26  C   UNL     1       6.310  -5.785  26.621  0.00  0.00    +0.331 A 
ATOM     27  O   UNL     1       6.778  -5.767  27.750  0.00  0.00    -0.246 OA
ATOM     28  N   UNL     1       5.396  -6.751  26.268  0.00  0.00    -0.275 N 
ATOM     29  H   UNL     1       5.167  -7.434  26.974  0.00  0.00    +0.173 HD
ATOM     30  C   UNL     1       4.705  -6.811  25.101  0.00  0.00    +0.254 A 
ATOM     31  O   UNL     1       3.863  -7.665  24.856  0.00  0.00    -0.268 OA
ATOM     32  C   UNL     1       5.009  -5.757  24.127  0.00  0.00    +0.088 A 
ATOM     33  C   UNL     1       5.925  -4.843  24.435  0.00  0.00    +0.098 A 
ENDBRANCH  23  25
BRANCH  20  34
ATOM     34  O   UNL     1       9.373  -5.704  24.451  0.00  0.00    -0.389 OA
ATOM     35  H   UNL     1      10.169  -6.263  24.515  0.00  0.00    +0.210 HD
ENDBRANCH  20  34
ENDBRANCH  19  21
ENDBRANCH   1  19
TORSDOF 13
ENDMDL
MODEL 5
REMARK VINA RESULT:      -7.3      2.399      4.626
REMARK  Name = 
REMARK  13 active torsions:
REMARK  status: ('A' for Active; 'I' for Inactive)
REMARK    1  A    between atoms: O_1  and  C_2
REMARK    2  A    between atoms: C_5  and  N_24
REMARK    3  A    between atoms: C_8  and  C_10
REMARK    4  A    between atoms: C_10  and  O_11
REMARK    5  A    between atoms: O_11  and  P_12
REMARK    6  A    between atoms: P_12  and  O_13
REMARK    7  A    between atoms: P_12  and  N_15
REMARK    8  A    between atoms: N_15  and  P_16
REMARK    9  A    between atoms: P_16  and  O_17
REMARK   10  A    between atoms: P_16  and  O_19
REMARK   11  A    between atoms: O_19  and  P_20
REMARK   12  A    between atoms: P_20  and  O_21
REMARK   13  A    between atoms: P_20  and  O_22
REMARK                            x       y       z     vdW  Elec       q    Type
REMARK                         _______ _______ _______ _____ _____    ______ ____
ROOT
ATOM      1  O   UNL     1      10.220   1.506  23.998  0.00  0.00    -0.293 OA
ENDROOT
BRANCH   1   2
ATOM      2  P   UNL     1       9.795   3.040  23.638  0.00  0.00    +0.415 P 
ATOM      3  O   UNL     1      11.017   3.877  23.463  0.00  0.00    -0.240 OA
BRANCH   2   4
ATOM      4  N   UNL     1       8.709   3.126  22.447  0.00  0.00    -0.125 NA
ATOM      5  H   UNL     1       9.132   3.466  21.594  0.00  0.00    +0.146 HD
BRANCH   4   6
ATOM      6  P   UNL     1       7.641   4.226  22.993  0.00  0.00    +0.423 P 
ATOM      7  O   UNL     1       8.017   5.530  23.606  0.00  0.00    -0.239 OA
BRANCH   6   8
ATOM      8  O   UNL     1       6.767   4.599  21.696  0.00  0.00    -0.312 OA
ATOM      9  H   UNL     1       7.218   5.344  21.244  0.00  0.00    +0.221 HD
ENDBRANCH   6   8
BRANCH   6  10
ATOM     10  O   UNL     1       6.540   3.419  23.810  0.00  0.00    -0.196 OA
BRANCH  10  11
ATOM     11  P   UNL     1       5.358   2.558  23.208  0.00  0.00    +0.480 P 
ATOM     12  O   UNL     1       4.187   3.245  22.610  0.00  0.00    -0.227 OA
BRANCH  11  13
ATOM     13  O   UNL     1       4.940   1.511  24.353  0.00  0.00    -0.302 OA
ATOM     14  H   UNL     1       4.039   1.175  24.159  0.00  0.00    +0.222 HD
ENDBRANCH  11  13
BRANCH  11  15
ATOM     15  O   UNL     1       6.133   1.568  22.224  0.00  0.00    -0.302 OA
ATOM     16  H   UNL     1       5.642   1.384  21.403  0.00  0.00    +0.222 HD
ENDBRANCH  11  15
ENDBRANCH  10  11
ENDBRANCH   6  10
ENDBRANCH   4   6
ENDBRANCH   2   4
BRANCH   2  17
ATOM     17  O   UNL     1       8.980   3.287  24.993  0.00  0.00    -0.312 OA
ATOM     18  H   UNL     1       8.042   3.028  24.878  0.00  0.00    +0.221 HD
ENDBRANCH   2  17
ENDBRANCH   1   2
BRANCH   1  19
ATOM     19  C   UNL     1       9.041   0.722  24.233  0.00  0.00    +0.205 C 
BRANCH  19  21
ATOM     20  C   UNL     1       9.949  -1.291  22.927  0.00  0.00    +0.150 C 
ATOM     21  C   UNL     1       8.750  -0.426  23.283  0.00  0.00    +0.175 C 
ATOM     22  O   UNL     1       7.827  -1.273  24.022  0.00  0.00    -0.348 OA
ATOM     23  C   UNL     1       8.375  -2.594  24.142  0.00  0.00    +0.226 C 
ATOM     24  C   UNL     1       9.876  -2.413  23.940  0.00  0.00    +0.088 C 
BRANCH  23  25
ATOM     25  N   UNL     1       7.701  -3.471  23.179  0.00  0.00    -0.274 N 
ATOM     26  C   UNL     1       7.956  -4.834  23.243  0.00  0.00    +0.331 A 
ATOM     27  O   UNL     1       8.709  -5.353  24.053  0.00  0.00    -0.246 OA
ATOM     28  N   UNL     1       7.286  -5.612  22.327  0.00  0.00    -0.275 N 
ATOM     29  H   UNL     1       7.473  -6.602  22.355  0.00  0.00    +0.173 HD
ATOM     30  C   UNL     1       6.329  -5.185  21.463  0.00  0.00    +0.254 A 
ATOM     31  O   UNL     1       5.725  -5.930  20.702  0.00  0.00    -0.268 OA
ATOM     32  C   UNL     1       6.029  -3.750  21.504  0.00  0.00    +0.088 A 
ATOM     33  C   UNL     1       6.702  -2.977  22.352  0.00  0.00    +0.098 A 
ENDBRANCH  23  25
BRANCH  20  34
ATOM     34  O   UNL     1       9.813  -1.827  21.607  0.00  0.00    -0.389 OA
ATOM     35  H   UNL     1       9.817  -1.090  20.969  0.00  0.00    +0.210 HD
ENDBRANCH  20  34
ENDBRANCH  19  21
ENDBRANCH   1  19
TORSDOF 13
ENDMDL
MODEL 6
REMARK VINA RESULT:      -7.2      3.628      8.760
REMARK  Name = 
REMARK  13 active torsions:
REMARK  status: ('A' for Active; 'I' for Inactive)
REMARK    1  A    between atoms: O_1  and  C_2
REMARK    2  A    between atoms: C_5  and  N_24
REMARK    3  A    between atoms: C_8  and  C_10
REMARK    4  A    between atoms: C_10  and  O_11
REMARK    5  A    between atoms: O_11  and  P_12
REMARK    6  A    between atoms: P_12  and  O_13
REMARK    7  A    between atoms: P_12  and  N_15
REMARK    8  A    between atoms: N_15  and  P_16
REMARK    9  A    between atoms: P_16  and  O_17
REMARK   10  A    between atoms: P_16  and  O_19
REMARK   11  A    between atoms: O_19  and  P_20
REMARK   12  A    between atoms: P_20  and  O_21
REMARK   13  A    between atoms: P_20  and  O_22
REMARK                            x       y       z     vdW  Elec       q    Type
REMARK                         _______ _______ _______ _____ _____    ______ ____
ROOT
ATOM      1  O   UNL     1      10.084  -3.147  24.094  0.00  0.00    -0.293 OA
ENDROOT
BRANCH   1   2
ATOM      2  P   UNL     1       9.028  -4.064  24.935  0.00  0.00    +0.415 P 
ATOM      3  O   UNL     1       8.644  -3.367  26.197  0.00  0.00    -0.240 OA
BRANCH   2   4
ATOM      4  N   UNL     1       7.804  -4.600  24.029  0.00  0.00    -0.125 NA
ATOM      5  H   UNL     1       7.367  -3.841  23.524  0.00  0.00    +0.146 HD
BRANCH   4   6
ATOM      6  P   UNL     1       6.756  -5.188  25.127  0.00  0.00    +0.423 P 
ATOM      7  O   UNL     1       7.155  -5.860  26.394  0.00  0.00    -0.239 OA
BRANCH   6   8
ATOM      8  O   UNL     1       5.897  -3.905  25.575  0.00  0.00    -0.312 OA
ATOM      9  H   UNL     1       6.120  -3.717  26.512  0.00  0.00    +0.221 HD
ENDBRANCH   6   8
BRANCH   6  10
ATOM     10  O   UNL     1       5.633  -5.963  24.308  0.00  0.00    -0.196 OA
BRANCH  10  11
ATOM     11  P   UNL     1       5.100  -5.605  22.862  0.00  0.00    +0.480 P 
ATOM     12  O   UNL     1       4.954  -4.182  22.471  0.00  0.00    -0.227 OA
BRANCH  11  13
ATOM     13  O   UNL     1       3.741  -6.440  22.669  0.00  0.00    -0.302 OA
ATOM     14  H   UNL     1       3.206  -6.012  21.966  0.00  0.00    +0.222 HD
ENDBRANCH  11  13
BRANCH  11  15
ATOM     15  O   UNL     1       6.067  -6.465  21.928  0.00  0.00    -0.302 OA
ATOM     16  H   UNL     1       5.589  -7.103  21.368  0.00  0.00    +0.222 HD
ENDBRANCH  11  15
ENDBRANCH  10  11
ENDBRANCH   6  10
ENDBRANCH   4   6
ENDBRANCH   2   4
BRANCH   2  17
ATOM     17  O   UNL     1      10.021  -5.307  25.110  0.00  0.00    -0.312 OA
ATOM     18  H   UNL     1       9.962  -5.901  24.333  0.00  0.00    +0.221 HD
ENDBRANCH   2  17
ENDBRANCH   1   2
BRANCH   1  19
ATOM     19  C   UNL     1       9.368  -2.305  23.179  0.00  0.00    +0.205 C 
BRANCH  19  21
ATOM     20  C   UNL     1       9.839  -0.350  24.771  0.00  0.00    +0.150 C 
ATOM     21  C   UNL     1       8.986  -0.911  23.645  0.00  0.00    +0.175 C 
ATOM     22  O   UNL     1       9.221  -0.071  22.481  0.00  0.00    -0.348 OA
ATOM     23  C   UNL     1      10.156   0.966  22.816  0.00  0.00    +0.226 C 
ATOM     24  C   UNL     1      10.902   0.437  24.036  0.00  0.00    +0.088 C 
BRANCH  23  25
ATOM     25  N   UNL     1       9.418   2.218  23.010  0.00  0.00    -0.274 N 
ATOM     26  C   UNL     1      10.138   3.360  23.333  0.00  0.00    +0.331 A 
ATOM     27  O   UNL     1      11.352   3.390  23.468  0.00  0.00    -0.246 OA
ATOM     28  N   UNL     1       9.398   4.509  23.489  0.00  0.00    -0.275 N 
ATOM     29  H   UNL     1       9.908   5.343  23.737  0.00  0.00    +0.173 HD
ATOM     30  C   UNL     1       8.069   4.646  23.243  0.00  0.00    +0.254 A 
ATOM     31  O   UNL     1       7.468   5.706  23.348  0.00  0.00    -0.268 OA
ATOM     32  C   UNL     1       7.375   3.429  22.810  0.00  0.00    +0.088 A 
ATOM     33  C   UNL     1       8.067   2.298  22.700  0.00  0.00    +0.098 A 
ENDBRANCH  23  25
BRANCH  20  34
ATOM     34  O   UNL     1       9.072   0.535  25.595  0.00  0.00    -0.389 OA
ATOM     35  H   UNL     1       9.141   0.237  26.520  0.00  0.00    +0.210 HD
ENDBRANCH  20  34
ENDBRANCH  19  21
ENDBRANCH   1  19
TORSDOF 13
ENDMDL
MODEL 7
REMARK VINA RESULT:      -7.2      3.820      8.948
REMARK  Name = 
REMARK  13 active torsions:
REMARK  status: ('A' for Active; 'I' for Inactive)
REMARK    1  A    between atoms: O_1  and  C_2
REMARK    2  A    between atoms: C_5  and  N_24
REMARK    3  A    between atoms: C_8  and  C_10
REMARK    4  A    between atoms: C_10  and  O_11
REMARK    5  A    between atoms: O_11  and  P_12
REMARK    6  A    between atoms: P_12  and  O_13
REMARK    7  A    between atoms: P_12  and  N_15
REMARK    8  A    between atoms: N_15  and  P_16
REMARK    9  A    between atoms: P_16  and  O_17
REMARK   10  A    between atoms: P_16  and  O_19
REMARK   11  A    between atoms: O_19  and  P_20
REMARK   12  A    between atoms: P_20  and  O_21
REMARK   13  A    between atoms: P_20  and  O_22
REMARK                            x       y       z     vdW  Elec       q    Type
REMARK                         _______ _______ _______ _____ _____    ______ ____
ROOT
ATOM      1  O   UNL     1       8.921  -4.074  25.631  0.00  0.00    -0.293 OA
ENDROOT
BRANCH   1   2
ATOM      2  P   UNL     1       7.510  -4.649  26.214  0.00  0.00    +0.415 P 
ATOM      3  O   UNL     1       6.917  -3.666  27.167  0.00  0.00    -0.240 OA
BRANCH   2   4
ATOM      4  N   UNL     1       6.524  -5.184  25.054  0.00  0.00    -0.125 NA
ATOM      5  H   UNL     1       6.146  -4.416  24.515  0.00  0.00    +0.146 HD
BRANCH   4   6
ATOM      6  P   UNL     1       5.321  -5.900  25.886  0.00  0.00    +0.423 P 
ATOM      7  O   UNL     1       5.528  -6.853  27.010  0.00  0.00    -0.239 OA
BRANCH   6   8
ATOM      8  O   UNL     1       4.494  -4.671  26.512  0.00  0.00    -0.312 OA
ATOM      9  H   UNL     1       4.250  -4.075  25.770  0.00  0.00    +0.221 HD
ENDBRANCH   6   8
BRANCH   6  10
ATOM     10  O   UNL     1       4.258  -6.389  24.808  0.00  0.00    -0.196 OA
BRANCH  10  11
ATOM     11  P   UNL     1       4.165  -5.935  23.296  0.00  0.00    +0.480 P 
ATOM     12  O   UNL     1       4.055  -4.491  22.974  0.00  0.00    -0.227 OA
BRANCH  11  13
ATOM     13  O   UNL     1       2.982  -6.804  22.641  0.00  0.00    -0.302 OA
ATOM     14  H   UNL     1       3.123  -6.846  21.670  0.00  0.00    +0.222 HD
ENDBRANCH  11  13
BRANCH  11  15
ATOM     15  O   UNL     1       5.420  -6.677  22.647  0.00  0.00    -0.302 OA
ATOM     16  H   UNL     1       6.240  -6.153  22.695  0.00  0.00    +0.222 HD
ENDBRANCH  11  15
ENDBRANCH  10  11
ENDBRANCH   6  10
ENDBRANCH   4   6
ENDBRANCH   2   4
BRANCH   2  17
ATOM     17  O   UNL     1       8.150  -5.955  26.883  0.00  0.00    -0.312 OA
ATOM     18  H   UNL     1       7.481  -6.668  26.943  0.00  0.00    +0.221 HD
ENDBRANCH   2  17
ENDBRANCH   1   2
BRANCH   1  19
ATOM     19  C   UNL     1       8.792  -3.816  24.225  0.00  0.00    +0.205 C 
BRANCH  19  21
ATOM     20  C   UNL     1       9.058  -2.219  22.236  0.00  0.00    +0.150 C 
ATOM     21  C   UNL     1       9.430  -2.555  23.671  0.00  0.00    +0.175 C 
ATOM     22  O   UNL     1       8.896  -1.490  24.504  0.00  0.00    -0.348 OA
ATOM     23  C   UNL     1       8.223  -0.525  23.681  0.00  0.00    +0.226 C 
ATOM     24  C   UNL     1       7.885  -1.277  22.398  0.00  0.00    +0.088 C 
BRANCH  23  25
ATOM     25  N   UNL     1       9.093   0.645  23.527  0.00  0.00    -0.274 N 
ATOM     26  C   UNL     1       8.591   1.749  22.849  0.00  0.00    +0.331 A 
ATOM     27  O   UNL     1       7.469   1.808  22.370  0.00  0.00    -0.246 OA
ATOM     28  N   UNL     1       9.443   2.825  22.746  0.00  0.00    -0.275 N 
ATOM     29  H   UNL     1       9.095   3.627  22.244  0.00  0.00    +0.173 HD
ATOM     30  C   UNL     1      10.659   2.943  23.338  0.00  0.00    +0.254 A 
ATOM     31  O   UNL     1      11.356   3.945  23.257  0.00  0.00    -0.268 OA
ATOM     32  C   UNL     1      11.099   1.785  24.123  0.00  0.00    +0.088 A 
ATOM     33  C   UNL     1      10.307   0.718  24.194  0.00  0.00    +0.098 A 
ENDBRANCH  23  25
BRANCH  20  34
ATOM     34  O   UNL     1      10.132  -1.538  21.580  0.00  0.00    -0.389 OA
ATOM     35  H   UNL     1      10.926  -2.102  21.613  0.00  0.00    +0.210 HD
ENDBRANCH  20  34
ENDBRANCH  19  21
ENDBRANCH   1  19
TORSDOF 13
ENDMDL
MODEL 8
REMARK VINA RESULT:      -7.2      4.189      8.495
REMARK  Name = 
REMARK  13 active torsions:
REMARK  status: ('A' for Active; 'I' for Inactive)
REMARK    1  A    between atoms: O_1  and  C_2
REMARK    2  A    between atoms: C_5  and  N_24
REMARK    3  A    between atoms: C_8  and  C_10
REMARK    4  A    between atoms: C_10  and  O_11
REMARK    5  A    between atoms: O_11  and  P_12
REMARK    6  A    between atoms: P_12  and  O_13
REMARK    7  A    between atoms: P_12  and  N_15
REMARK    8  A    between atoms: N_15  and  P_16
REMARK    9  A    between atoms: P_16  and  O_17
REMARK   10  A    between atoms: P_16  and  O_19
REMARK   11  A    between atoms: O_19  and  P_20
REMARK   12  A    between atoms: P_20  and  O_21
REMARK   13  A    between atoms: P_20  and  O_22
REMARK                            x       y       z     vdW  Elec       q    Type
REMARK                         _______ _______ _______ _____ _____    ______ ____
ROOT
ATOM      1  O   UNL     1       5.496  -4.106  21.894  0.00  0.00    -0.293 OA
ENDROOT
BRANCH   1   2
ATOM      2  P   UNL     1       5.338  -5.406  22.868  0.00  0.00    +0.415 P 
ATOM      3  O   UNL     1       5.934  -6.606  22.213  0.00  0.00    -0.240 OA
BRANCH   2   4
ATOM      4  N   UNL     1       5.823  -5.118  24.381  0.00  0.00    -0.125 NA
ATOM      5  H   UNL     1       6.763  -5.459  24.531  0.00  0.00    +0.146 HD
BRANCH   4   6
ATOM      6  P   UNL     1       4.785  -5.993  25.279  0.00  0.00    +0.423 P 
ATOM      7  O   UNL     1       3.392  -5.577  25.599  0.00  0.00    -0.239 OA
BRANCH   6   8
ATOM      8  O   UNL     1       4.644  -7.379  24.476  0.00  0.00    -0.312 OA
ATOM      9  H   UNL     1       5.175  -8.050  24.957  0.00  0.00    +0.221 HD
ENDBRANCH   6   8
BRANCH   6  10
ATOM     10  O   UNL     1       5.609  -6.519  26.535  0.00  0.00    -0.196 OA
BRANCH  10  11
ATOM     11  P   UNL     1       6.585  -5.673  27.448  0.00  0.00    +0.480 P 
ATOM     12  O   UNL     1       6.621  -5.929  28.908  0.00  0.00    -0.227 OA
BRANCH  11  13
ATOM     13  O   UNL     1       6.299  -4.131  27.098  0.00  0.00    -0.302 OA
ATOM     14  H   UNL     1       6.386  -4.007  26.128  0.00  0.00    +0.222 HD
ENDBRANCH  11  13
BRANCH  11  15
ATOM     15  O   UNL     1       7.983  -5.853  26.698  0.00  0.00    -0.302 OA
ATOM     16  H   UNL     1       8.597  -6.442  27.171  0.00  0.00    +0.222 HD
ENDBRANCH  11  15
ENDBRANCH  10  11
ENDBRANCH   6  10
ENDBRANCH   4   6
ENDBRANCH   2   4
BRANCH   2  17
ATOM     17  O   UNL     1       3.738  -5.366  22.906  0.00  0.00    -0.312 OA
ATOM     18  H   UNL     1       3.394  -6.076  23.487  0.00  0.00    +0.221 HD
ENDBRANCH   2  17
ENDBRANCH   1   2
BRANCH   1  19
ATOM     19  C   UNL     1       6.871  -3.696  21.858  0.00  0.00    +0.205 C 
BRANCH  19  21
ATOM     20  C   UNL     1       6.531  -1.709  23.444  0.00  0.00    +0.150 C 
ATOM     21  C   UNL     1       7.190  -2.248  22.184  0.00  0.00    +0.175 C 
ATOM     22  O   UNL     1       8.624  -2.246  22.427  0.00  0.00    -0.348 OA
ATOM     23  C   UNL     1       8.889  -1.743  23.745  0.00  0.00    +0.226 C 
ATOM     24  C   UNL     1       7.583  -1.940  24.506  0.00  0.00    +0.088 C 
BRANCH  23  25
ATOM     25  N   UNL     1       9.362  -0.360  23.631  0.00  0.00    -0.274 N 
ATOM     26  C   UNL     1       9.735   0.303  24.793  0.00  0.00    +0.331 A 
ATOM     27  O   UNL     1       9.695  -0.194  25.909  0.00  0.00    -0.246 OA
ATOM     28  N   UNL     1      10.186   1.592  24.628  0.00  0.00    -0.275 N 
ATOM     29  H   UNL     1      10.447   2.088  25.466  0.00  0.00    +0.173 HD
ATOM     30  C   UNL     1      10.403   2.219  23.443  0.00  0.00    +0.254 A 
ATOM     31  O   UNL     1      10.855   3.352  23.351  0.00  0.00    -0.268 OA
ATOM     32  C   UNL     1      10.084   1.438  22.243  0.00  0.00    +0.088 A 
ATOM     33  C   UNL     1       9.603   0.206  22.388  0.00  0.00    +0.098 A 
ENDBRANCH  23  25
BRANCH  20  34
ATOM     34  O   UNL     1       6.274  -0.306  23.320  0.00  0.00    -0.389 OA
ATOM     35  H   UNL     1       6.001  -0.119  22.404  0.00  0.00    +0.210 HD
ENDBRANCH  20  34
ENDBRANCH  19  21
ENDBRANCH   1  19
TORSDOF 13
ENDMDL
MODEL 9
REMARK VINA RESULT:      -7.2      3.863      8.966
REMARK  Name = 
REMARK  13 active torsions:
REMARK  status: ('A' for Active; 'I' for Inactive)
REMARK    1  A    between atoms: O_1  and  C_2
REMARK    2  A    between atoms: C_5  and  N_24
REMARK    3  A    between atoms: C_8  and  C_10
REMARK    4  A    between atoms: C_10  and  O_11
REMARK    5  A    between atoms: O_11  and  P_12
REMARK    6  A    between atoms: P_12  and  O_13
REMARK    7  A    between atoms: P_12  and  N_15
REMARK    8  A    between atoms: N_15  and  P_16
REMARK    9  A    between atoms: P_16  and  O_17
REMARK   10  A    between atoms: P_16  and  O_19
REMARK   11  A    between atoms: O_19  and  P_20
REMARK   12  A    between atoms: P_20  and  O_21
REMARK   13  A    between atoms: P_20  and  O_22
REMARK                            x       y       z     vdW  Elec       q    Type
REMARK                         _______ _______ _______ _____ _____    ______ ____
ROOT
ATOM      1  O   UNL     1       9.332  -1.444  24.577  0.00  0.00    -0.293 OA
ENDROOT
BRANCH   1   2
ATOM      2  P   UNL     1       8.786  -2.898  24.077  0.00  0.00    +0.415 P 
ATOM      3  O   UNL     1       9.779  -3.958  24.422  0.00  0.00    -0.240 OA
BRANCH   2   4
ATOM      4  N   UNL     1       7.265  -3.187  24.534  0.00  0.00    -0.125 NA
ATOM      5  H   UNL     1       7.239  -3.738  25.381  0.00  0.00    +0.146 HD
BRANCH   4   6
ATOM      6  P   UNL     1       6.666  -4.065  23.301  0.00  0.00    +0.423 P 
ATOM      7  O   UNL     1       6.297  -3.506  21.972  0.00  0.00    -0.239 OA
BRANCH   6   8
ATOM      8  O   UNL     1       7.810  -5.156  23.006  0.00  0.00    -0.312 OA
ATOM      9  H   UNL     1       8.234  -4.911  22.155  0.00  0.00    +0.221 HD
ENDBRANCH   6   8
BRANCH   6  10
ATOM     10  O   UNL     1       5.564  -5.027  23.928  0.00  0.00    -0.196 OA
BRANCH  10  11
ATOM     11  P   UNL     1       4.511  -5.902  23.137  0.00  0.00    +0.480 P 
ATOM     12  O   UNL     1       3.152  -5.360  22.890  0.00  0.00    -0.227 OA
BRANCH  11  13
ATOM     13  O   UNL     1       4.480  -7.333  23.869  0.00  0.00    -0.302 OA
ATOM     14  H   UNL     1       4.577  -7.194  24.835  0.00  0.00    +0.222 HD
ENDBRANCH  11  13
BRANCH  11  15
ATOM     15  O   UNL     1       5.327  -6.301  21.825  0.00  0.00    -0.302 OA
ATOM     16  H   UNL     1       4.788  -6.783  21.172  0.00  0.00    +0.222 HD
ENDBRANCH  11  15
ENDBRANCH  10  11
ENDBRANCH   6  10
ENDBRANCH   4   6
ENDBRANCH   2   4
BRANCH   2  17
ATOM     17  O   UNL     1       8.712  -2.502  22.528  0.00  0.00    -0.312 OA
ATOM     18  H   UNL     1       7.807  -2.648  22.183  0.00  0.00    +0.221 HD
ENDBRANCH   2  17
ENDBRANCH   1   2
BRANCH   1  19
ATOM     19  C   UNL     1      10.209  -0.892  23.584  0.00  0.00    +0.205 C 
BRANCH  19  21
ATOM     20  C   UNL     1       9.777   0.976  21.881  0.00  0.00    +0.150 C 
ATOM     21  C   UNL     1      10.127   0.599  23.312  0.00  0.00    +0.175 C 
ATOM     22  O   UNL     1       9.025   1.053  24.146  0.00  0.00    -0.348 OA
ATOM     23  C   UNL     1       8.027   1.681  23.327  0.00  0.00    +0.226 C 
ATOM     24  C   UNL     1       8.273   1.134  21.925  0.00  0.00    +0.088 C 
BRANCH  23  25
ATOM     25  N   UNL     1       8.146   3.135  23.477  0.00  0.00    -0.274 N 
ATOM     26  C   UNL     1       7.293   3.942  22.736  0.00  0.00    +0.331 A 
ATOM     27  O   UNL     1       6.446   3.518  21.964  0.00  0.00    -0.246 OA
ATOM     28  N   UNL     1       7.436   5.297  22.926  0.00  0.00    -0.275 N 
ATOM     29  H   UNL     1       6.832   5.894  22.384  0.00  0.00    +0.173 HD
ATOM     30  C   UNL     1       8.241   5.896  23.841  0.00  0.00    +0.254 A 
ATOM     31  O   UNL     1       8.293   7.108  24.005  0.00  0.00    -0.268 OA
ATOM     32  C   UNL     1       9.050   4.992  24.666  0.00  0.00    +0.088 A 
ATOM     33  C   UNL     1       8.957   3.681  24.461  0.00  0.00    +0.098 A 
ENDBRANCH  23  25
BRANCH  20  34
ATOM     34  O   UNL     1      10.380   2.224  21.524  0.00  0.00    -0.389 OA
ATOM     35  H   UNL     1      10.307   2.341  20.559  0.00  0.00    +0.210 HD
ENDBRANCH  20  34
ENDBRANCH  19  21
ENDBRANCH   1  19
TORSDOF 13
ENDMDL
