MODEL 1
REMARK VINA RESULT:      -7.1      0.000      0.000
REMARK  Name = 
REMARK  13 active torsions:
REMARK  status: ('A' for Active; 'I' for Inactive)
REMARK    1  A    between atoms: C_1  and  O_2
REMARK    2  A    between atoms: O_2  and  C_3
REMARK    3  A    between atoms: C_3  and  C_5
REMARK    4  A    between atoms: C_5  and  C_6
REMARK    5  A    between atoms: C_5  and  C_13
REMARK    6  A    between atoms: C_5  and  C_25
REMARK    7  A    between atoms: C_6  and  C_7
REMARK    8  A    between atoms: C_13  and  C_14
REMARK    9  A    between atoms: C_17  and  N_18
REMARK   10  A    between atoms: N_18  and  S_19
REMARK   11  A    between atoms: S_19  and  O_20
REMARK   12  A    between atoms: C_25  and  O_27
REMARK   13  A    between atoms: O_27  and  C_28
REMARK                            x       y       z     vdW  Elec       q    Type
REMARK                         _______ _______ _______ _____ _____    ______ ____
ROOT
ATOM      1  C   UNL     1       8.596  -2.589  23.983  0.00  0.00    +0.172 C 
ENDROOT
BRANCH   1   2
ATOM      2  C   UNL     1       8.763  -3.936  24.672  0.00  0.00    +0.325 C 
ATOM      3  O   UNL     1       9.729  -4.680  24.544  0.00  0.00    -0.250 OA
BRANCH   2   5
ATOM      4  C   UNL     1       8.006  -5.230  26.478  0.00  0.00    +0.280 C 
ATOM      5  O   UNL     1       7.728  -4.199  25.525  0.00  0.00    -0.467 OA
ENDBRANCH   2   5
ENDBRANCH   1   2
BRANCH   1   6
ATOM      6  C   UNL     1       7.900  -1.563  24.868  0.00  0.00    +0.325 C 
ATOM      7  O   UNL     1       6.953  -0.876  24.494  0.00  0.00    -0.250 OA
BRANCH   6   8
ATOM      8  O   UNL     1       8.376  -1.557  26.144  0.00  0.00    -0.467 OA
ATOM      9  C   UNL     1       7.979  -0.422  26.919  0.00  0.00    +0.280 C 
ENDBRANCH   6   8
ENDBRANCH   1   6
BRANCH   1  10
ATOM     10  C   UNL     1       7.767  -2.694  22.664  0.00  0.00    +0.065 C 
BRANCH  10  11
ATOM     11  C   UNL     1       6.674  -3.756  22.648  0.00  0.00    -0.046 A 
ATOM     12  C   UNL     1       6.970  -5.075  22.276  0.00  0.00    +0.005 A 
ATOM     13  C   UNL     1       6.046  -6.103  22.472  0.00  0.00    +0.025 A 
ATOM     14  C   UNL     1       4.795  -5.811  23.003  0.00  0.00    +0.050 A 
ATOM     15  C   UNL     1       4.433  -4.488  23.246  0.00  0.00    +0.025 A 
ATOM     16  C   UNL     1       5.370  -3.463  23.075  0.00  0.00    +0.005 A 
BRANCH  14  17
ATOM     17  N   UNL     1       3.872  -6.851  23.319  0.00  0.00    -0.197 N 
ATOM     18  H   UNL     1       2.993  -6.781  22.806  0.00  0.00    +0.176 HD
BRANCH  17  19
ATOM     19  S   UNL     1       3.511  -7.100  24.940  0.00  0.00    +0.164 S 
ATOM     20  O   UNL     1       2.355  -6.288  25.239  0.00  0.00    -0.127 OA
ATOM     21  O   UNL     1       4.728  -6.992  25.707  0.00  0.00    -0.127 OA
BRANCH  19  22
ATOM     22  O   UNL     1       3.078  -8.644  25.000  0.00  0.00    -0.238 OA
ATOM     23  H   UNL     1       3.574  -9.109  24.297  0.00  0.00    +0.246 HD
ENDBRANCH  19  22
ENDBRANCH  17  19
ENDBRANCH  14  17
ENDBRANCH  10  11
ENDBRANCH   1  10
BRANCH   1  24
ATOM     24  C   UNL     1      10.024  -2.020  23.712  0.00  0.00    +0.065 C 
BRANCH  24  25
ATOM     25  C   UNL     1      10.151  -0.552  23.361  0.00  0.00    -0.046 A 
ATOM     26  C   UNL     1      10.611   0.375  24.311  0.00  0.00    +0.003 A 
ATOM     27  C   UNL     1      10.690   1.734  24.000  0.00  0.00    +0.000 A 
ATOM     28  C   UNL     1      10.301   2.186  22.741  0.00  0.00    +0.000 A 
ATOM     29  C   UNL     1       9.832   1.278  21.794  0.00  0.00    +0.000 A 
ATOM     30  C   UNL     1       9.757  -0.082  22.101  0.00  0.00    +0.003 A 
ENDBRANCH  24  25
ENDBRANCH   1  24
TORSDOF 11
ENDMDL
MODEL 2
REMARK VINA RESULT:      -6.9      3.819      7.220
REMARK  Name = 
REMARK  13 active torsions:
REMARK  status: ('A' for Active; 'I' for Inactive)
REMARK    1  A    between atoms: C_1  and  O_2
REMARK    2  A    between atoms: O_2  and  C_3
REMARK    3  A    between atoms: C_3  and  C_5
REMARK    4  A    between atoms: C_5  and  C_6
REMARK    5  A    between atoms: C_5  and  C_13
REMARK    6  A    between atoms: C_5  and  C_25
REMARK    7  A    between atoms: C_6  and  C_7
REMARK    8  A    between atoms: C_13  and  C_14
REMARK    9  A    between atoms: C_17  and  N_18
REMARK   10  A    between atoms: N_18  and  S_19
REMARK   11  A    between atoms: S_19  and  O_20
REMARK   12  A    between atoms: C_25  and  O_27
REMARK   13  A    between atoms: O_27  and  C_28
REMARK                            x       y       z     vdW  Elec       q    Type
REMARK                         _______ _______ _______ _____ _____    ______ ____
ROOT
ATOM      1  C   UNL     1       8.354  -2.785  25.314  0.00  0.00    +0.172 C 
ENDROOT
BRANCH   1   2
ATOM      2  C   UNL     1       8.268  -1.513  26.145  0.00  0.00    +0.325 C 
ATOM      3  O   UNL     1       9.075  -1.173  27.002  0.00  0.00    -0.250 OA
BRANCH   2   5
ATOM      4  C   UNL     1       7.366   0.653  26.078  0.00  0.00    +0.280 C 
ATOM      5  O   UNL     1       7.207  -0.737  25.773  0.00  0.00    -0.467 OA
ENDBRANCH   2   5
ENDBRANCH   1   2
BRANCH   1   6
ATOM      6  C   UNL     1       8.677  -4.012  26.157  0.00  0.00    +0.325 C 
ATOM      7  O   UNL     1       9.677  -4.705  25.990  0.00  0.00    -0.250 OA
BRANCH   6   8
ATOM      8  O   UNL     1       7.792  -4.202  27.174  0.00  0.00    -0.467 OA
ATOM      9  C   UNL     1       7.299  -5.540  27.289  0.00  0.00    +0.280 C 
ENDBRANCH   6   8
ENDBRANCH   1   6
BRANCH   1  10
ATOM     10  C   UNL     1       9.443  -2.695  24.199  0.00  0.00    +0.065 C 
BRANCH  10  11
ATOM     11  C   UNL     1       9.577  -1.344  23.507  0.00  0.00    -0.046 A 
ATOM     12  C   UNL     1       8.836  -1.061  22.351  0.00  0.00    +0.005 A 
ATOM     13  C   UNL     1       8.770   0.235  21.837  0.00  0.00    +0.025 A 
ATOM     14  C   UNL     1       9.483   1.257  22.453  0.00  0.00    +0.050 A 
ATOM     15  C   UNL     1      10.336   0.967  23.516  0.00  0.00    +0.025 A 
ATOM     16  C   UNL     1      10.379  -0.327  24.047  0.00  0.00    +0.005 A 
BRANCH  14  17
ATOM     17  N   UNL     1       9.350   2.609  22.022  0.00  0.00    -0.197 N 
ATOM     18  H   UNL     1      10.243   3.064  21.832  0.00  0.00    +0.176 HD
BRANCH  17  19
ATOM     19  S   UNL     1       8.434   3.640  22.980  0.00  0.00    +0.164 S 
ATOM     20  O   UNL     1       9.351   4.294  23.884  0.00  0.00    -0.127 OA
ATOM     21  O   UNL     1       7.281   2.920  23.464  0.00  0.00    -0.127 OA
BRANCH  19  22
ATOM     22  O   UNL     1       7.879   4.731  21.941  0.00  0.00    -0.238 OA
ATOM     23  H   UNL     1       7.903   4.321  21.053  0.00  0.00    +0.246 HD
ENDBRANCH  19  22
ENDBRANCH  17  19
ENDBRANCH  14  17
ENDBRANCH  10  11
ENDBRANCH   1  10
BRANCH   1  24
ATOM     24  C   UNL     1       6.940  -3.046  24.706  0.00  0.00    +0.065 C 
BRANCH  24  25
ATOM     25  C   UNL     1       6.846  -3.905  23.464  0.00  0.00    -0.046 A 
ATOM     26  C   UNL     1       6.203  -3.430  22.309  0.00  0.00    +0.003 A 
ATOM     27  C   UNL     1       6.082  -4.237  21.176  0.00  0.00    +0.000 A 
ATOM     28  C   UNL     1       6.592  -5.533  21.185  0.00  0.00    +0.000 A 
ATOM     29  C   UNL     1       7.222  -6.021  22.329  0.00  0.00    +0.000 A 
ATOM     30  C   UNL     1       7.348  -5.214  23.461  0.00  0.00    +0.003 A 
ENDBRANCH  24  25
ENDBRANCH   1  24
TORSDOF 11
ENDMDL
MODEL 3
REMARK VINA RESULT:      -6.9      4.087      7.629
REMARK  Name = 
REMARK  13 active torsions:
REMARK  status: ('A' for Active; 'I' for Inactive)
REMARK    1  A    between atoms: C_1  and  O_2
REMARK    2  A    between atoms: O_2  and  C_3
REMARK    3  A    between atoms: C_3  and  C_5
REMARK    4  A    between atoms: C_5  and  C_6
REMARK    5  A    between atoms: C_5  and  C_13
REMARK    6  A    between atoms: C_5  and  C_25
REMARK    7  A    between atoms: C_6  and  C_7
REMARK    8  A    between atoms: C_13  and  C_14
REMARK    9  A    between atoms: C_17  and  N_18
REMARK   10  A    between atoms: N_18  and  S_19
REMARK   11  A    between atoms: S_19  and  O_20
REMARK   12  A    between atoms: C_25  and  O_27
REMARK   13  A    between atoms: O_27  and  C_28
REMARK                            x       y       z     vdW  Elec       q    Type
REMARK                         _______ _______ _______ _____ _____    ______ ____
ROOT
ATOM      1  C   UNL     1       7.604  -3.467  23.581  0.00  0.00    +0.172 C 
ENDROOT
BRANCH   1   2
ATOM      2  C   UNL     1       8.946  -2.845  23.224  0.00  0.00    +0.325 C 
ATOM      3  O   UNL     1       9.982  -2.983  23.865  0.00  0.00    -0.250 OA
BRANCH   2   5
ATOM      4  C   UNL     1       9.852  -1.108  21.931  0.00  0.00    +0.280 C 
ATOM      5  O   UNL     1       8.886  -2.159  22.044  0.00  0.00    -0.467 OA
ENDBRANCH   2   5
ENDBRANCH   1   2
BRANCH   1   6
ATOM      6  C   UNL     1       6.772  -3.807  22.351  0.00  0.00    +0.325 C 
ATOM      7  O   UNL     1       5.860  -3.099  21.933  0.00  0.00    -0.250 OA
BRANCH   6   8
ATOM      8  O   UNL     1       7.209  -4.926  21.710  0.00  0.00    -0.467 OA
ATOM      9  C   UNL     1       6.171  -5.721  21.130  0.00  0.00    +0.280 C 
ENDBRANCH   6   8
ENDBRANCH   1   6
BRANCH   1  10
ATOM     10  C   UNL     1       6.734  -2.531  24.479  0.00  0.00    +0.065 C 
BRANCH  10  11
ATOM     11  C   UNL     1       7.167  -1.071  24.533  0.00  0.00    -0.046 A 
ATOM     12  C   UNL     1       8.095  -0.641  25.492  0.00  0.00    +0.005 A 
ATOM     13  C   UNL     1       8.673   0.628  25.416  0.00  0.00    +0.025 A 
ATOM     14  C   UNL     1       8.293   1.497  24.400  0.00  0.00    +0.050 A 
ATOM     15  C   UNL     1       7.270   1.140  23.525  0.00  0.00    +0.025 A 
ATOM     16  C   UNL     1       6.712  -0.142  23.585  0.00  0.00    +0.005 A 
BRANCH  14  17
ATOM     17  N   UNL     1       8.943   2.754  24.229  0.00  0.00    -0.197 N 
ATOM     18  H   UNL     1       8.351   3.460  23.788  0.00  0.00    +0.176 HD
BRANCH  17  19
ATOM     19  S   UNL     1      10.428   2.757  23.446  0.00  0.00    +0.164 S 
ATOM     20  O   UNL     1      11.172   1.630  23.957  0.00  0.00    -0.127 OA
ATOM     21  O   UNL     1      10.967   4.095  23.480  0.00  0.00    -0.127 OA
BRANCH  19  22
ATOM     22  O   UNL     1      10.050   2.464  21.913  0.00  0.00    -0.238 OA
ATOM     23  H   UNL     1      10.827   2.714  21.374  0.00  0.00    +0.246 HD
ENDBRANCH  19  22
ENDBRANCH  17  19
ENDBRANCH  14  17
ENDBRANCH  10  11
ENDBRANCH   1  10
BRANCH   1  24
ATOM     24  C   UNL     1       7.891  -4.828  24.291  0.00  0.00    +0.065 C 
BRANCH  24  25
ATOM     25  C   UNL     1       6.980  -5.244  25.427  0.00  0.00    -0.046 A 
ATOM     26  C   UNL     1       7.391  -5.107  26.763  0.00  0.00    +0.003 A 
ATOM     27  C   UNL     1       6.567  -5.528  27.809  0.00  0.00    +0.000 A 
ATOM     28  C   UNL     1       5.327  -6.101  27.534  0.00  0.00    +0.000 A 
ATOM     29  C   UNL     1       4.913  -6.253  26.212  0.00  0.00    +0.000 A 
ATOM     30  C   UNL     1       5.733  -5.828  25.165  0.00  0.00    +0.003 A 
ENDBRANCH  24  25
ENDBRANCH   1  24
TORSDOF 11
ENDMDL
MODEL 4
REMARK VINA RESULT:      -6.7      1.830      2.986
REMARK  Name = 
REMARK  13 active torsions:
REMARK  status: ('A' for Active; 'I' for Inactive)
REMARK    1  A    between atoms: C_1  and  O_2
REMARK    2  A    between atoms: O_2  and  C_3
REMARK    3  A    between atoms: C_3  and  C_5
REMARK    4  A    between atoms: C_5  and  C_6
REMARK    5  A    between atoms: C_5  and  C_13
REMARK    6  A    between atoms: C_5  and  C_25
REMARK    7  A    between atoms: C_6  and  C_7
REMARK    8  A    between atoms: C_13  and  C_14
REMARK    9  A    between atoms: C_17  and  N_18
REMARK   10  A    between atoms: N_18  and  S_19
REMARK   11  A    between atoms: S_19  and  O_20
REMARK   12  A    between atoms: C_25  and  O_27
REMARK   13  A    between atoms: O_27  and  C_28
REMARK                            x       y       z     vdW  Elec       q    Type
REMARK                         _______ _______ _______ _____ _____    ______ ____
ROOT
ATOM      1  C   UNL     1       8.707  -1.932  23.775  0.00  0.00    +0.172 C 
ENDROOT
BRANCH   1   2
ATOM      2  C   UNL     1       9.857  -0.994  23.439  0.00  0.00    +0.325 C 
ATOM      3  O   UNL     1      10.186  -0.656  22.308  0.00  0.00    -0.250 OA
BRANCH   2   5
ATOM      4  C   UNL     1      11.056   0.785  24.390  0.00  0.00    +0.280 C 
ATOM      5  O   UNL     1      10.451  -0.500  24.567  0.00  0.00    -0.467 OA
ENDBRANCH   2   5
ENDBRANCH   1   2
BRANCH   1   6
ATOM      6  C   UNL     1       9.135  -3.078  24.685  0.00  0.00    +0.325 C 
ATOM      7  O   UNL     1      10.022  -3.876  24.397  0.00  0.00    -0.250 OA
BRANCH   6   8
ATOM      8  O   UNL     1       8.496  -3.064  25.887  0.00  0.00    -0.467 OA
ATOM      9  C   UNL     1       8.190  -4.359  26.411  0.00  0.00    +0.280 C 
ENDBRANCH   6   8
ENDBRANCH   1   6
BRANCH   1  10
ATOM     10  C   UNL     1       8.069  -2.573  22.501  0.00  0.00    +0.065 C 
BRANCH  10  11
ATOM     11  C   UNL     1       6.993  -3.622  22.752  0.00  0.00    -0.046 A 
ATOM     12  C   UNL     1       5.717  -3.240  23.191  0.00  0.00    +0.005 A 
ATOM     13  C   UNL     1       4.659  -4.151  23.207  0.00  0.00    +0.025 A 
ATOM     14  C   UNL     1       4.880  -5.469  22.824  0.00  0.00    +0.050 A 
ATOM     15  C   UNL     1       6.169  -5.899  22.521  0.00  0.00    +0.025 A 
ATOM     16  C   UNL     1       7.223  -4.979  22.479  0.00  0.00    +0.005 A 
BRANCH  14  17
ATOM     17  N   UNL     1       3.800  -6.394  22.722  0.00  0.00    -0.197 N 
ATOM     18  H   UNL     1       3.006  -6.033  22.191  0.00  0.00    +0.176 HD
BRANCH  17  19
ATOM     19  S   UNL     1       3.214  -7.059  24.148  0.00  0.00    +0.164 S 
ATOM     20  O   UNL     1       2.213  -6.149  24.653  0.00  0.00    -0.127 OA
ATOM     21  O   UNL     1       4.332  -7.477  24.958  0.00  0.00    -0.127 OA
BRANCH  19  22
ATOM     22  O   UNL     1       2.482  -8.405  23.667  0.00  0.00    -0.238 OA
ATOM     23  H   UNL     1       3.126  -9.134  23.769  0.00  0.00    +0.246 HD
ENDBRANCH  19  22
ENDBRANCH  17  19
ENDBRANCH  14  17
ENDBRANCH  10  11
ENDBRANCH   1  10
BRANCH   1  24
ATOM     24  C   UNL     1       7.653  -1.114  24.586  0.00  0.00    +0.065 C 
BRANCH  24  25
ATOM     25  C   UNL     1       7.365   0.307  24.150  0.00  0.00    -0.046 A 
ATOM     26  C   UNL     1       7.507   1.376  25.050  0.00  0.00    +0.003 A 
ATOM     27  C   UNL     1       7.204   2.682  24.659  0.00  0.00    +0.000 A 
ATOM     28  C   UNL     1       6.745   2.935  23.369  0.00  0.00    +0.000 A 
ATOM     29  C   UNL     1       6.588   1.881  22.470  0.00  0.00    +0.000 A 
ATOM     30  C   UNL     1       6.896   0.576  22.857  0.00  0.00    +0.003 A 
ENDBRANCH  24  25
ENDBRANCH   1  24
TORSDOF 11
ENDMDL
MODEL 5
REMARK VINA RESULT:      -6.6      4.547      7.885
REMARK  Name = 
REMARK  13 active torsions:
REMARK  status: ('A' for Active; 'I' for Inactive)
REMARK    1  A    between atoms: C_1  and  O_2
REMARK    2  A    between atoms: O_2  and  C_3
REMARK    3  A    between atoms: C_3  and  C_5
REMARK    4  A    between atoms: C_5  and  C_6
REMARK    5  A    between atoms: C_5  and  C_13
REMARK    6  A    between atoms: C_5  and  C_25
REMARK    7  A    between atoms: C_6  and  C_7
REMARK    8  A    between atoms: C_13  and  C_14
REMARK    9  A    between atoms: C_17  and  N_18
REMARK   10  A    between atoms: N_18  and  S_19
REMARK   11  A    between atoms: S_19  and  O_20
REMARK   12  A    between atoms: C_25  and  O_27
REMARK   13  A    between atoms: O_27  and  C_28
REMARK                            x       y       z     vdW  Elec       q    Type
REMARK                         _______ _______ _______ _____ _____    ______ ____
ROOT
ATOM      1  C   UNL     1       8.434  -2.362  24.077  0.00  0.00    +0.172 C 
ENDROOT
BRANCH   1   2
ATOM      2  C   UNL     1       8.391  -3.808  24.551  0.00  0.00    +0.325 C 
ATOM      3  O   UNL     1       8.475  -4.792  23.825  0.00  0.00    -0.250 OA
BRANCH   2   5
ATOM      4  C   UNL     1       7.602  -5.035  26.390  0.00  0.00    +0.280 C 
ATOM      5  O   UNL     1       8.320  -3.892  25.913  0.00  0.00    -0.467 OA
ENDBRANCH   2   5
ENDBRANCH   1   2
BRANCH   1   6
ATOM      6  C   UNL     1       9.453  -2.143  22.966  0.00  0.00    +0.325 C 
ATOM      7  O   UNL     1      10.640  -2.441  23.066  0.00  0.00    -0.250 OA
BRANCH   6   8
ATOM      8  O   UNL     1       8.891  -1.670  21.820  0.00  0.00    -0.467 OA
ATOM      9  C   UNL     1       9.491  -0.474  21.314  0.00  0.00    +0.280 C 
ENDBRANCH   6   8
ENDBRANCH   1   6
BRANCH   1  10
ATOM     10  C   UNL     1       8.790  -1.369  25.229  0.00  0.00    +0.065 C 
BRANCH  10  11
ATOM     11  C   UNL     1       8.985   0.085  24.816  0.00  0.00    -0.046 A 
ATOM     12  C   UNL     1      10.274   0.627  24.712  0.00  0.00    +0.005 A 
ATOM     13  C   UNL     1      10.486   1.874  24.121  0.00  0.00    +0.025 A 
ATOM     14  C   UNL     1       9.400   2.613  23.666  0.00  0.00    +0.050 A 
ATOM     15  C   UNL     1       8.103   2.154  23.889  0.00  0.00    +0.025 A 
ATOM     16  C   UNL     1       7.895   0.891  24.456  0.00  0.00    +0.005 A 
BRANCH  14  17
ATOM     17  N   UNL     1       9.589   3.836  22.959  0.00  0.00    -0.197 N 
ATOM     18  H   UNL     1      10.275   3.767  22.207  0.00  0.00    +0.176 HD
BRANCH  17  19
ATOM     19  S   UNL     1       9.942   5.206  23.863  0.00  0.00    +0.164 S 
ATOM     20  O   UNL     1      11.380   5.345  23.865  0.00  0.00    -0.127 OA
ATOM     21  O   UNL     1       9.187   5.158  25.092  0.00  0.00    -0.127 OA
BRANCH  19  22
ATOM     22  O   UNL     1       9.316   6.404  22.999  0.00  0.00    -0.238 OA
ATOM     23  H   UNL     1       8.533   6.046  22.536  0.00  0.00    +0.246 HD
ENDBRANCH  19  22
ENDBRANCH  17  19
ENDBRANCH  14  17
ENDBRANCH  10  11
ENDBRANCH   1  10
BRANCH   1  24
ATOM     24  C   UNL     1       7.043  -2.031  23.452  0.00  0.00    +0.065 C 
BRANCH  24  25
ATOM     25  C   UNL     1       5.802  -2.442  24.216  0.00  0.00    -0.046 A 
ATOM     26  C   UNL     1       5.432  -1.777  25.396  0.00  0.00    +0.003 A 
ATOM     27  C   UNL     1       4.310  -2.182  26.122  0.00  0.00    +0.000 A 
ATOM     28  C   UNL     1       3.549  -3.263  25.684  0.00  0.00    +0.000 A 
ATOM     29  C   UNL     1       3.913  -3.940  24.522  0.00  0.00    +0.000 A 
ATOM     30  C   UNL     1       5.031  -3.533  23.791  0.00  0.00    +0.003 A 
ENDBRANCH  24  25
ENDBRANCH   1  24
TORSDOF 11
ENDMDL
MODEL 6
REMARK VINA RESULT:      -6.6      1.775      3.097
REMARK  Name = 
REMARK  13 active torsions:
REMARK  status: ('A' for Active; 'I' for Inactive)
REMARK    1  A    between atoms: C_1  and  O_2
REMARK    2  A    between atoms: O_2  and  C_3
REMARK    3  A    between atoms: C_3  and  C_5
REMARK    4  A    between atoms: C_5  and  C_6
REMARK    5  A    between atoms: C_5  and  C_13
REMARK    6  A    between atoms: C_5  and  C_25
REMARK    7  A    between atoms: C_6  and  C_7
REMARK    8  A    between atoms: C_13  and  C_14
REMARK    9  A    between atoms: C_17  and  N_18
REMARK   10  A    between atoms: N_18  and  S_19
REMARK   11  A    between atoms: S_19  and  O_20
REMARK   12  A    between atoms: C_25  and  O_27
REMARK   13  A    between atoms: O_27  and  C_28
REMARK                            x       y       z     vdW  Elec       q    Type
REMARK                         _______ _______ _______ _____ _____    ______ ____
ROOT
ATOM      1  C   UNL     1       8.590  -1.797  23.798  0.00  0.00    +0.172 C 
ENDROOT
BRANCH   1   2
ATOM      2  C   UNL     1       9.823  -0.958  23.498  0.00  0.00    +0.325 C 
ATOM      3  O   UNL     1      10.232  -0.680  22.376  0.00  0.00    -0.250 OA
BRANCH   2   5
ATOM      4  C   UNL     1      11.129   0.740  24.456  0.00  0.00    +0.280 C 
ATOM      5  O   UNL     1      10.396  -0.476  24.640  0.00  0.00    -0.467 OA
ENDBRANCH   2   5
ENDBRANCH   1   2
BRANCH   1   6
ATOM      6  C   UNL     1       8.858  -2.877  24.839  0.00  0.00    +0.325 C 
ATOM      7  O   UNL     1       8.216  -2.990  25.879  0.00  0.00    -0.250 OA
BRANCH   6   8
ATOM      8  O   UNL     1       9.820  -3.759  24.450  0.00  0.00    -0.467 OA
ATOM      9  C   UNL     1       9.843  -4.979  25.195  0.00  0.00    +0.280 C 
ENDBRANCH   6   8
ENDBRANCH   1   6
BRANCH   1  10
ATOM     10  C   UNL     1       8.033  -2.514  22.527  0.00  0.00    +0.065 C 
BRANCH  10  11
ATOM     11  C   UNL     1       6.976  -3.584  22.776  0.00  0.00    -0.046 A 
ATOM     12  C   UNL     1       5.688  -3.225  23.199  0.00  0.00    +0.005 A 
ATOM     13  C   UNL     1       4.649  -4.157  23.213  0.00  0.00    +0.025 A 
ATOM     14  C   UNL     1       4.901  -5.473  22.843  0.00  0.00    +0.050 A 
ATOM     15  C   UNL     1       6.202  -5.879  22.557  0.00  0.00    +0.025 A 
ATOM     16  C   UNL     1       7.237  -4.937  22.517  0.00  0.00    +0.005 A 
BRANCH  14  17
ATOM     17  N   UNL     1       3.841  -6.421  22.738  0.00  0.00    -0.197 N 
ATOM     18  H   UNL     1       3.052  -6.088  22.183  0.00  0.00    +0.176 HD
BRANCH  17  19
ATOM     19  S   UNL     1       3.237  -7.067  24.165  0.00  0.00    +0.164 S 
ATOM     20  O   UNL     1       2.273  -6.122  24.677  0.00  0.00    -0.127 OA
ATOM     21  O   UNL     1       4.343  -7.528  24.970  0.00  0.00    -0.127 OA
BRANCH  19  22
ATOM     22  O   UNL     1       2.454  -8.383  23.685  0.00  0.00    -0.238 OA
ATOM     23  H   UNL     1       2.055  -8.787  24.482  0.00  0.00    +0.246 HD
ENDBRANCH  19  22
ENDBRANCH  17  19
ENDBRANCH  14  17
ENDBRANCH  10  11
ENDBRANCH   1  10
BRANCH   1  24
ATOM     24  C   UNL     1       7.520  -0.852  24.430  0.00  0.00    +0.065 C 
BRANCH  24  25
ATOM     25  C   UNL     1       7.412   0.560  23.895  0.00  0.00    -0.046 A 
ATOM     26  C   UNL     1       7.103   0.794  22.545  0.00  0.00    +0.003 A 
ATOM     27  C   UNL     1       7.043   2.096  22.043  0.00  0.00    +0.000 A 
ATOM     28  C   UNL     1       7.301   3.179  22.879  0.00  0.00    +0.000 A 
ATOM     29  C   UNL     1       7.621   2.960  24.218  0.00  0.00    +0.000 A 
ATOM     30  C   UNL     1       7.676   1.660  24.723  0.00  0.00    +0.003 A 
ENDBRANCH  24  25
ENDBRANCH   1  24
TORSDOF 11
ENDMDL
MODEL 7
REMARK VINA RESULT:      -6.5      4.349      7.580
REMARK  Name = 
REMARK  13 active torsions:
REMARK  status: ('A' for Active; 'I' for Inactive)
REMARK    1  A    between atoms: C_1  and  O_2
REMARK    2  A    between atoms: O_2  and  C_3
REMARK    3  A    between atoms: C_3  and  C_5
REMARK    4  A    between atoms: C_5  and  C_6
REMARK    5  A    between atoms: C_5  and  C_13
REMARK    6  A    between atoms: C_5  and  C_25
REMARK    7  A    between atoms: C_6  and  C_7
REMARK    8  A    between atoms: C_13  and  C_14
REMARK    9  A    between atoms: C_17  and  N_18
REMARK   10  A    between atoms: N_18  and  S_19
REMARK   11  A    between atoms: S_19  and  O_20
REMARK   12  A    between atoms: C_25  and  O_27
REMARK   13  A    between atoms: O_27  and  C_28
REMARK                            x       y       z     vdW  Elec       q    Type
REMARK                         _______ _______ _______ _____ _____    ______ ____
ROOT
ATOM      1  C   UNL     1       8.519  -2.103  23.927  0.00  0.00    +0.172 C 
ENDROOT
BRANCH   1   2
ATOM      2  C   UNL     1       8.827  -3.330  24.772  0.00  0.00    +0.325 C 
ATOM      3  O   UNL     1       9.716  -4.141  24.542  0.00  0.00    -0.250 OA
BRANCH   2   5
ATOM      4  C   UNL     1       7.446  -4.679  26.107  0.00  0.00    +0.280 C 
ATOM      5  O   UNL     1       8.030  -3.392  25.881  0.00  0.00    -0.467 OA
ENDBRANCH   2   5
ENDBRANCH   1   2
BRANCH   1   6
ATOM      6  C   UNL     1       9.770  -1.302  23.583  0.00  0.00    +0.325 C 
ATOM      7  O   UNL     1      10.561  -0.887  24.425  0.00  0.00    -0.250 OA
BRANCH   6   8
ATOM      8  O   UNL     1       9.967  -1.180  22.242  0.00  0.00    -0.467 OA
ATOM      9  C   UNL     1      10.189   0.160  21.794  0.00  0.00    +0.280 C 
ENDBRANCH   6   8
ENDBRANCH   1   6
BRANCH   1  10
ATOM     10  C   UNL     1       7.530  -1.124  24.635  0.00  0.00    +0.065 C 
BRANCH  10  11
ATOM     11  C   UNL     1       7.477   0.291  24.073  0.00  0.00    -0.046 A 
ATOM     12  C   UNL     1       8.151   1.338  24.719  0.00  0.00    +0.005 A 
ATOM     13  C   UNL     1       8.305   2.582  24.105  0.00  0.00    +0.025 A 
ATOM     14  C   UNL     1       7.746   2.805  22.852  0.00  0.00    +0.050 A 
ATOM     15  C   UNL     1       6.954   1.825  22.258  0.00  0.00    +0.025 A 
ATOM     16  C   UNL     1       6.825   0.569  22.862  0.00  0.00    +0.005 A 
BRANCH  14  17
ATOM     17  N   UNL     1       7.980   4.025  22.151  0.00  0.00    -0.197 N 
ATOM     18  H   UNL     1       8.968   4.276  22.094  0.00  0.00    +0.176 HD
BRANCH  17  19
ATOM     19  S   UNL     1       7.126   5.380  22.651  0.00  0.00    +0.164 S 
ATOM     20  O   UNL     1       7.895   5.993  23.709  0.00  0.00    -0.127 OA
ATOM     21  O   UNL     1       5.743   5.014  22.839  0.00  0.00    -0.127 OA
BRANCH  19  22
ATOM     22  O   UNL     1       7.163   6.347  21.370  0.00  0.00    -0.238 OA
ATOM     23  H   UNL     1       6.261   6.358  20.992  0.00  0.00    +0.246 HD
ENDBRANCH  19  22
ENDBRANCH  17  19
ENDBRANCH  14  17
ENDBRANCH  10  11
ENDBRANCH   1  10
BRANCH   1  24
ATOM     24  C   UNL     1       7.945  -2.602  22.564  0.00  0.00    +0.065 C 
BRANCH  24  25
ATOM     25  C   UNL     1       6.863  -3.660  22.592  0.00  0.00    -0.046 A 
ATOM     26  C   UNL     1       5.572  -3.355  23.053  0.00  0.00    +0.003 A 
ATOM     27  C   UNL     1       4.585  -4.341  23.116  0.00  0.00    +0.000 A 
ATOM     28  C   UNL     1       4.877  -5.646  22.729  0.00  0.00    +0.000 A 
ATOM     29  C   UNL     1       6.157  -5.965  22.281  0.00  0.00    +0.000 A 
ATOM     30  C   UNL     1       7.144  -4.980  22.212  0.00  0.00    +0.003 A 
ENDBRANCH  24  25
ENDBRANCH   1  24
TORSDOF 11
ENDMDL
MODEL 8
REMARK VINA RESULT:      -6.3      4.029      7.527
REMARK  Name = 
REMARK  13 active torsions:
REMARK  status: ('A' for Active; 'I' for Inactive)
REMARK    1  A    between atoms: C_1  and  O_2
REMARK    2  A    between atoms: O_2  and  C_3
REMARK    3  A    between atoms: C_3  and  C_5
REMARK    4  A    between atoms: C_5  and  C_6
REMARK    5  A    between atoms: C_5  and  C_13
REMARK    6  A    between atoms: C_5  and  C_25
REMARK    7  A    between atoms: C_6  and  C_7
REMARK    8  A    between atoms: C_13  and  C_14
REMARK    9  A    between atoms: C_17  and  N_18
REMARK   10  A    between atoms: N_18  and  S_19
REMARK   11  A    between atoms: S_19  and  O_20
REMARK   12  A    between atoms: C_25  and  O_27
REMARK   13  A    between atoms: O_27  and  C_28
REMARK                            x       y       z     vdW  Elec       q    Type
REMARK                         _______ _______ _______ _____ _____    ______ ____
ROOT
ATOM      1  C   UNL     1       6.255  -2.942  23.970  0.00  0.00    +0.172 C 
ENDROOT
BRANCH   1   2
ATOM      2  C   UNL     1       6.162  -3.698  22.652  0.00  0.00    +0.325 C 
ATOM      3  O   UNL     1       5.257  -3.583  21.835  0.00  0.00    -0.250 OA
BRANCH   2   5
ATOM      4  C   UNL     1       6.954  -5.792  21.950  0.00  0.00    +0.280 C 
ATOM      5  O   UNL     1       7.261  -4.484  22.442  0.00  0.00    -0.467 OA
ENDBRANCH   2   5
ENDBRANCH   1   2
BRANCH   1   6
ATOM      6  C   UNL     1       6.164  -1.432  23.785  0.00  0.00    +0.325 C 
ATOM      7  O   UNL     1       6.629  -0.839  22.816  0.00  0.00    -0.250 OA
BRANCH   6   8
ATOM      8  O   UNL     1       5.430  -0.824  24.757  0.00  0.00    -0.467 OA
ATOM      9  C   UNL     1       5.679   0.577  24.900  0.00  0.00    +0.280 C 
ENDBRANCH   6   8
ENDBRANCH   1   6
BRANCH   1  10
ATOM     10  C   UNL     1       7.589  -3.230  24.730  0.00  0.00    +0.065 C 
BRANCH  10  11
ATOM     11  C   UNL     1       8.654  -2.144  24.639  0.00  0.00    -0.046 A 
ATOM     12  C   UNL     1       9.464  -2.037  23.500  0.00  0.00    +0.005 A 
ATOM     13  C   UNL     1      10.281  -0.923  23.299  0.00  0.00    +0.025 A 
ATOM     14  C   UNL     1      10.327   0.078  24.262  0.00  0.00    +0.050 A 
ATOM     15  C   UNL     1       9.639  -0.079  25.464  0.00  0.00    +0.025 A 
ATOM     16  C   UNL     1       8.800  -1.183  25.650  0.00  0.00    +0.005 A 
BRANCH  14  17
ATOM     17  N   UNL     1      11.063   1.279  24.038  0.00  0.00    -0.197 N 
ATOM     18  H   UNL     1      11.498   1.651  24.883  0.00  0.00    +0.176 HD
BRANCH  17  19
ATOM     19  S   UNL     1      10.270   2.539  23.262  0.00  0.00    +0.164 S 
ATOM     20  O   UNL     1      11.067   3.725  23.472  0.00  0.00    -0.127 OA
ATOM     21  O   UNL     1       8.872   2.496  23.618  0.00  0.00    -0.127 OA
BRANCH  19  22
ATOM     22  O   UNL     1      10.350   2.140  21.710  0.00  0.00    -0.238 OA
ATOM     23  H   UNL     1      11.037   2.705  21.303  0.00  0.00    +0.246 HD
ENDBRANCH  19  22
ENDBRANCH  17  19
ENDBRANCH  14  17
ENDBRANCH  10  11
ENDBRANCH   1  10
BRANCH   1  24
ATOM     24  C   UNL     1       5.015  -3.342  24.830  0.00  0.00    +0.065 C 
BRANCH  24  25
ATOM     25  C   UNL     1       5.211  -4.363  25.931  0.00  0.00    -0.046 A 
ATOM     26  C   UNL     1       5.055  -5.735  25.674  0.00  0.00    +0.003 A 
ATOM     27  C   UNL     1       5.197  -6.673  26.699  0.00  0.00    +0.000 A 
ATOM     28  C   UNL     1       5.486  -6.253  27.994  0.00  0.00    +0.000 A 
ATOM     29  C   UNL     1       5.631  -4.894  28.265  0.00  0.00    +0.000 A 
ATOM     30  C   UNL     1       5.495  -3.954  27.242  0.00  0.00    +0.003 A 
ENDBRANCH  24  25
ENDBRANCH   1  24
TORSDOF 11
ENDMDL
MODEL 9
REMARK VINA RESULT:      -6.3      3.709      7.050
REMARK  Name = 
REMARK  13 active torsions:
REMARK  status: ('A' for Active; 'I' for Inactive)
REMARK    1  A    between atoms: C_1  and  O_2
REMARK    2  A    between atoms: O_2  and  C_3
REMARK    3  A    between atoms: C_3  and  C_5
REMARK    4  A    between atoms: C_5  and  C_6
REMARK    5  A    between atoms: C_5  and  C_13
REMARK    6  A    between atoms: C_5  and  C_25
REMARK    7  A    between atoms: C_6  and  C_7
REMARK    8  A    between atoms: C_13  and  C_14
REMARK    9  A    between atoms: C_17  and  N_18
REMARK   10  A    between atoms: N_18  and  S_19
REMARK   11  A    between atoms: S_19  and  O_20
REMARK   12  A    between atoms: C_25  and  O_27
REMARK   13  A    between atoms: O_27  and  C_28
REMARK                            x       y       z     vdW  Elec       q    Type
REMARK                         _______ _______ _______ _____ _____    ______ ____
ROOT
ATOM      1  C   UNL     1       6.902  -4.700  24.612  0.00  0.00    +0.172 C 
ENDROOT
BRANCH   1   2
ATOM      2  C   UNL     1       6.050  -5.778  25.266  0.00  0.00    +0.325 C 
ATOM      3  O   UNL     1       6.106  -6.103  26.446  0.00  0.00    -0.250 OA
BRANCH   2   5
ATOM      4  C   UNL     1       4.117  -7.084  25.013  0.00  0.00    +0.280 C 
ATOM      5  O   UNL     1       5.144  -6.307  24.390  0.00  0.00    -0.467 OA
ENDBRANCH   2   5
ENDBRANCH   1   2
BRANCH   1   6
ATOM      6  C   UNL     1       7.437  -5.126  23.249  0.00  0.00    +0.325 C 
ATOM      7  O   UNL     1       8.312  -5.974  23.100  0.00  0.00    -0.250 OA
BRANCH   6   8
ATOM      8  O   UNL     1       6.777  -4.536  22.215  0.00  0.00    -0.467 OA
ATOM      9  C   UNL     1       6.356  -5.438  21.188  0.00  0.00    +0.280 C 
ENDBRANCH   6   8
ENDBRANCH   1   6
BRANCH   1  10
ATOM     10  C   UNL     1       8.135  -4.304  25.484  0.00  0.00    +0.065 C 
BRANCH  10  11
ATOM     11  C   UNL     1       8.842  -3.013  25.091  0.00  0.00    -0.046 A 
ATOM     12  C   UNL     1       9.704  -2.983  23.985  0.00  0.00    +0.005 A 
ATOM     13  C   UNL     1      10.178  -1.774  23.474  0.00  0.00    +0.025 A 
ATOM     14  C   UNL     1       9.827  -0.580  24.094  0.00  0.00    +0.050 A 
ATOM     15  C   UNL     1       9.089  -0.600  25.275  0.00  0.00    +0.025 A 
ATOM     16  C   UNL     1       8.591  -1.811  25.770  0.00  0.00    +0.005 A 
BRANCH  14  17
ATOM     17  N   UNL     1      10.201   0.676  23.533  0.00  0.00    -0.197 N 
ATOM     18  H   UNL     1      10.669   1.293  24.197  0.00  0.00    +0.176 HD
BRANCH  17  19
ATOM     19  S   UNL     1       9.008   1.561  22.751  0.00  0.00    +0.164 S 
ATOM     20  O   UNL     1       8.619   2.622  23.651  0.00  0.00    -0.127 OA
ATOM     21  O   UNL     1       8.039   0.646  22.199  0.00  0.00    -0.127 OA
BRANCH  19  22
ATOM     22  O   UNL     1       9.775   2.211  21.500  0.00  0.00    -0.238 OA
ATOM     23  H   UNL     1       9.206   2.080  20.715  0.00  0.00    +0.246 HD
ENDBRANCH  19  22
ENDBRANCH  17  19
ENDBRANCH  14  17
ENDBRANCH  10  11
ENDBRANCH   1  10
BRANCH   1  24
ATOM     24  C   UNL     1       5.980  -3.470  24.342  0.00  0.00    +0.065 C 
BRANCH  24  25
ATOM     25  C   UNL     1       4.927  -3.130  25.375  0.00  0.00    -0.046 A 
ATOM     26  C   UNL     1       5.294  -2.633  26.637  0.00  0.00    +0.003 A 
ATOM     27  C   UNL     1       4.325  -2.356  27.604  0.00  0.00    +0.000 A 
ATOM     28  C   UNL     1       2.979  -2.582  27.328  0.00  0.00    +0.000 A 
ATOM     29  C   UNL     1       2.603  -3.086  26.084  0.00  0.00    +0.000 A 
ATOM     30  C   UNL     1       3.569  -3.358  25.114  0.00  0.00    +0.003 A 
ENDBRANCH  24  25
ENDBRANCH   1  24
TORSDOF 11
ENDMDL
