MODEL 1
REMARK VINA RESULT:      -7.1      0.000      0.000
REMARK  Name = 
REMARK  12 active torsions:
REMARK  status: ('A' for Active; 'I' for Inactive)
REMARK    1  A    between atoms: C_1  and  C_2
REMARK    2  A    between atoms: N_4  and  C_5
REMARK    3  A    between atoms: C_5  and  C_7
REMARK    4  A    between atoms: C_5  and  C_19
REMARK    5  A    between atoms: C_7  and  C_8
REMARK    6  A    between atoms: C_11  and  C_12
REMARK    7  A    between atoms: C_12  and  O_13
REMARK    8  A    between atoms: C_15  and  C_16
REMARK    9  A    between atoms: N_21  and  C_22
REMARK   10  A    between atoms: N_28  and  C_29
REMARK   11  A    between atoms: C_29  and  C_30
REMARK   12  A    between atoms: C_33  and  C_36
REMARK                            x       y       z     vdW  Elec       q    Type
REMARK                         _______ _______ _______ _____ _____    ______ ____
ROOT
ATOM      1  C   UNL     1       6.151  -0.313  24.988  0.00  0.00    +0.234 C 
ATOM      2  N   UNL     1       7.382  -0.756  24.631  0.00  0.00    -0.302 N 
ATOM      3  H   UNL     1       7.612  -0.410  23.707  0.00  0.00    +0.150 HD
ATOM      4  O   UNL     1       5.515   0.284  24.109  0.00  0.00    -0.274 OA
ENDROOT
BRANCH   2   5
ATOM      5  C   UNL     1       8.499  -1.500  25.253  0.00  0.00    +0.159 C 
ATOM      6  C   UNL     1       9.206  -2.346  24.181  0.00  0.00    +0.236 C 
ATOM      7  O   UNL     1       9.945  -3.284  24.462  0.00  0.00    -0.274 OA
ATOM      8  N   UNL     1       9.196  -1.703  22.945  0.00  0.00    -0.296 N 
ATOM      9  C   UNL     1      10.342  -0.864  22.610  0.00  0.00    +0.108 C 
ATOM     10  C   UNL     1      10.943   0.011  23.743  0.00  0.00    +0.019 C 
ATOM     11  C   UNL     1      10.068   0.493  24.912  0.00  0.00    +0.004 C 
ATOM     12  C   UNL     1       9.572  -0.602  25.863  0.00  0.00    +0.032 C 
BRANCH   8  13
ATOM     13  C   UNL     1       8.355  -2.267  21.869  0.00  0.00    +0.143 C 
BRANCH  13  14
ATOM     14  C   UNL     1       7.234  -3.190  22.271  0.00  0.00    -0.030 A 
ATOM     15  C   UNL     1       7.480  -4.531  22.587  0.00  0.00    +0.006 A 
ATOM     16  C   UNL     1       6.462  -5.336  23.116  0.00  0.00    +0.009 A 
ATOM     17  C   UNL     1       5.185  -4.812  23.379  0.00  0.00    -0.018 A 
ATOM     18  C   UNL     1       4.905  -3.545  22.848  0.00  0.00    +0.009 A 
ATOM     19  C   UNL     1       5.908  -2.755  22.284  0.00  0.00    +0.006 A 
BRANCH  17  20
ATOM     20  C   UNL     1       4.248  -5.460  24.332  0.00  0.00    -0.018 A 
ATOM     21  C   UNL     1       4.569  -6.707  24.907  0.00  0.00    +0.008 A 
ATOM     22  C   UNL     1       3.829  -7.244  25.964  0.00  0.00    +0.001 A 
ATOM     23  C   UNL     1       2.744  -6.544  26.477  0.00  0.00    +0.000 A 
ATOM     24  C   UNL     1       2.381  -5.326  25.911  0.00  0.00    +0.001 A 
ATOM     25  C   UNL     1       3.115  -4.800  24.841  0.00  0.00    +0.008 A 
ENDBRANCH  17  20
ENDBRANCH  13  14
ENDBRANCH   8  13
ENDBRANCH   2   5
BRANCH   1  26
ATOM     26  C   UNL     1       5.590  -0.399  26.420  0.00  0.00    +0.163 C 
BRANCH  26  29
ATOM     27  C   UNL     1       5.394   3.064  28.045  0.00  0.00    +0.109 C 
ATOM     28  C   UNL     1       5.993   1.780  27.545  0.00  0.00    +0.211 C 
ATOM     29  N   UNL     1       5.139   0.926  26.894  0.00  0.00    -0.304 N 
ATOM     30  H   UNL     1       4.260   1.273  26.519  0.00  0.00    +0.149 HD
ATOM     31  O   UNL     1       7.174   1.518  27.742  0.00  0.00    -0.276 OA
ENDBRANCH  26  29
BRANCH  26  32
ATOM     32  C   UNL     1       4.539  -1.484  26.657  0.00  0.00    +0.067 C 
BRANCH  32  33
ATOM     33  C   UNL     1       4.838  -2.791  27.359  0.00  0.00    -0.044 A 
ATOM     34  C   UNL     1       5.944  -3.498  26.860  0.00  0.00    +0.015 A 
ATOM     35  C   UNL     1       6.390  -4.710  27.409  0.00  0.00    +0.028 A 
ATOM     36  C   UNL     1       5.704  -5.283  28.494  0.00  0.00    +0.069 A 
ATOM     37  C   UNL     1       4.578  -4.566  28.984  0.00  0.00    +0.016 A 
ATOM     38  C   UNL     1       4.150  -3.344  28.432  0.00  0.00    +0.004 A 
BRANCH  35  39
ATOM     39  C   UNL     1       7.598  -5.230  26.742  0.00  0.00    +0.259 C 
ATOM     40  O   UNL     1       8.731  -4.892  27.054  0.00  0.00    -0.296 OA
ENDBRANCH  35  39
BRANCH  36  41
ATOM     41  C   UNL     1       5.969  -6.581  29.206  0.00  0.00    +0.337 C 
ATOM     42  O   UNL     1       6.443  -6.576  30.336  0.00  0.00    -0.245 OA
BRANCH  41  43
ATOM     43  O   UNL     1       5.693  -7.750  28.610  0.00  0.00    -0.477 OA
ATOM     44  H   UNL     1       5.592  -8.550  29.176  0.00  0.00    +0.295 HD
ENDBRANCH  41  43
ENDBRANCH  36  41
ENDBRANCH  32  33
ENDBRANCH  26  32
ENDBRANCH   1  26
TORSDOF 11
ENDMDL
MODEL 2
REMARK VINA RESULT:      -7.0      3.114      7.878
REMARK  Name = 
REMARK  12 active torsions:
REMARK  status: ('A' for Active; 'I' for Inactive)
REMARK    1  A    between atoms: C_1  and  C_2
REMARK    2  A    between atoms: N_4  and  C_5
REMARK    3  A    between atoms: C_5  and  C_7
REMARK    4  A    between atoms: C_5  and  C_19
REMARK    5  A    between atoms: C_7  and  C_8
REMARK    6  A    between atoms: C_11  and  C_12
REMARK    7  A    between atoms: C_12  and  O_13
REMARK    8  A    between atoms: C_15  and  C_16
REMARK    9  A    between atoms: N_21  and  C_22
REMARK   10  A    between atoms: N_28  and  C_29
REMARK   11  A    between atoms: C_29  and  C_30
REMARK   12  A    between atoms: C_33  and  C_36
REMARK                            x       y       z     vdW  Elec       q    Type
REMARK                         _______ _______ _______ _____ _____    ______ ____
ROOT
ATOM      1  C   UNL     1       6.938  -1.427  26.171  0.00  0.00    +0.234 C 
ATOM      2  N   UNL     1       6.220  -2.459  25.661  0.00  0.00    -0.302 N 
ATOM      3  H   UNL     1       6.650  -3.336  25.931  0.00  0.00    +0.150 HD
ATOM      4  O   UNL     1       8.004  -1.730  26.723  0.00  0.00    -0.274 OA
ENDROOT
BRANCH   2   5
ATOM      5  C   UNL     1       4.950  -2.651  24.928  0.00  0.00    +0.159 C 
ATOM      6  C   UNL     1       5.035  -3.939  24.092  0.00  0.00    +0.236 C 
ATOM      7  O   UNL     1       4.271  -4.172  23.161  0.00  0.00    -0.274 OA
ATOM      8  N   UNL     1       5.799  -4.908  24.738  0.00  0.00    -0.296 N 
ATOM      9  C   UNL     1       5.100  -5.865  25.590  0.00  0.00    +0.108 C 
ATOM     10  C   UNL     1       3.939  -5.324  26.468  0.00  0.00    +0.019 C 
ATOM     11  C   UNL     1       3.926  -3.860  26.938  0.00  0.00    +0.004 C 
ATOM     12  C   UNL     1       3.733  -2.812  25.836  0.00  0.00    +0.032 C 
BRANCH   8  13
ATOM     13  C   UNL     1       7.117  -5.256  24.167  0.00  0.00    +0.143 C 
BRANCH  13  14
ATOM     14  C   UNL     1       7.990  -4.125  23.688  0.00  0.00    -0.030 A 
ATOM     15  C   UNL     1       7.653  -3.383  22.549  0.00  0.00    +0.006 A 
ATOM     16  C   UNL     1       8.379  -2.235  22.207  0.00  0.00    +0.009 A 
ATOM     17  C   UNL     1       9.433  -1.774  23.014  0.00  0.00    -0.018 A 
ATOM     18  C   UNL     1       9.888  -2.650  24.010  0.00  0.00    +0.009 A 
ATOM     19  C   UNL     1       9.191  -3.816  24.328  0.00  0.00    +0.006 A 
BRANCH  17  20
ATOM     20  C   UNL     1       9.911  -0.369  22.962  0.00  0.00    -0.018 A 
ATOM     21  C   UNL     1       9.572   0.456  21.870  0.00  0.00    +0.008 A 
ATOM     22  C   UNL     1       9.811   1.832  21.883  0.00  0.00    +0.001 A 
ATOM     23  C   UNL     1      10.398   2.424  22.995  0.00  0.00    +0.000 A 
ATOM     24  C   UNL     1      10.774   1.634  24.076  0.00  0.00    +0.001 A 
ATOM     25  C   UNL     1      10.548   0.251  24.051  0.00  0.00    +0.008 A 
ENDBRANCH  17  20
ENDBRANCH  13  14
ENDBRANCH   8  13
ENDBRANCH   2   5
BRANCH   1  26
ATOM     26  C   UNL     1       6.437   0.029  26.209  0.00  0.00    +0.163 C 
BRANCH  26  29
ATOM     27  C   UNL     1       3.616   0.936  28.635  0.00  0.00    +0.109 C 
ATOM     28  C   UNL     1       4.306   0.632  27.336  0.00  0.00    +0.211 C 
ATOM     29  N   UNL     1       5.630   0.282  27.421  0.00  0.00    -0.304 N 
ATOM     30  H   UNL     1       6.016  -0.039  28.305  0.00  0.00    +0.149 HD
ATOM     31  O   UNL     1       3.708   0.722  26.270  0.00  0.00    -0.276 OA
ENDBRANCH  26  29
BRANCH  26  32
ATOM     32  C   UNL     1       7.504   1.104  25.994  0.00  0.00    +0.067 C 
BRANCH  32  33
ATOM     33  C   UNL     1       7.327   2.274  25.051  0.00  0.00    -0.044 A 
ATOM     34  C   UNL     1       7.895   3.483  25.485  0.00  0.00    +0.015 A 
ATOM     35  C   UNL     1       7.860   4.662  24.726  0.00  0.00    +0.028 A 
ATOM     36  C   UNL     1       7.211   4.675  23.479  0.00  0.00    +0.069 A 
ATOM     37  C   UNL     1       6.627   3.449  23.054  0.00  0.00    +0.016 A 
ATOM     38  C   UNL     1       6.682   2.269  23.821  0.00  0.00    +0.004 A 
BRANCH  35  39
ATOM     39  C   UNL     1       8.569   5.782  25.374  0.00  0.00    +0.259 C 
ATOM     40  O   UNL     1       8.755   5.845  26.580  0.00  0.00    -0.296 OA
ENDBRANCH  35  39
BRANCH  36  41
ATOM     41  C   UNL     1       7.008   5.820  22.526  0.00  0.00    +0.337 C 
ATOM     42  O   UNL     1       6.032   6.552  22.645  0.00  0.00    -0.245 OA
BRANCH  41  43
ATOM     43  O   UNL     1       7.887   6.045  21.538  0.00  0.00    -0.477 OA
ATOM     44  H   UNL     1       8.192   6.969  21.387  0.00  0.00    +0.295 HD
ENDBRANCH  41  43
ENDBRANCH  36  41
ENDBRANCH  32  33
ENDBRANCH  26  32
ENDBRANCH   1  26
TORSDOF 11
ENDMDL
MODEL 3
REMARK VINA RESULT:      -6.4      2.647      7.495
REMARK  Name = 
REMARK  12 active torsions:
REMARK  status: ('A' for Active; 'I' for Inactive)
REMARK    1  A    between atoms: C_1  and  C_2
REMARK    2  A    between atoms: N_4  and  C_5
REMARK    3  A    between atoms: C_5  and  C_7
REMARK    4  A    between atoms: C_5  and  C_19
REMARK    5  A    between atoms: C_7  and  C_8
REMARK    6  A    between atoms: C_11  and  C_12
REMARK    7  A    between atoms: C_12  and  O_13
REMARK    8  A    between atoms: C_15  and  C_16
REMARK    9  A    between atoms: N_21  and  C_22
REMARK   10  A    between atoms: N_28  and  C_29
REMARK   11  A    between atoms: C_29  and  C_30
REMARK   12  A    between atoms: C_33  and  C_36
REMARK                            x       y       z     vdW  Elec       q    Type
REMARK                         _______ _______ _______ _____ _____    ______ ____
ROOT
ATOM      1  C   UNL     1       5.475  -2.955  26.439  0.00  0.00    +0.234 C 
ATOM      2  N   UNL     1       5.775  -3.457  25.216  0.00  0.00    -0.302 N 
ATOM      3  H   UNL     1       6.119  -4.406  25.314  0.00  0.00    +0.150 HD
ATOM      4  O   UNL     1       5.791  -3.661  27.406  0.00  0.00    -0.274 OA
ENDROOT
BRANCH   2   5
ATOM      5  C   UNL     1       5.639  -3.046  23.801  0.00  0.00    +0.159 C 
ATOM      6  C   UNL     1       7.018  -3.097  23.122  0.00  0.00    +0.236 C 
ATOM      7  O   UNL     1       7.255  -2.517  22.067  0.00  0.00    -0.274 OA
ATOM      8  N   UNL     1       7.794  -4.133  23.636  0.00  0.00    -0.296 N 
ATOM      9  C   UNL     1       7.744  -5.420  22.951  0.00  0.00    +0.108 C 
ATOM     10  C   UNL     1       6.362  -5.899  22.431  0.00  0.00    +0.019 C 
ATOM     11  C   UNL     1       5.064  -5.446  23.119  0.00  0.00    +0.004 C 
ATOM     12  C   UNL     1       4.727  -3.956  22.981  0.00  0.00    +0.032 C 
BRANCH   8  13
ATOM     13  C   UNL     1       8.968  -3.784  24.465  0.00  0.00    +0.143 C 
BRANCH  13  14
ATOM     14  C   UNL     1       9.361  -2.331  24.541  0.00  0.00    -0.030 A 
ATOM     15  C   UNL     1      10.126  -1.735  23.531  0.00  0.00    +0.006 A 
ATOM     16  C   UNL     1      10.347  -0.352  23.528  0.00  0.00    +0.009 A 
ATOM     17  C   UNL     1       9.777   0.477  24.510  0.00  0.00    -0.018 A 
ATOM     18  C   UNL     1       9.212  -0.165  25.621  0.00  0.00    +0.009 A 
ATOM     19  C   UNL     1       9.026  -1.548  25.645  0.00  0.00    +0.006 A 
BRANCH  17  20
ATOM     20  C   UNL     1       9.594   1.936  24.302  0.00  0.00    -0.018 A 
ATOM     21  C   UNL     1       8.619   2.641  25.035  0.00  0.00    +0.008 A 
ATOM     22  C   UNL     1       8.560   4.037  25.034  0.00  0.00    +0.001 A 
ATOM     23  C   UNL     1       9.483   4.769  24.297  0.00  0.00    +0.000 A 
ATOM     24  C   UNL     1      10.439   4.103  23.536  0.00  0.00    +0.001 A 
ATOM     25  C   UNL     1      10.482   2.703  23.527  0.00  0.00    +0.008 A 
ENDBRANCH  17  20
ENDBRANCH  13  14
ENDBRANCH   8  13
ENDBRANCH   2   5
BRANCH   1  26
ATOM     26  C   UNL     1       4.670  -1.662  26.660  0.00  0.00    +0.163 C 
BRANCH  26  29
ATOM     27  C   UNL     1       1.643  -1.459  28.999  0.00  0.00    +0.109 C 
ATOM     28  C   UNL     1       2.459  -1.325  27.745  0.00  0.00    +0.211 C 
ATOM     29  N   UNL     1       3.745  -1.801  27.804  0.00  0.00    -0.304 N 
ATOM     30  H   UNL     1       4.011  -2.458  28.533  0.00  0.00    +0.149 HD
ATOM     31  O   UNL     1       1.991  -0.794  26.744  0.00  0.00    -0.276 OA
ENDBRANCH  26  29
BRANCH  26  32
ATOM     32  C   UNL     1       5.491  -0.373  26.737  0.00  0.00    +0.067 C 
BRANCH  32  33
ATOM     33  C   UNL     1       5.370   0.750  25.730  0.00  0.00    -0.044 A 
ATOM     34  C   UNL     1       6.032   0.534  24.511  0.00  0.00    +0.015 A 
ATOM     35  C   UNL     1       6.000   1.449  23.448  0.00  0.00    +0.028 A 
ATOM     36  C   UNL     1       5.302   2.661  23.588  0.00  0.00    +0.069 A 
ATOM     37  C   UNL     1       4.645   2.877  24.831  0.00  0.00    +0.016 A 
ATOM     38  C   UNL     1       4.675   1.943  25.884  0.00  0.00    +0.004 A 
BRANCH  35  39
ATOM     39  C   UNL     1       6.729   0.971  22.259  0.00  0.00    +0.259 C 
ATOM     40  O   UNL     1       7.618   1.614  21.718  0.00  0.00    -0.296 OA
ENDBRANCH  35  39
BRANCH  36  41
ATOM     41  C   UNL     1       5.171   3.799  22.613  0.00  0.00    +0.337 C 
ATOM     42  O   UNL     1       4.088   4.352  22.457  0.00  0.00    -0.245 OA
BRANCH  41  43
ATOM     43  O   UNL     1       6.233   4.214  21.907  0.00  0.00    -0.477 OA
ATOM     44  H   UNL     1       6.327   3.901  20.978  0.00  0.00    +0.295 HD
ENDBRANCH  41  43
ENDBRANCH  36  41
ENDBRANCH  32  33
ENDBRANCH  26  32
ENDBRANCH   1  26
TORSDOF 11
ENDMDL
MODEL 4
REMARK VINA RESULT:      -6.3      3.010      6.695
REMARK  Name = 
REMARK  12 active torsions:
REMARK  status: ('A' for Active; 'I' for Inactive)
REMARK    1  A    between atoms: C_1  and  C_2
REMARK    2  A    between atoms: N_4  and  C_5
REMARK    3  A    between atoms: C_5  and  C_7
REMARK    4  A    between atoms: C_5  and  C_19
REMARK    5  A    between atoms: C_7  and  C_8
REMARK    6  A    between atoms: C_11  and  C_12
REMARK    7  A    between atoms: C_12  and  O_13
REMARK    8  A    between atoms: C_15  and  C_16
REMARK    9  A    between atoms: N_21  and  C_22
REMARK   10  A    between atoms: N_28  and  C_29
REMARK   11  A    between atoms: C_29  and  C_30
REMARK   12  A    between atoms: C_33  and  C_36
REMARK                            x       y       z     vdW  Elec       q    Type
REMARK                         _______ _______ _______ _____ _____    ______ ____
ROOT
ATOM      1  C   UNL     1       5.263   2.301  24.995  0.00  0.00    +0.234 C 
ATOM      2  N   UNL     1       5.592   3.471  25.596  0.00  0.00    -0.302 N 
ATOM      3  H   UNL     1       5.031   4.220  25.206  0.00  0.00    +0.150 HD
ATOM      4  O   UNL     1       4.481   2.384  24.039  0.00  0.00    -0.274 OA
ENDROOT
BRANCH   2   5
ATOM      5  C   UNL     1       6.449   3.924  26.713  0.00  0.00    +0.159 C 
ATOM      6  C   UNL     1       7.232   5.175  26.279  0.00  0.00    +0.236 C 
ATOM      7  O   UNL     1       8.231   5.567  26.873  0.00  0.00    -0.274 OA
ATOM      8  N   UNL     1       6.480   5.962  25.410  0.00  0.00    -0.296 N 
ATOM      9  C   UNL     1       5.678   7.035  25.990  0.00  0.00    +0.108 C 
ATOM     10  C   UNL     1       4.944   6.735  27.324  0.00  0.00    +0.019 C 
ATOM     11  C   UNL     1       4.522   5.301  27.685  0.00  0.00    +0.004 C 
ATOM     12  C   UNL     1       5.669   4.323  27.963  0.00  0.00    +0.032 C 
BRANCH   8  13
ATOM     13  C   UNL     1       6.898   6.038  23.994  0.00  0.00    +0.143 C 
BRANCH  13  14
ATOM     14  C   UNL     1       7.696   4.886  23.440  0.00  0.00    -0.030 A 
ATOM     15  C   UNL     1       9.025   4.675  23.825  0.00  0.00    +0.006 A 
ATOM     16  C   UNL     1       9.704   3.513  23.434  0.00  0.00    +0.009 A 
ATOM     17  C   UNL     1       9.062   2.515  22.682  0.00  0.00    -0.018 A 
ATOM     18  C   UNL     1       7.819   2.851  22.126  0.00  0.00    +0.009 A 
ATOM     19  C   UNL     1       7.157   4.027  22.482  0.00  0.00    +0.006 A 
BRANCH  17  20
ATOM     20  C   UNL     1       9.559   1.117  22.640  0.00  0.00    -0.018 A 
ATOM     21  C   UNL     1      10.226   0.566  23.753  0.00  0.00    +0.008 A 
ATOM     22  C   UNL     1      10.513  -0.799  23.840  0.00  0.00    +0.001 A 
ATOM     23  C   UNL     1      10.138  -1.654  22.812  0.00  0.00    +0.000 A 
ATOM     24  C   UNL     1       9.507  -1.138  21.684  0.00  0.00    +0.001 A 
ATOM     25  C   UNL     1       9.236   0.234  21.593  0.00  0.00    +0.008 A 
ENDBRANCH  17  20
ENDBRANCH  13  14
ENDBRANCH   8  13
ENDBRANCH   2   5
BRANCH   1  26
ATOM     26  C   UNL     1       5.696   0.918  25.517  0.00  0.00    +0.163 C 
BRANCH  26  29
ATOM     27  C   UNL     1       3.718  -0.487  28.481  0.00  0.00    +0.109 C 
ATOM     28  C   UNL     1       4.821   0.205  27.731  0.00  0.00    +0.211 C 
ATOM     29  N   UNL     1       4.650   0.322  26.375  0.00  0.00    -0.304 N 
ATOM     30  H   UNL     1       3.724   0.223  25.968  0.00  0.00    +0.149 HD
ATOM     31  O   UNL     1       5.819   0.611  28.315  0.00  0.00    -0.276 OA
ENDBRANCH  26  29
BRANCH  26  32
ATOM     32  C   UNL     1       6.200  -0.064  24.458  0.00  0.00    +0.067 C 
BRANCH  32  33
ATOM     33  C   UNL     1       6.897  -1.364  24.795  0.00  0.00    -0.044 A 
ATOM     34  C   UNL     1       6.703  -2.403  23.870  0.00  0.00    +0.015 A 
ATOM     35  C   UNL     1       7.300  -3.666  24.000  0.00  0.00    +0.028 A 
ATOM     36  C   UNL     1       8.117  -3.945  25.110  0.00  0.00    +0.069 A 
ATOM     37  C   UNL     1       8.297  -2.890  26.048  0.00  0.00    +0.016 A 
ATOM     38  C   UNL     1       7.702  -1.623  25.897  0.00  0.00    +0.004 A 
BRANCH  35  39
ATOM     39  C   UNL     1       6.983  -4.568  22.877  0.00  0.00    +0.259 C 
ATOM     40  O   UNL     1       6.396  -5.630  23.019  0.00  0.00    -0.296 OA
ENDBRANCH  35  39
BRANCH  36  41
ATOM     41  C   UNL     1       8.813  -5.226  25.479  0.00  0.00    +0.337 C 
ATOM     42  O   UNL     1       9.750  -5.632  24.800  0.00  0.00    -0.245 OA
BRANCH  41  43
ATOM     43  O   UNL     1       8.414  -5.933  26.545  0.00  0.00    -0.477 OA
ATOM     44  H   UNL     1       9.044  -6.044  27.294  0.00  0.00    +0.295 HD
ENDBRANCH  41  43
ENDBRANCH  36  41
ENDBRANCH  32  33
ENDBRANCH  26  32
ENDBRANCH   1  26
TORSDOF 11
ENDMDL
MODEL 5
REMARK VINA RESULT:      -6.2      1.617      2.345
REMARK  Name = 
REMARK  12 active torsions:
REMARK  status: ('A' for Active; 'I' for Inactive)
REMARK    1  A    between atoms: C_1  and  C_2
REMARK    2  A    between atoms: N_4  and  C_5
REMARK    3  A    between atoms: C_5  and  C_7
REMARK    4  A    between atoms: C_5  and  C_19
REMARK    5  A    between atoms: C_7  and  C_8
REMARK    6  A    between atoms: C_11  and  C_12
REMARK    7  A    between atoms: C_12  and  O_13
REMARK    8  A    between atoms: C_15  and  C_16
REMARK    9  A    between atoms: N_21  and  C_22
REMARK   10  A    between atoms: N_28  and  C_29
REMARK   11  A    between atoms: C_29  and  C_30
REMARK   12  A    between atoms: C_33  and  C_36
REMARK                            x       y       z     vdW  Elec       q    Type
REMARK                         _______ _______ _______ _____ _____    ______ ____
ROOT
ATOM      1  C   UNL     1       5.915  -1.309  25.011  0.00  0.00    +0.234 C 
ATOM      2  N   UNL     1       6.942  -0.828  24.269  0.00  0.00    -0.302 N 
ATOM      3  H   UNL     1       6.878  -1.194  23.326  0.00  0.00    +0.150 HD
ATOM      4  O   UNL     1       5.209  -2.169  24.467  0.00  0.00    -0.274 OA
ENDROOT
BRANCH   2   5
ATOM      5  C   UNL     1       8.042   0.148  24.426  0.00  0.00    +0.159 C 
ATOM      6  C   UNL     1       9.322  -0.591  24.851  0.00  0.00    +0.236 C 
ATOM      7  O   UNL     1      10.281  -0.014  25.352  0.00  0.00    -0.274 OA
ATOM      8  N   UNL     1       9.385  -1.858  24.277  0.00  0.00    -0.296 N 
ATOM      9  C   UNL     1      10.090  -1.992  23.007  0.00  0.00    +0.108 C 
ATOM     10  C   UNL     1       9.897  -0.861  21.961  0.00  0.00    +0.019 C 
ATOM     11  C   UNL     1       8.606  -0.026  21.935  0.00  0.00    +0.004 C 
ATOM     12  C   UNL     1       8.390   0.895  23.140  0.00  0.00    +0.032 C 
BRANCH   8  13
ATOM     13  C   UNL     1       9.222  -3.035  25.157  0.00  0.00    +0.143 C 
BRANCH  13  14
ATOM     14  C   UNL     1       8.108  -3.998  24.836  0.00  0.00    -0.030 A 
ATOM     15  C   UNL     1       7.409  -4.660  25.853  0.00  0.00    +0.006 A 
ATOM     16  C   UNL     1       6.273  -5.423  25.555  0.00  0.00    +0.009 A 
ATOM     17  C   UNL     1       5.782  -5.512  24.241  0.00  0.00    -0.018 A 
ATOM     18  C   UNL     1       6.620  -5.032  23.225  0.00  0.00    +0.009 A 
ATOM     19  C   UNL     1       7.775  -4.305  23.517  0.00  0.00    +0.006 A 
BRANCH  17  20
ATOM     20  C   UNL     1       4.379  -5.902  23.948  0.00  0.00    -0.018 A 
ATOM     21  C   UNL     1       3.871  -7.131  24.416  0.00  0.00    +0.008 A 
ATOM     22  C   UNL     1       2.509  -7.438  24.354  0.00  0.00    +0.001 A 
ATOM     23  C   UNL     1       1.614  -6.518  23.823  0.00  0.00    +0.000 A 
ATOM     24  C   UNL     1       2.086  -5.309  23.324  0.00  0.00    +0.001 A 
ATOM     25  C   UNL     1       3.455  -5.013  23.372  0.00  0.00    +0.008 A 
ENDBRANCH  17  20
ENDBRANCH  13  14
ENDBRANCH   8  13
ENDBRANCH   2   5
BRANCH   1  26
ATOM     26  C   UNL     1       5.524  -0.756  26.395  0.00  0.00    +0.163 C 
BRANCH  26  29
ATOM     27  C   UNL     1       6.522   2.812  27.364  0.00  0.00    +0.109 C 
ATOM     28  C   UNL     1       6.505   1.310  27.366  0.00  0.00    +0.211 C 
ATOM     29  N   UNL     1       5.683   0.712  26.444  0.00  0.00    -0.304 N 
ATOM     30  H   UNL     1       5.356   1.237  25.637  0.00  0.00    +0.149 HD
ATOM     31  O   UNL     1       7.176   0.675  28.171  0.00  0.00    -0.276 OA
ENDBRANCH  26  29
BRANCH  26  32
ATOM     32  C   UNL     1       4.163  -1.206  26.930  0.00  0.00    +0.067 C 
BRANCH  32  33
ATOM     33  C   UNL     1       3.817  -2.653  27.207  0.00  0.00    -0.044 A 
ATOM     34  C   UNL     1       4.675  -3.313  28.101  0.00  0.00    +0.015 A 
ATOM     35  C   UNL     1       4.489  -4.644  28.503  0.00  0.00    +0.028 A 
ATOM     36  C   UNL     1       3.415  -5.389  27.984  0.00  0.00    +0.069 A 
ATOM     37  C   UNL     1       2.559  -4.716  27.069  0.00  0.00    +0.016 A 
ATOM     38  C   UNL     1       2.751  -3.375  26.686  0.00  0.00    +0.004 A 
BRANCH  35  39
ATOM     39  C   UNL     1       5.493  -5.092  29.486  0.00  0.00    +0.259 C 
ATOM     40  O   UNL     1       6.402  -5.861  29.208  0.00  0.00    -0.296 OA
ENDBRANCH  35  39
BRANCH  36  41
ATOM     41  C   UNL     1       3.050  -6.827  28.230  0.00  0.00    +0.337 C 
ATOM     42  O   UNL     1       1.996  -7.275  27.795  0.00  0.00    -0.245 OA
BRANCH  41  43
ATOM     43  O   UNL     1       3.870  -7.625  28.929  0.00  0.00    -0.477 OA
ATOM     44  H   UNL     1       3.886  -8.585  28.710  0.00  0.00    +0.295 HD
ENDBRANCH  41  43
ENDBRANCH  36  41
ENDBRANCH  32  33
ENDBRANCH  26  32
ENDBRANCH   1  26
TORSDOF 11
ENDMDL
MODEL 6
REMARK VINA RESULT:      -6.1      3.395      8.158
REMARK  Name = 
REMARK  12 active torsions:
REMARK  status: ('A' for Active; 'I' for Inactive)
REMARK    1  A    between atoms: C_1  and  C_2
REMARK    2  A    between atoms: N_4  and  C_5
REMARK    3  A    between atoms: C_5  and  C_7
REMARK    4  A    between atoms: C_5  and  C_19
REMARK    5  A    between atoms: C_7  and  C_8
REMARK    6  A    between atoms: C_11  and  C_12
REMARK    7  A    between atoms: C_12  and  O_13
REMARK    8  A    between atoms: C_15  and  C_16
REMARK    9  A    between atoms: N_21  and  C_22
REMARK   10  A    between atoms: N_28  and  C_29
REMARK   11  A    between atoms: C_29  and  C_30
REMARK   12  A    between atoms: C_33  and  C_36
REMARK                            x       y       z     vdW  Elec       q    Type
REMARK                         _______ _______ _______ _____ _____    ______ ____
ROOT
ATOM      1  C   UNL     1       7.670  -0.397  26.646  0.00  0.00    +0.234 C 
ATOM      2  N   UNL     1       7.547  -1.438  25.786  0.00  0.00    -0.302 N 
ATOM      3  H   UNL     1       8.224  -2.154  26.023  0.00  0.00    +0.150 HD
ATOM      4  O   UNL     1       8.627  -0.452  27.430  0.00  0.00    -0.274 OA
ENDROOT
BRANCH   2   5
ATOM      5  C   UNL     1       6.644  -1.851  24.690  0.00  0.00    +0.159 C 
ATOM      6  C   UNL     1       7.482  -2.316  23.487  0.00  0.00    +0.236 C 
ATOM      7  O   UNL     1       7.017  -2.407  22.355  0.00  0.00    -0.274 OA
ATOM      8  N   UNL     1       8.655  -2.941  23.903  0.00  0.00    -0.296 N 
ATOM      9  C   UNL     1       8.630  -4.391  24.062  0.00  0.00    +0.108 C 
ATOM     10  C   UNL     1       7.355  -5.018  24.687  0.00  0.00    +0.019 C 
ATOM     11  C   UNL     1       6.479  -4.213  25.662  0.00  0.00    +0.004 C 
ATOM     12  C   UNL     1       5.733  -3.022  25.052  0.00  0.00    +0.032 C 
BRANCH   8  13
ATOM     13  C   UNL     1       9.939  -2.247  23.668  0.00  0.00    +0.143 C 
BRANCH  13  14
ATOM     14  C   UNL     1       9.897  -0.757  23.449  0.00  0.00    -0.030 A 
ATOM     15  C   UNL     1       9.537  -0.218  22.208  0.00  0.00    +0.006 A 
ATOM     16  C   UNL     1       9.342   1.161  22.060  0.00  0.00    +0.009 A 
ATOM     17  C   UNL     1       9.463   2.033  23.155  0.00  0.00    -0.018 A 
ATOM     18  C   UNL     1      10.039   1.502  24.319  0.00  0.00    +0.009 A 
ATOM     19  C   UNL     1      10.272   0.133  24.455  0.00  0.00    +0.006 A 
BRANCH  17  20
ATOM     20  C   UNL     1       8.838   3.380  23.164  0.00  0.00    -0.018 A 
ATOM     21  C   UNL     1       9.418   4.427  23.910  0.00  0.00    +0.008 A 
ATOM     22  C   UNL     1       8.995   5.752  23.774  0.00  0.00    +0.001 A 
ATOM     23  C   UNL     1       7.977   6.067  22.883  0.00  0.00    +0.000 A 
ATOM     24  C   UNL     1       7.362   5.054  22.154  0.00  0.00    +0.001 A 
ATOM     25  C   UNL     1       7.778   3.725  22.307  0.00  0.00    +0.008 A 
ENDBRANCH  17  20
ENDBRANCH  13  14
ENDBRANCH   8  13
ENDBRANCH   2   5
BRANCH   1  26
ATOM     26  C   UNL     1       6.635   0.737  26.773  0.00  0.00    +0.163 C 
BRANCH  26  29
ATOM     27  C   UNL     1       3.842  -0.005  29.287  0.00  0.00    +0.109 C 
ATOM     28  C   UNL     1       4.586   0.018  27.982  0.00  0.00    +0.211 C 
ATOM     29  N   UNL     1       5.834   0.588  28.006  0.00  0.00    -0.304 N 
ATOM     30  H   UNL     1       6.324   0.702  28.889  0.00  0.00    +0.149 HD
ATOM     31  O   UNL     1       4.078  -0.429  26.960  0.00  0.00    -0.276 OA
ENDBRANCH  26  29
BRANCH  26  32
ATOM     32  C   UNL     1       7.181   2.156  26.608  0.00  0.00    +0.067 C 
BRANCH  32  33
ATOM     33  C   UNL     1       6.391   3.282  25.977  0.00  0.00    -0.044 A 
ATOM     34  C   UNL     1       5.487   2.890  24.977  0.00  0.00    +0.015 A 
ATOM     35  C   UNL     1       4.645   3.791  24.308  0.00  0.00    +0.028 A 
ATOM     36  C   UNL     1       4.705   5.163  24.611  0.00  0.00    +0.069 A 
ATOM     37  C   UNL     1       5.634   5.552  25.616  0.00  0.00    +0.016 A 
ATOM     38  C   UNL     1       6.461   4.634  26.289  0.00  0.00    +0.004 A 
BRANCH  35  39
ATOM     39  C   UNL     1       3.752   3.130  23.338  0.00  0.00    +0.259 C 
ATOM     40  O   UNL     1       2.557   2.968  23.534  0.00  0.00    -0.296 OA
ENDBRANCH  35  39
BRANCH  36  41
ATOM     41  C   UNL     1       3.944   6.305  23.997  0.00  0.00    +0.337 C 
ATOM     42  O   UNL     1       4.334   6.811  22.950  0.00  0.00    -0.245 OA
BRANCH  41  43
ATOM     43  O   UNL     1       2.839   6.781  24.588  0.00  0.00    -0.477 OA
ATOM     44  H   UNL     1       1.964   6.454  24.277  0.00  0.00    +0.295 HD
ENDBRANCH  41  43
ENDBRANCH  36  41
ENDBRANCH  32  33
ENDBRANCH  26  32
ENDBRANCH   1  26
TORSDOF 11
ENDMDL
MODEL 7
REMARK VINA RESULT:      -6.1      1.200      2.052
REMARK  Name = 
REMARK  12 active torsions:
REMARK  status: ('A' for Active; 'I' for Inactive)
REMARK    1  A    between atoms: C_1  and  C_2
REMARK    2  A    between atoms: N_4  and  C_5
REMARK    3  A    between atoms: C_5  and  C_7
REMARK    4  A    between atoms: C_5  and  C_19
REMARK    5  A    between atoms: C_7  and  C_8
REMARK    6  A    between atoms: C_11  and  C_12
REMARK    7  A    between atoms: C_12  and  O_13
REMARK    8  A    between atoms: C_15  and  C_16
REMARK    9  A    between atoms: N_21  and  C_22
REMARK   10  A    between atoms: N_28  and  C_29
REMARK   11  A    between atoms: C_29  and  C_30
REMARK   12  A    between atoms: C_33  and  C_36
REMARK                            x       y       z     vdW  Elec       q    Type
REMARK                         _______ _______ _______ _____ _____    ______ ____
ROOT
ATOM      1  C   UNL     1       6.026   0.096  25.164  0.00  0.00    +0.234 C 
ATOM      2  N   UNL     1       7.264  -0.309  24.786  0.00  0.00    -0.302 N 
ATOM      3  H   UNL     1       7.477   0.065  23.868  0.00  0.00    +0.150 HD
ATOM      4  O   UNL     1       5.368   0.699  24.305  0.00  0.00    -0.274 OA
ENDROOT
BRANCH   2   5
ATOM      5  C   UNL     1       8.404  -1.042  25.379  0.00  0.00    +0.159 C 
ATOM      6  C   UNL     1       8.850  -2.155  24.416  0.00  0.00    +0.236 C 
ATOM      7  O   UNL     1       9.545  -3.100  24.777  0.00  0.00    -0.274 OA
ATOM      8  N   UNL     1       8.687  -1.767  23.089  0.00  0.00    -0.296 N 
ATOM      9  C   UNL     1       9.826  -1.146  22.420  0.00  0.00    +0.108 C 
ATOM     10  C   UNL     1      10.678  -0.144  23.244  0.00  0.00    +0.019 C 
ATOM     11  C   UNL     1      10.054   0.654  24.401  0.00  0.00    +0.004 C 
ATOM     12  C   UNL     1       9.634  -0.171  25.623  0.00  0.00    +0.032 C 
BRANCH   8  13
ATOM     13  C   UNL     1       7.634  -2.429  22.290  0.00  0.00    +0.143 C 
BRANCH  13  14
ATOM     14  C   UNL     1       6.651  -3.305  23.021  0.00  0.00    -0.030 A 
ATOM     15  C   UNL     1       5.387  -2.825  23.387  0.00  0.00    +0.006 A 
ATOM     16  C   UNL     1       4.422  -3.691  23.918  0.00  0.00    +0.009 A 
ATOM     17  C   UNL     1       4.680  -5.065  24.060  0.00  0.00    -0.018 A 
ATOM     18  C   UNL     1       6.012  -5.473  23.901  0.00  0.00    +0.009 A 
ATOM     19  C   UNL     1       6.986  -4.602  23.410  0.00  0.00    +0.006 A 
BRANCH  17  20
ATOM     20  C   UNL     1       3.588  -6.065  24.171  0.00  0.00    -0.018 A 
ATOM     21  C   UNL     1       2.669  -6.233  23.115  0.00  0.00    +0.008 A 
ATOM     22  C   UNL     1       1.769  -7.301  23.083  0.00  0.00    +0.001 A 
ATOM     23  C   UNL     1       1.765  -8.237  24.111  0.00  0.00    +0.000 A 
ATOM     24  C   UNL     1       2.638  -8.083  25.184  0.00  0.00    +0.001 A 
ATOM     25  C   UNL     1       3.526  -7.000  25.220  0.00  0.00    +0.008 A 
ENDBRANCH  17  20
ENDBRANCH  13  14
ENDBRANCH   8  13
ENDBRANCH   2   5
BRANCH   1  26
ATOM     26  C   UNL     1       5.481  -0.037  26.598  0.00  0.00    +0.163 C 
BRANCH  26  29
ATOM     27  C   UNL     1       5.103   3.433  28.175  0.00  0.00    +0.109 C 
ATOM     28  C   UNL     1       5.774   2.197  27.647  0.00  0.00    +0.211 C 
ATOM     29  N   UNL     1       4.951   1.252  27.087  0.00  0.00    -0.304 N 
ATOM     30  H   UNL     1       4.015   1.508  26.785  0.00  0.00    +0.149 HD
ATOM     31  O   UNL     1       6.987   2.050  27.743  0.00  0.00    -0.276 OA
ENDBRANCH  26  29
BRANCH  26  32
ATOM     32  C   UNL     1       4.502  -1.189  26.832  0.00  0.00    +0.067 C 
BRANCH  32  33
ATOM     33  C   UNL     1       4.936  -2.577  27.249  0.00  0.00    -0.044 A 
ATOM     34  C   UNL     1       3.954  -3.338  27.905  0.00  0.00    +0.015 A 
ATOM     35  C   UNL     1       4.165  -4.658  28.331  0.00  0.00    +0.028 A 
ATOM     36  C   UNL     1       5.416  -5.268  28.130  0.00  0.00    +0.069 A 
ATOM     37  C   UNL     1       6.408  -4.484  27.477  0.00  0.00    +0.016 A 
ATOM     38  C   UNL     1       6.177  -3.166  27.043  0.00  0.00    +0.004 A 
BRANCH  35  39
ATOM     39  C   UNL     1       2.968  -5.260  28.947  0.00  0.00    +0.259 C 
ATOM     40  O   UNL     1       2.443  -6.281  28.528  0.00  0.00    -0.296 OA
ENDBRANCH  35  39
BRANCH  36  41
ATOM     41  C   UNL     1       5.882  -6.638  28.541  0.00  0.00    +0.337 C 
ATOM     42  O   UNL     1       6.956  -6.774  29.116  0.00  0.00    -0.245 OA
BRANCH  41  43
ATOM     43  O   UNL     1       5.131  -7.717  28.278  0.00  0.00    -0.477 OA
ATOM     44  H   UNL     1       4.446  -7.981  28.935  0.00  0.00    +0.295 HD
ENDBRANCH  41  43
ENDBRANCH  36  41
ENDBRANCH  32  33
ENDBRANCH  26  32
ENDBRANCH   1  26
TORSDOF 11
ENDMDL
MODEL 8
REMARK VINA RESULT:      -5.9      2.465      7.220
REMARK  Name = 
REMARK  12 active torsions:
REMARK  status: ('A' for Active; 'I' for Inactive)
REMARK    1  A    between atoms: C_1  and  C_2
REMARK    2  A    between atoms: N_4  and  C_5
REMARK    3  A    between atoms: C_5  and  C_7
REMARK    4  A    between atoms: C_5  and  C_19
REMARK    5  A    between atoms: C_7  and  C_8
REMARK    6  A    between atoms: C_11  and  C_12
REMARK    7  A    between atoms: C_12  and  O_13
REMARK    8  A    between atoms: C_15  and  C_16
REMARK    9  A    between atoms: N_21  and  C_22
REMARK   10  A    between atoms: N_28  and  C_29
REMARK   11  A    between atoms: C_29  and  C_30
REMARK   12  A    between atoms: C_33  and  C_36
REMARK                            x       y       z     vdW  Elec       q    Type
REMARK                         _______ _______ _______ _____ _____    ______ ____
ROOT
ATOM      1  C   UNL     1       6.110  -4.892  26.235  0.00  0.00    +0.234 C 
ATOM      2  N   UNL     1       5.704  -5.049  24.951  0.00  0.00    -0.302 N 
ATOM      3  H   UNL     1       5.858  -6.008  24.663  0.00  0.00    +0.150 HD
ATOM      4  O   UNL     1       6.691  -5.861  26.743  0.00  0.00    -0.274 OA
ENDROOT
BRANCH   2   5
ATOM      5  C   UNL     1       5.015  -4.248  23.917  0.00  0.00    +0.159 C 
ATOM      6  C   UNL     1       6.060  -3.509  23.064  0.00  0.00    +0.236 C 
ATOM      7  O   UNL     1       5.774  -2.548  22.357  0.00  0.00    -0.274 OA
ATOM      8  N   UNL     1       7.219  -4.268  22.920  0.00  0.00    -0.296 N 
ATOM      9  C   UNL     1       7.319  -5.135  21.751  0.00  0.00    +0.108 C 
ATOM     10  C   UNL     1       6.039  -5.896  21.314  0.00  0.00    +0.019 C 
ATOM     11  C   UNL     1       4.955  -6.265  22.340  0.00  0.00    +0.004 C 
ATOM     12  C   UNL     1       4.186  -5.084  22.944  0.00  0.00    +0.032 C 
BRANCH   8  13
ATOM     13  C   UNL     1       8.446  -3.810  23.605  0.00  0.00    +0.143 C 
BRANCH  13  14
ATOM     14  C   UNL     1       8.815  -2.354  23.475  0.00  0.00    -0.030 A 
ATOM     15  C   UNL     1       8.784  -1.709  22.233  0.00  0.00    +0.006 A 
ATOM     16  C   UNL     1       8.969  -0.322  22.147  0.00  0.00    +0.009 A 
ATOM     17  C   UNL     1       9.148   0.459  23.300  0.00  0.00    -0.018 A 
ATOM     18  C   UNL     1       9.398  -0.232  24.494  0.00  0.00    +0.009 A 
ATOM     19  C   UNL     1       9.255  -1.618  24.575  0.00  0.00    +0.006 A 
BRANCH  17  20
ATOM     20  C   UNL     1       8.891   1.922  23.310  0.00  0.00    -0.018 A 
ATOM     21  C   UNL     1       8.112   2.513  22.294  0.00  0.00    +0.008 A 
ATOM     22  C   UNL     1       7.665   3.833  22.380  0.00  0.00    +0.001 A 
ATOM     23  C   UNL     1       7.984   4.602  23.493  0.00  0.00    +0.000 A 
ATOM     24  C   UNL     1       8.777   4.060  24.499  0.00  0.00    +0.001 A 
ATOM     25  C   UNL     1       9.238   2.741  24.399  0.00  0.00    +0.008 A 
ENDBRANCH  17  20
ENDBRANCH  13  14
ENDBRANCH   8  13
ENDBRANCH   2   5
BRANCH   1  26
ATOM     26  C   UNL     1       5.774  -3.660  27.096  0.00  0.00    +0.163 C 
BRANCH  26  29
ATOM     27  C   UNL     1       4.145  -4.622  30.426  0.00  0.00    +0.109 C 
ATOM     28  C   UNL     1       4.268  -4.319  28.960  0.00  0.00    +0.211 C 
ATOM     29  N   UNL     1       5.532  -4.044  28.503  0.00  0.00    -0.304 N 
ATOM     30  H   UNL     1       6.343  -4.324  29.048  0.00  0.00    +0.149 HD
ATOM     31  O   UNL     1       3.279  -4.298  28.237  0.00  0.00    -0.276 OA
ENDBRANCH  26  29
BRANCH  26  32
ATOM     32  C   UNL     1       6.744  -2.483  26.980  0.00  0.00    +0.067 C 
BRANCH  32  33
ATOM     33  C   UNL     1       6.339  -1.119  26.463  0.00  0.00    -0.044 A 
ATOM     34  C   UNL     1       6.513  -0.061  27.369  0.00  0.00    +0.015 A 
ATOM     35  C   UNL     1       6.225   1.275  27.052  0.00  0.00    +0.028 A 
ATOM     36  C   UNL     1       5.712   1.600  25.784  0.00  0.00    +0.069 A 
ATOM     37  C   UNL     1       5.528   0.519  24.877  0.00  0.00    +0.016 A 
ATOM     38  C   UNL     1       5.835  -0.815  25.205  0.00  0.00    +0.004 A 
BRANCH  35  39
ATOM     39  C   UNL     1       6.537   2.205  28.153  0.00  0.00    +0.259 C 
ATOM     40  O   UNL     1       7.345   3.117  28.047  0.00  0.00    -0.296 OA
ENDBRANCH  35  39
BRANCH  36  41
ATOM     41  C   UNL     1       5.291   2.939  25.244  0.00  0.00    +0.337 C 
ATOM     42  O   UNL     1       4.730   3.013  24.157  0.00  0.00    -0.245 OA
BRANCH  41  43
ATOM     43  O   UNL     1       5.528   4.058  25.943  0.00  0.00    -0.477 OA
ATOM     44  H   UNL     1       4.760   4.616  26.205  0.00  0.00    +0.295 HD
ENDBRANCH  41  43
ENDBRANCH  36  41
ENDBRANCH  32  33
ENDBRANCH  26  32
ENDBRANCH   1  26
TORSDOF 11
ENDMDL
MODEL 9
REMARK VINA RESULT:      -5.9      3.005      8.265
REMARK  Name = 
REMARK  12 active torsions:
REMARK  status: ('A' for Active; 'I' for Inactive)
REMARK    1  A    between atoms: C_1  and  C_2
REMARK    2  A    between atoms: N_4  and  C_5
REMARK    3  A    between atoms: C_5  and  C_7
REMARK    4  A    between atoms: C_5  and  C_19
REMARK    5  A    between atoms: C_7  and  C_8
REMARK    6  A    between atoms: C_11  and  C_12
REMARK    7  A    between atoms: C_12  and  O_13
REMARK    8  A    between atoms: C_15  and  C_16
REMARK    9  A    between atoms: N_21  and  C_22
REMARK   10  A    between atoms: N_28  and  C_29
REMARK   11  A    between atoms: C_29  and  C_30
REMARK   12  A    between atoms: C_33  and  C_36
REMARK                            x       y       z     vdW  Elec       q    Type
REMARK                         _______ _______ _______ _____ _____    ______ ____
ROOT
ATOM      1  C   UNL     1       5.920  -3.660  23.801  0.00  0.00    +0.234 C 
ATOM      2  N   UNL     1       5.137  -3.957  24.867  0.00  0.00    -0.302 N 
ATOM      3  H   UNL     1       4.260  -3.453  24.793  0.00  0.00    +0.150 HD
ATOM      4  O   UNL     1       5.498  -2.771  23.049  0.00  0.00    -0.274 OA
ENDROOT
BRANCH   2   5
ATOM      5  C   UNL     1       5.168  -4.875  26.026  0.00  0.00    +0.159 C 
ATOM      6  C   UNL     1       6.044  -4.267  27.134  0.00  0.00    +0.236 C 
ATOM      7  O   UNL     1       6.498  -4.935  28.058  0.00  0.00    -0.274 OA
ATOM      8  N   UNL     1       5.939  -2.878  27.153  0.00  0.00    -0.296 N 
ATOM      9  C   UNL     1       4.938  -2.287  28.035  0.00  0.00    +0.108 C 
ATOM     10  C   UNL     1       3.562  -2.999  28.133  0.00  0.00    +0.019 C 
ATOM     11  C   UNL     1       3.024  -3.834  26.960  0.00  0.00    +0.004 C 
ATOM     12  C   UNL     1       3.798  -5.122  26.653  0.00  0.00    +0.032 C 
BRANCH   8  13
ATOM     13  C   UNL     1       7.109  -2.082  26.727  0.00  0.00    +0.143 C 
BRANCH  13  14
ATOM     14  C   UNL     1       6.870  -0.646  26.336  0.00  0.00    -0.030 A 
ATOM     15  C   UNL     1       7.283   0.406  27.162  0.00  0.00    +0.006 A 
ATOM     16  C   UNL     1       7.205   1.733  26.718  0.00  0.00    +0.009 A 
ATOM     17  C   UNL     1       6.752   2.040  25.424  0.00  0.00    -0.018 A 
ATOM     18  C   UNL     1       6.140   0.999  24.711  0.00  0.00    +0.009 A 
ATOM     19  C   UNL     1       6.180  -0.319  25.169  0.00  0.00    +0.006 A 
BRANCH  17  20
ATOM     20  C   UNL     1       7.075   3.328  24.760  0.00  0.00    -0.018 A 
ATOM     21  C   UNL     1       8.344   3.917  24.932  0.00  0.00    +0.008 A 
ATOM     22  C   UNL     1       8.765   5.003  24.160  0.00  0.00    +0.001 A 
ATOM     23  C   UNL     1       7.923   5.530  23.187  0.00  0.00    +0.000 A 
ATOM     24  C   UNL     1       6.652   4.992  23.013  0.00  0.00    +0.001 A 
ATOM     25  C   UNL     1       6.228   3.915  23.802  0.00  0.00    +0.008 A 
ENDBRANCH  17  20
ENDBRANCH  13  14
ENDBRANCH   8  13
ENDBRANCH   2   5
BRANCH   1  26
ATOM     26  C   UNL     1       7.192  -4.444  23.427  0.00  0.00    +0.163 C 
BRANCH  26  29
ATOM     27  C   UNL     1       6.060  -6.356  20.308  0.00  0.00    +0.109 C 
ATOM     28  C   UNL     1       6.012  -5.776  21.693  0.00  0.00    +0.211 C 
ATOM     29  N   UNL     1       7.087  -5.010  22.067  0.00  0.00    -0.304 N 
ATOM     30  H   UNL     1       7.707  -4.624  21.359  0.00  0.00    +0.149 HD
ATOM     31  O   UNL     1       5.067  -6.007  22.439  0.00  0.00    -0.276 OA
ENDBRANCH  26  29
BRANCH  26  32
ATOM     32  C   UNL     1       8.514  -3.706  23.643  0.00  0.00    +0.067 C 
BRANCH  32  33
ATOM     33  C   UNL     1       8.757  -2.284  23.185  0.00  0.00    -0.044 A 
ATOM     34  C   UNL     1       9.444  -1.470  24.100  0.00  0.00    +0.015 A 
ATOM     35  C   UNL     1       9.788  -0.136  23.832  0.00  0.00    +0.028 A 
ATOM     36  C   UNL     1       9.419   0.451  22.609  0.00  0.00    +0.069 A 
ATOM     37  C   UNL     1       8.712  -0.378  21.694  0.00  0.00    +0.016 A 
ATOM     38  C   UNL     1       8.386  -1.719  21.971  0.00  0.00    +0.004 A 
BRANCH  35  39
ATOM     39  C   UNL     1      10.550   0.490  24.929  0.00  0.00    +0.259 C 
ATOM     40  O   UNL     1      11.636   1.026  24.766  0.00  0.00    -0.296 OA
ENDBRANCH  35  39
BRANCH  36  41
ATOM     41  C   UNL     1       9.635   1.859  22.129  0.00  0.00    +0.337 C 
ATOM     42  O   UNL     1       8.697   2.501  21.667  0.00  0.00    -0.245 OA
BRANCH  41  43
ATOM     43  O   UNL     1      10.850   2.421  22.196  0.00  0.00    -0.477 OA
ATOM     44  H   UNL     1      10.968   3.210  22.774  0.00  0.00    +0.295 HD
ENDBRANCH  41  43
ENDBRANCH  36  41
ENDBRANCH  32  33
ENDBRANCH  26  32
ENDBRANCH   1  26
TORSDOF 11
ENDMDL
