MODEL 1
REMARK VINA RESULT:      -5.5      0.000      0.000
REMARK  Name = 
REMARK  5 active torsions:
REMARK  status: ('A' for Active; 'I' for Inactive)
REMARK    1  A    between atoms: C_1  and  C_2
REMARK    2  A    between atoms: C_2  and  C_3
REMARK    3  A    between atoms: C_2  and  N_4
REMARK    4  A    between atoms: N_4  and  N_5
REMARK    5  A    between atoms: C_6  and  C_8
REMARK                            x       y       z     vdW  Elec       q    Type
REMARK                         _______ _______ _______ _____ _____    ______ ____
ROOT
ATOM      1  N   UNL     1      10.835   3.545  22.833  0.00  0.00    -0.247 N 
ATOM      2  H   UNL     1      11.583   3.095  22.311  0.00  0.00    +0.169 HD
ATOM      3  C   UNL     1       9.940   2.772  23.559  0.00  0.00    +0.258 C 
ATOM      4  O   UNL     1       9.221   3.209  24.450  0.00  0.00    -0.269 OA
ENDROOT
BRANCH   3   5
ATOM      5  C   UNL     1       9.918   1.330  23.200  0.00  0.00    +0.041 A 
ATOM      6  C   UNL     1      10.113   0.343  24.168  0.00  0.00    +0.033 A 
ATOM      7  C   UNL     1      10.081  -0.978  23.761  0.00  0.00    +0.111 A 
ATOM      8  N   UNL     1       9.875  -1.361  22.483  0.00  0.00    -0.263 NA
ATOM      9  C   UNL     1       9.711  -0.384  21.565  0.00  0.00    +0.111 A 
ATOM     10  C   UNL     1       9.729   0.965  21.868  0.00  0.00    +0.033 A 
ENDBRANCH   3   5
BRANCH   1  11
ATOM     11  N   UNL     1      10.978   4.918  23.119  0.00  0.00    -0.238 NA
ATOM     12  H   UNL     1      10.783   5.429  22.246  0.00  0.00    +0.145 HD
BRANCH  11  14
ATOM     13  C   UNL     1      13.184   5.584  22.323  0.00  0.00    +0.025 C 
ATOM     14  C   UNL     1      12.348   5.238  23.557  0.00  0.00    +0.067 C 
ATOM     15  C   UNL     1      12.368   6.416  24.536  0.00  0.00    +0.025 C 
ENDBRANCH  11  14
ENDBRANCH   1  11
TORSDOF 3
ENDMDL
MODEL 2
REMARK VINA RESULT:      -5.2      3.037      6.808
REMARK  Name = 
REMARK  5 active torsions:
REMARK  status: ('A' for Active; 'I' for Inactive)
REMARK    1  A    between atoms: C_1  and  C_2
REMARK    2  A    between atoms: C_2  and  C_3
REMARK    3  A    between atoms: C_2  and  N_4
REMARK    4  A    between atoms: N_4  and  N_5
REMARK    5  A    between atoms: C_6  and  C_8
REMARK                            x       y       z     vdW  Elec       q    Type
REMARK                         _______ _______ _______ _____ _____    ______ ____
ROOT
ATOM      1  N   UNL     1       9.943  -2.411  24.194  0.00  0.00    -0.247 N 
ATOM      2  H   UNL     1      10.443  -1.955  24.953  0.00  0.00    +0.169 HD
ATOM      3  C   UNL     1       9.780  -1.755  22.982  0.00  0.00    +0.258 C 
ATOM      4  O   UNL     1       9.486  -2.314  21.933  0.00  0.00    -0.269 OA
ENDROOT
BRANCH   3   5
ATOM      5  C   UNL     1      10.015  -0.288  23.026  0.00  0.00    +0.041 A 
ATOM      6  C   UNL     1      10.476   0.335  24.188  0.00  0.00    +0.033 A 
ATOM      7  C   UNL     1      10.670   1.703  24.156  0.00  0.00    +0.111 A 
ATOM      8  N   UNL     1      10.437   2.465  23.066  0.00  0.00    -0.263 NA
ATOM      9  C   UNL     1       9.972   1.839  21.964  0.00  0.00    +0.111 A 
ATOM     10  C   UNL     1       9.741   0.477  21.894  0.00  0.00    +0.033 A 
ENDBRANCH   3   5
BRANCH   1  11
ATOM     11  N   UNL     1       9.794  -3.812  24.266  0.00  0.00    -0.238 NA
ATOM     12  H   UNL     1       9.920  -4.177  23.311  0.00  0.00    +0.145 HD
BRANCH  11  14
ATOM     13  C   UNL     1       7.738  -4.952  23.624  0.00  0.00    +0.025 C 
ATOM     14  C   UNL     1       8.450  -4.188  24.740  0.00  0.00    +0.067 C 
ATOM     15  C   UNL     1       8.519  -5.062  25.997  0.00  0.00    +0.025 C 
ENDBRANCH  11  14
ENDBRANCH   1  11
TORSDOF 3
ENDMDL
MODEL 3
REMARK VINA RESULT:      -5.1      3.385      7.233
REMARK  Name = 
REMARK  5 active torsions:
REMARK  status: ('A' for Active; 'I' for Inactive)
REMARK    1  A    between atoms: C_1  and  C_2
REMARK    2  A    between atoms: C_2  and  C_3
REMARK    3  A    between atoms: C_2  and  N_4
REMARK    4  A    between atoms: N_4  and  N_5
REMARK    5  A    between atoms: C_6  and  C_8
REMARK                            x       y       z     vdW  Elec       q    Type
REMARK                         _______ _______ _______ _____ _____    ______ ____
ROOT
ATOM      1  N   UNL     1       8.247  -2.442  22.633  0.00  0.00    -0.247 N 
ATOM      2  H   UNL     1       7.554  -1.722  22.445  0.00  0.00    +0.169 HD
ATOM      3  C   UNL     1       9.459  -2.097  23.215  0.00  0.00    +0.258 C 
ATOM      4  O   UNL     1      10.210  -2.896  23.761  0.00  0.00    -0.269 OA
ENDROOT
BRANCH   3   5
ATOM      5  C   UNL     1       9.795  -0.651  23.157  0.00  0.00    +0.041 A 
ATOM      6  C   UNL     1       9.629   0.081  21.980  0.00  0.00    +0.033 A 
ATOM      7  C   UNL     1       9.963   1.423  21.999  0.00  0.00    +0.111 A 
ATOM      8  N   UNL     1      10.441   2.058  23.090  0.00  0.00    -0.263 NA
ATOM      9  C   UNL     1      10.612   1.319  24.208  0.00  0.00    +0.111 A 
ATOM     10  C   UNL     1      10.311  -0.028  24.292  0.00  0.00    +0.033 A 
ENDBRANCH   3   5
BRANCH   1  11
ATOM     11  N   UNL     1       7.800  -3.779  22.670  0.00  0.00    -0.238 NA
ATOM     12  H   UNL     1       8.550  -4.359  22.267  0.00  0.00    +0.145 HD
BRANCH  11  14
ATOM     13  C   UNL     1       6.485  -5.430  21.452  0.00  0.00    +0.025 C 
ATOM     14  C   UNL     1       6.578  -3.961  21.867  0.00  0.00    +0.067 C 
ATOM     15  C   UNL     1       5.322  -3.570  22.651  0.00  0.00    +0.025 C 
ENDBRANCH  11  14
ENDBRANCH   1  11
TORSDOF 3
ENDMDL
MODEL 4
REMARK VINA RESULT:      -5.1      3.505      7.305
REMARK  Name = 
REMARK  5 active torsions:
REMARK  status: ('A' for Active; 'I' for Inactive)
REMARK    1  A    between atoms: C_1  and  C_2
REMARK    2  A    between atoms: C_2  and  C_3
REMARK    3  A    between atoms: C_2  and  N_4
REMARK    4  A    between atoms: N_4  and  N_5
REMARK    5  A    between atoms: C_6  and  C_8
REMARK                            x       y       z     vdW  Elec       q    Type
REMARK                         _______ _______ _______ _____ _____    ______ ____
ROOT
ATOM      1  N   UNL     1       8.139  -2.991  23.073  0.00  0.00    -0.247 N 
ATOM      2  H   UNL     1       7.408  -2.311  22.878  0.00  0.00    +0.169 HD
ATOM      3  C   UNL     1       9.394  -2.557  23.477  0.00  0.00    +0.258 C 
ATOM      4  O   UNL     1      10.222  -3.272  24.028  0.00  0.00    -0.269 OA
ENDROOT
BRANCH   3   5
ATOM      5  C   UNL     1       9.677  -1.122  23.216  0.00  0.00    +0.041 A 
ATOM      6  C   UNL     1      10.151  -0.285  24.228  0.00  0.00    +0.033 A 
ATOM      7  C   UNL     1      10.392   1.040  23.913  0.00  0.00    +0.111 A 
ATOM      8  N   UNL     1      10.192   1.564  22.685  0.00  0.00    -0.263 NA
ATOM      9  C   UNL     1       9.713   0.735  21.732  0.00  0.00    +0.111 A 
ATOM     10  C   UNL     1       9.437  -0.603  21.945  0.00  0.00    +0.033 A 
ENDBRANCH   3   5
BRANCH   1  11
ATOM     11  N   UNL     1       7.739  -4.321  23.313  0.00  0.00    -0.238 NA
ATOM     12  H   UNL     1       8.521  -4.927  23.026  0.00  0.00    +0.145 HD
BRANCH  11  14
ATOM     13  C   UNL     1       6.016  -3.412  21.848  0.00  0.00    +0.025 C 
ATOM     14  C   UNL     1       6.549  -4.678  22.520  0.00  0.00    +0.067 C 
ATOM     15  C   UNL     1       6.875  -5.727  21.453  0.00  0.00    +0.025 C 
ENDBRANCH  11  14
ENDBRANCH   1  11
TORSDOF 3
ENDMDL
MODEL 5
REMARK VINA RESULT:      -5.0      4.060      6.853
REMARK  Name = 
REMARK  5 active torsions:
REMARK  status: ('A' for Active; 'I' for Inactive)
REMARK    1  A    between atoms: C_1  and  C_2
REMARK    2  A    between atoms: C_2  and  C_3
REMARK    3  A    between atoms: C_2  and  N_4
REMARK    4  A    between atoms: N_4  and  N_5
REMARK    5  A    between atoms: C_6  and  C_8
REMARK                            x       y       z     vdW  Elec       q    Type
REMARK                         _______ _______ _______ _____ _____    ______ ____
ROOT
ATOM      1  N   UNL     1       9.200  -2.535  23.909  0.00  0.00    -0.247 N 
ATOM      2  H   UNL     1       8.462  -2.190  24.517  0.00  0.00    +0.169 HD
ATOM      3  C   UNL     1       9.732  -1.706  22.932  0.00  0.00    +0.258 C 
ATOM      4  O   UNL     1      10.806  -1.902  22.375  0.00  0.00    -0.269 OA
ENDROOT
BRANCH   3   5
ATOM      5  C   UNL     1       8.909  -0.513  22.603  0.00  0.00    +0.041 A 
ATOM      6  C   UNL     1       7.648  -0.327  23.175  0.00  0.00    +0.033 A 
ATOM      7  C   UNL     1       6.938   0.806  22.822  0.00  0.00    +0.111 A 
ATOM      8  N   UNL     1       7.396   1.735  21.956  0.00  0.00    -0.263 NA
ATOM      9  C   UNL     1       8.609   1.517  21.403  0.00  0.00    +0.111 A 
ATOM     10  C   UNL     1       9.396   0.416  21.686  0.00  0.00    +0.033 A 
ENDBRANCH   3   5
BRANCH   1  11
ATOM     11  N   UNL     1       9.915  -3.672  24.339  0.00  0.00    -0.238 NA
ATOM     12  H   UNL     1      10.390  -4.058  23.511  0.00  0.00    +0.145 HD
BRANCH  11  14
ATOM     13  C   UNL     1       8.946  -4.523  26.407  0.00  0.00    +0.025 C 
ATOM     14  C   UNL     1       9.014  -4.700  24.889  0.00  0.00    +0.067 C 
ATOM     15  C   UNL     1       7.606  -4.592  24.297  0.00  0.00    +0.025 C 
ENDBRANCH  11  14
ENDBRANCH   1  11
TORSDOF 3
ENDMDL
MODEL 6
REMARK VINA RESULT:      -5.0      2.252      3.249
REMARK  Name = 
REMARK  5 active torsions:
REMARK  status: ('A' for Active; 'I' for Inactive)
REMARK    1  A    between atoms: C_1  and  C_2
REMARK    2  A    between atoms: C_2  and  C_3
REMARK    3  A    between atoms: C_2  and  N_4
REMARK    4  A    between atoms: N_4  and  N_5
REMARK    5  A    between atoms: C_6  and  C_8
REMARK                            x       y       z     vdW  Elec       q    Type
REMARK                         _______ _______ _______ _____ _____    ______ ____
ROOT
ATOM      1  N   UNL     1       8.926   3.329  22.822  0.00  0.00    -0.247 N 
ATOM      2  H   UNL     1       8.193   2.882  22.279  0.00  0.00    +0.169 HD
ATOM      3  C   UNL     1      10.101   2.642  23.093  0.00  0.00    +0.258 C 
ATOM      4  O   UNL     1      11.143   3.178  23.451  0.00  0.00    -0.269 OA
ENDROOT
BRANCH   3   5
ATOM      5  C   UNL     1      10.028   1.171  22.894  0.00  0.00    +0.041 A 
ATOM      6  C   UNL     1       9.634   0.627  21.670  0.00  0.00    +0.033 A 
ATOM      7  C   UNL     1       9.588  -0.750  21.557  0.00  0.00    +0.111 A 
ATOM      8  N   UNL     1       9.902  -1.592  22.565  0.00  0.00    -0.263 NA
ATOM      9  C   UNL     1      10.260  -1.038  23.744  0.00  0.00    +0.111 A 
ATOM     10  C   UNL     1      10.333   0.327  23.960  0.00  0.00    +0.033 A 
ENDBRANCH   3   5
BRANCH   1  11
ATOM     11  N   UNL     1       8.888   4.735  22.929  0.00  0.00    -0.238 NA
ATOM     12  H   UNL     1       9.344   4.982  23.819  0.00  0.00    +0.145 HD
BRANCH  11  14
ATOM     13  C   UNL     1       7.390   6.398  21.964  0.00  0.00    +0.025 C 
ATOM     14  C   UNL     1       7.503   5.237  22.953  0.00  0.00    +0.067 C 
ATOM     15  C   UNL     1       6.499   4.143  22.577  0.00  0.00    +0.025 C 
ENDBRANCH  11  14
ENDBRANCH   1  11
TORSDOF 3
ENDMDL
MODEL 7
REMARK VINA RESULT:      -4.8      3.849      5.695
REMARK  Name = 
REMARK  5 active torsions:
REMARK  status: ('A' for Active; 'I' for Inactive)
REMARK    1  A    between atoms: C_1  and  C_2
REMARK    2  A    between atoms: C_2  and  C_3
REMARK    3  A    between atoms: C_2  and  N_4
REMARK    4  A    between atoms: N_4  and  N_5
REMARK    5  A    between atoms: C_6  and  C_8
REMARK                            x       y       z     vdW  Elec       q    Type
REMARK                         _______ _______ _______ _____ _____    ______ ____
ROOT
ATOM      1  N   UNL     1       8.898  -1.421  21.841  0.00  0.00    -0.247 N 
ATOM      2  H   UNL     1       8.140  -1.404  21.163  0.00  0.00    +0.169 HD
ATOM      3  C   UNL     1       8.947  -2.428  22.795  0.00  0.00    +0.258 C 
ATOM      4  O   UNL     1       9.951  -2.720  23.434  0.00  0.00    -0.269 OA
ENDROOT
BRANCH   3   5
ATOM      5  C   UNL     1       7.676  -3.174  22.988  0.00  0.00    +0.041 A 
ATOM      6  C   UNL     1       6.461  -2.657  22.533  0.00  0.00    +0.033 A 
ATOM      7  C   UNL     1       5.318  -3.405  22.748  0.00  0.00    +0.111 A 
ATOM      8  N   UNL     1       5.315  -4.601  23.374  0.00  0.00    -0.263 NA
ATOM      9  C   UNL     1       6.502  -5.065  23.822  0.00  0.00    +0.111 A 
ATOM     10  C   UNL     1       7.700  -4.394  23.660  0.00  0.00    +0.033 A 
ENDBRANCH   3   5
BRANCH   1  11
ATOM     11  N   UNL     1      10.057  -0.678  21.537  0.00  0.00    -0.238 NA
ATOM     12  H   UNL     1      10.829  -1.087  22.082  0.00  0.00    +0.145 HD
BRANCH  11  14
ATOM     13  C   UNL     1       8.464   1.163  21.644  0.00  0.00    +0.025 C 
ATOM     14  C   UNL     1       9.906   0.737  21.920  0.00  0.00    +0.067 C 
ATOM     15  C   UNL     1      10.233   0.959  23.400  0.00  0.00    +0.025 C 
ENDBRANCH  11  14
ENDBRANCH   1  11
TORSDOF 3
ENDMDL
MODEL 8
REMARK VINA RESULT:      -4.8      4.851      6.844
REMARK  Name = 
REMARK  5 active torsions:
REMARK  status: ('A' for Active; 'I' for Inactive)
REMARK    1  A    between atoms: C_1  and  C_2
REMARK    2  A    between atoms: C_2  and  C_3
REMARK    3  A    between atoms: C_2  and  N_4
REMARK    4  A    between atoms: N_4  and  N_5
REMARK    5  A    between atoms: C_6  and  C_8
REMARK                            x       y       z     vdW  Elec       q    Type
REMARK                         _______ _______ _______ _____ _____    ______ ____
ROOT
ATOM      1  N   UNL     1       8.542  -2.625  23.142  0.00  0.00    -0.247 N 
ATOM      2  H   UNL     1       8.698  -2.131  24.016  0.00  0.00    +0.169 HD
ATOM      3  C   UNL     1       7.805  -3.801  23.136  0.00  0.00    +0.258 C 
ATOM      4  O   UNL     1       7.301  -4.291  22.132  0.00  0.00    -0.269 OA
ENDROOT
BRANCH   3   5
ATOM      5  C   UNL     1       7.634  -4.443  24.466  0.00  0.00    +0.041 A 
ATOM      6  C   UNL     1       8.662  -4.427  25.411  0.00  0.00    +0.033 A 
ATOM      7  C   UNL     1       8.434  -5.044  26.626  0.00  0.00    +0.111 A 
ATOM      8  N   UNL     1       7.275  -5.661  26.945  0.00  0.00    -0.263 NA
ATOM      9  C   UNL     1       6.307  -5.679  26.003  0.00  0.00    +0.111 A 
ATOM     10  C   UNL     1       6.437  -5.094  24.756  0.00  0.00    +0.033 A 
ENDBRANCH   3   5
BRANCH   1  11
ATOM     11  N   UNL     1       8.729  -1.902  21.946  0.00  0.00    -0.238 NA
ATOM     12  H   UNL     1       8.984  -2.585  21.218  0.00  0.00    +0.145 HD
BRANCH  11  14
ATOM     13  C   UNL     1       9.359   0.403  21.463  0.00  0.00    +0.025 C 
ATOM     14  C   UNL     1       9.821  -0.920  22.074  0.00  0.00    +0.067 C 
ATOM     15  C   UNL     1      10.213  -0.699  23.539  0.00  0.00    +0.025 C 
ENDBRANCH  11  14
ENDBRANCH   1  11
TORSDOF 3
ENDMDL
MODEL 9
REMARK VINA RESULT:      -4.8      4.759      6.892
REMARK  Name = 
REMARK  5 active torsions:
REMARK  status: ('A' for Active; 'I' for Inactive)
REMARK    1  A    between atoms: C_1  and  C_2
REMARK    2  A    between atoms: C_2  and  C_3
REMARK    3  A    between atoms: C_2  and  N_4
REMARK    4  A    between atoms: N_4  and  N_5
REMARK    5  A    between atoms: C_6  and  C_8
REMARK                            x       y       z     vdW  Elec       q    Type
REMARK                         _______ _______ _______ _____ _____    ______ ____
ROOT
ATOM      1  N   UNL     1       8.672  -2.678  23.573  0.00  0.00    -0.247 N 
ATOM      2  H   UNL     1       8.130  -2.191  22.863  0.00  0.00    +0.169 HD
ATOM      3  C   UNL     1       8.446  -4.027  23.807  0.00  0.00    +0.258 C 
ATOM      4  O   UNL     1       9.232  -4.763  24.392  0.00  0.00    -0.269 OA
ENDROOT
BRANCH   3   5
ATOM      5  C   UNL     1       7.164  -4.554  23.269  0.00  0.00    +0.041 A 
ATOM      6  C   UNL     1       7.147  -5.582  22.325  0.00  0.00    +0.033 A 
ATOM      7  C   UNL     1       5.918  -6.021  21.869  0.00  0.00    +0.111 A 
ATOM      8  N   UNL     1       4.741  -5.508  22.283  0.00  0.00    -0.263 NA
ATOM      9  C   UNL     1       4.789  -4.499  23.180  0.00  0.00    +0.111 A 
ATOM     10  C   UNL     1       5.966  -3.986  23.697  0.00  0.00    +0.033 A 
ENDBRANCH   3   5
BRANCH   1  11
ATOM     11  N   UNL     1       9.876  -2.078  23.994  0.00  0.00    -0.238 NA
ATOM     12  H   UNL     1       9.672  -1.579  24.872  0.00  0.00    +0.145 HD
BRANCH  11  14
ATOM     13  C   UNL     1       9.397  -1.079  21.824  0.00  0.00    +0.025 C 
ATOM     14  C   UNL     1      10.371  -1.107  23.002  0.00  0.00    +0.067 C 
ATOM     15  C   UNL     1      10.494   0.298  23.600  0.00  0.00    +0.025 C 
ENDBRANCH  11  14
ENDBRANCH   1  11
TORSDOF 3
ENDMDL
