MODEL 1
REMARK VINA RESULT:      -6.6      0.000      0.000
REMARK  Name = 
REMARK  8 active torsions:
REMARK  status: ('A' for Active; 'I' for Inactive)
REMARK    1  A    between atoms: C_1  and  C_2
REMARK    2  A    between atoms: C_2  and  C_3
REMARK    3  A    between atoms: C_3  and  C_4
REMARK    4  A    between atoms: C_4  and  N_5
REMARK    5  A    between atoms: N_5  and  C_6
REMARK    6  A    between atoms: C_8  and  C_9
REMARK    7  A    between atoms: N_14  and  C_15
REMARK    8  A    between atoms: C_21  and  C_22
REMARK                            x       y       z     vdW  Elec       q    Type
REMARK                         _______ _______ _______ _____ _____    ______ ____
ROOT
ATOM      1  C   UNL     1       7.563   2.267  22.107  0.00  0.00    +0.126 A 
ATOM      2  N   UNL     1       6.874   1.364  22.935  0.00  0.00    -0.181 N 
ATOM      3  C   UNL     1       5.904   1.770  23.843  0.00  0.00    +0.256 A 
ATOM      4  N   UNL     1       5.516   0.712  24.535  0.00  0.00    -0.176 NA
ATOM      5  C   UNL     1       6.264  -0.314  24.023  0.00  0.00    +0.241 A 
ATOM      6  N   UNL     1       6.112  -1.555  24.528  0.00  0.00    -0.282 N 
ATOM      7  H   UNL     1       5.391  -1.663  25.227  0.00  0.00    +0.155 HD
ATOM      8  N   UNL     1       5.518   3.080  23.928  0.00  0.00    -0.216 NA
ATOM      9  C   UNL     1       6.137   3.918  23.144  0.00  0.00    +0.045 A 
ATOM     10  C   UNL     1       5.737   5.373  23.187  0.00  0.00    +0.066 C 
ATOM     11  N   UNL     1       7.068   0.037  23.021  0.00  0.00    -0.126 NA
ATOM     12  C   UNL     1       7.229   3.563  22.180  0.00  0.00    +0.066 A 
ENDROOT
BRANCH   6  13
ATOM     13  C   UNL     1       6.817  -2.738  24.194  0.00  0.00    +0.038 A 
ATOM     14  C   UNL     1       7.847  -3.231  25.024  0.00  0.00    -0.029 A 
ATOM     15  C   UNL     1       8.326  -2.473  26.234  0.00  0.00    +0.045 C 
ATOM     16  C   UNL     1       8.424  -4.488  24.754  0.00  0.00    +0.006 A 
ATOM     17  C   UNL     1       7.992  -5.264  23.679  0.00  0.00    +0.020 A 
ATOM     18  C   UNL     1       6.993  -4.777  22.850  0.00  0.00    +0.043 A 
ATOM     19 CL   UNL     1       6.431  -5.725  21.526  0.00  0.00    -0.083 Cl
ATOM     20  C   UNL     1       6.423  -3.533  23.098  0.00  0.00    +0.043 A 
ENDBRANCH   6  13
BRANCH   1  21
ATOM     21  N   UNL     1       8.558   1.739  21.276  0.00  0.00    -0.329 N 
ATOM     22  H   UNL     1       8.136   1.001  20.694  0.00  0.00    +0.147 HD
BRANCH  21  23
ATOM     23  C   UNL     1       9.835   1.285  21.818  0.00  0.00    +0.103 C 
BRANCH  23  24
ATOM     24  C   UNL     1      10.334   2.256  22.885  0.00  0.00    +0.018 C 
BRANCH  24  26
ATOM     25  C   UNL     1      10.412   0.063  24.124  0.00  0.00    +0.004 C 
ATOM     26  C   UNL     1      10.543   1.573  24.236  0.00  0.00    -0.002 C 
ENDBRANCH  24  26
ENDBRANCH  23  24
ENDBRANCH  21  23
ENDBRANCH   1  21
TORSDOF 5
ENDMDL
MODEL 2
REMARK VINA RESULT:      -6.6      3.144      6.822
REMARK  Name = 
REMARK  8 active torsions:
REMARK  status: ('A' for Active; 'I' for Inactive)
REMARK    1  A    between atoms: C_1  and  C_2
REMARK    2  A    between atoms: C_2  and  C_3
REMARK    3  A    between atoms: C_3  and  C_4
REMARK    4  A    between atoms: C_4  and  N_5
REMARK    5  A    between atoms: N_5  and  C_6
REMARK    6  A    between atoms: C_8  and  C_9
REMARK    7  A    between atoms: N_14  and  C_15
REMARK    8  A    between atoms: C_21  and  C_22
REMARK                            x       y       z     vdW  Elec       q    Type
REMARK                         _______ _______ _______ _____ _____    ______ ____
ROOT
ATOM      1  C   UNL     1       5.474  -4.415  25.343  0.00  0.00    +0.126 A 
ATOM      2  N   UNL     1       5.762  -3.483  24.332  0.00  0.00    -0.181 N 
ATOM      3  C   UNL     1       5.211  -3.561  23.060  0.00  0.00    +0.256 A 
ATOM      4  N   UNL     1       5.747  -2.608  22.316  0.00  0.00    -0.176 NA
ATOM      5  C   UNL     1       6.614  -1.972  23.163  0.00  0.00    +0.241 A 
ATOM      6  N   UNL     1       7.342  -0.935  22.703  0.00  0.00    -0.282 N 
ATOM      7  H   UNL     1       7.149  -0.646  21.755  0.00  0.00    +0.155 HD
ATOM      8  N   UNL     1       4.292  -4.525  22.746  0.00  0.00    -0.216 NA
ATOM      9  C   UNL     1       4.002  -5.378  23.688  0.00  0.00    +0.045 A 
ATOM     10  C   UNL     1       2.981  -6.451  23.397  0.00  0.00    +0.066 C 
ATOM     11  N   UNL     1       6.619  -2.449  24.407  0.00  0.00    -0.126 NA
ATOM     12  C   UNL     1       4.596  -5.389  25.064  0.00  0.00    +0.066 A 
ENDROOT
BRANCH   6  13
ATOM     13  C   UNL     1       8.331  -0.179  23.380  0.00  0.00    +0.038 A 
ATOM     14  C   UNL     1       9.668  -0.627  23.452  0.00  0.00    -0.029 A 
ATOM     15  C   UNL     1      10.087  -1.972  22.919  0.00  0.00    +0.045 C 
ATOM     16  C   UNL     1      10.661   0.214  23.993  0.00  0.00    +0.006 A 
ATOM     17  C   UNL     1      10.351   1.491  24.457  0.00  0.00    +0.020 A 
ATOM     18  C   UNL     1       9.036   1.929  24.405  0.00  0.00    +0.043 A 
ATOM     19 CL   UNL     1       8.631   3.510  24.957  0.00  0.00    -0.083 Cl
ATOM     20  C   UNL     1       8.044   1.105  23.885  0.00  0.00    +0.043 A 
ENDBRANCH   6  13
BRANCH   1  21
ATOM     21  N   UNL     1       6.139  -4.259  26.565  0.00  0.00    -0.329 N 
ATOM     22  H   UNL     1       6.339  -3.257  26.700  0.00  0.00    +0.147 HD
BRANCH  21  23
ATOM     23  C   UNL     1       7.317  -5.056  26.893  0.00  0.00    +0.103 C 
BRANCH  23  24
ATOM     24  C   UNL     1       8.589  -4.246  26.652  0.00  0.00    +0.018 C 
BRANCH  24  26
ATOM     25  C   UNL     1       8.836  -5.362  24.407  0.00  0.00    +0.004 C 
ATOM     26  C   UNL     1       9.544  -4.944  25.684  0.00  0.00    -0.002 C 
ENDBRANCH  24  26
ENDBRANCH  23  24
ENDBRANCH  21  23
ENDBRANCH   1  21
TORSDOF 5
ENDMDL
MODEL 3
REMARK VINA RESULT:      -6.5      3.360      7.050
REMARK  Name = 
REMARK  8 active torsions:
REMARK  status: ('A' for Active; 'I' for Inactive)
REMARK    1  A    between atoms: C_1  and  C_2
REMARK    2  A    between atoms: C_2  and  C_3
REMARK    3  A    between atoms: C_3  and  C_4
REMARK    4  A    between atoms: C_4  and  N_5
REMARK    5  A    between atoms: N_5  and  C_6
REMARK    6  A    between atoms: C_8  and  C_9
REMARK    7  A    between atoms: N_14  and  C_15
REMARK    8  A    between atoms: C_21  and  C_22
REMARK                            x       y       z     vdW  Elec       q    Type
REMARK                         _______ _______ _______ _____ _____    ______ ____
ROOT
ATOM      1  C   UNL     1       5.726  -3.658  25.005  0.00  0.00    +0.126 A 
ATOM      2  N   UNL     1       6.955  -3.044  25.305  0.00  0.00    -0.181 N 
ATOM      3  C   UNL     1       7.713  -3.386  26.418  0.00  0.00    +0.256 A 
ATOM      4  N   UNL     1       8.753  -2.573  26.477  0.00  0.00    -0.176 NA
ATOM      5  C   UNL     1       8.598  -1.755  25.390  0.00  0.00    +0.241 A 
ATOM      6  N   UNL     1       9.507  -0.786  25.161  0.00  0.00    -0.282 N 
ATOM      7  H   UNL     1      10.300  -0.766  25.788  0.00  0.00    +0.155 HD
ATOM      8  N   UNL     1       7.327  -4.401  27.250  0.00  0.00    -0.216 NA
ATOM      9  C   UNL     1       6.200  -4.991  26.962  0.00  0.00    +0.045 A 
ATOM     10  C   UNL     1       5.739  -6.128  27.841  0.00  0.00    +0.066 C 
ATOM     11  N   UNL     1       7.541  -2.039  24.632  0.00  0.00    -0.126 NA
ATOM     12  C   UNL     1       5.304  -4.640  25.813  0.00  0.00    +0.066 A 
ENDROOT
BRANCH   6  13
ATOM     13  C   UNL     1       9.512   0.201  24.144  0.00  0.00    +0.038 A 
ATOM     14  C   UNL     1       9.882  -0.120  22.820  0.00  0.00    -0.029 A 
ATOM     15  C   UNL     1      10.398  -1.484  22.446  0.00  0.00    +0.045 C 
ATOM     16  C   UNL     1       9.729   0.838  21.798  0.00  0.00    +0.006 A 
ATOM     17  C   UNL     1       9.210   2.104  22.066  0.00  0.00    +0.020 A 
ATOM     18  C   UNL     1       8.861   2.430  23.368  0.00  0.00    +0.043 A 
ATOM     19 CL   UNL     1       8.201   3.982  23.722  0.00  0.00    -0.083 Cl
ATOM     20  C   UNL     1       9.018   1.499  24.389  0.00  0.00    +0.043 A 
ENDBRANCH   6  13
BRANCH   1  21
ATOM     21  N   UNL     1       5.032  -3.183  23.886  0.00  0.00    -0.329 N 
ATOM     22  H   UNL     1       4.133  -2.793  24.204  0.00  0.00    +0.147 HD
BRANCH  21  23
ATOM     23  C   UNL     1       4.828  -4.023  22.710  0.00  0.00    +0.103 C 
BRANCH  23  24
ATOM     24  C   UNL     1       6.044  -3.950  21.789  0.00  0.00    +0.018 C 
BRANCH  24  26
ATOM     25  C   UNL     1       6.902  -6.268  22.277  0.00  0.00    +0.004 C 
ATOM     26  C   UNL     1       6.407  -5.314  21.203  0.00  0.00    -0.002 C 
ENDBRANCH  24  26
ENDBRANCH  23  24
ENDBRANCH  21  23
ENDBRANCH   1  21
TORSDOF 5
ENDMDL
MODEL 4
REMARK VINA RESULT:      -6.3      2.475      4.238
REMARK  Name = 
REMARK  8 active torsions:
REMARK  status: ('A' for Active; 'I' for Inactive)
REMARK    1  A    between atoms: C_1  and  C_2
REMARK    2  A    between atoms: C_2  and  C_3
REMARK    3  A    between atoms: C_3  and  C_4
REMARK    4  A    between atoms: C_4  and  N_5
REMARK    5  A    between atoms: N_5  and  C_6
REMARK    6  A    between atoms: C_8  and  C_9
REMARK    7  A    between atoms: N_14  and  C_15
REMARK    8  A    between atoms: C_21  and  C_22
REMARK                            x       y       z     vdW  Elec       q    Type
REMARK                         _______ _______ _______ _____ _____    ______ ____
ROOT
ATOM      1  C   UNL     1       7.378   0.433  23.367  0.00  0.00    +0.126 A 
ATOM      2  N   UNL     1       7.939  -0.853  23.456  0.00  0.00    -0.181 N 
ATOM      3  C   UNL     1       9.262  -1.120  23.127  0.00  0.00    +0.256 A 
ATOM      4  N   UNL     1       9.457  -2.423  23.220  0.00  0.00    -0.176 NA
ATOM      5  C   UNL     1       8.240  -2.916  23.607  0.00  0.00    +0.241 A 
ATOM      6  N   UNL     1       8.095  -4.245  23.787  0.00  0.00    -0.282 N 
ATOM      7  H   UNL     1       8.933  -4.799  23.683  0.00  0.00    +0.155 HD
ATOM      8  N   UNL     1      10.115  -0.114  22.761  0.00  0.00    -0.216 NA
ATOM      9  C   UNL     1       9.606   1.085  22.700  0.00  0.00    +0.045 A 
ATOM     10  C   UNL     1      10.511   2.231  22.317  0.00  0.00    +0.066 C 
ATOM     11  N   UNL     1       7.306  -1.988  23.801  0.00  0.00    -0.126 NA
ATOM     12  C   UNL     1       8.179   1.439  22.987  0.00  0.00    +0.066 A 
ENDROOT
BRANCH   6  13
ATOM     13  C   UNL     1       6.925  -4.969  24.123  0.00  0.00    +0.038 A 
ATOM     14  C   UNL     1       6.140  -5.589  23.127  0.00  0.00    -0.029 A 
ATOM     15  C   UNL     1       6.436  -5.419  21.660  0.00  0.00    +0.045 C 
ATOM     16  C   UNL     1       5.073  -6.432  23.498  0.00  0.00    +0.006 A 
ATOM     17  C   UNL     1       4.776  -6.673  24.839  0.00  0.00    +0.020 A 
ATOM     18  C   UNL     1       5.533  -6.052  25.821  0.00  0.00    +0.043 A 
ATOM     19 CL   UNL     1       5.196  -6.348  27.485  0.00  0.00    -0.083 Cl
ATOM     20  C   UNL     1       6.581  -5.209  25.469  0.00  0.00    +0.043 A 
ENDBRANCH   6  13
BRANCH   1  21
ATOM     21  N   UNL     1       6.018   0.559  23.672  0.00  0.00    -0.329 N 
ATOM     22  H   UNL     1       5.533   0.934  22.843  0.00  0.00    +0.147 HD
BRANCH  21  23
ATOM     23  C   UNL     1       5.574   1.259  24.874  0.00  0.00    +0.103 C 
BRANCH  23  24
ATOM     24  C   UNL     1       5.675   0.340  26.090  0.00  0.00    +0.018 C 
BRANCH  24  26
ATOM     25  C   UNL     1       7.890  -0.394  27.042  0.00  0.00    +0.004 C 
ATOM     26  C   UNL     1       6.848   0.711  26.997  0.00  0.00    -0.002 C 
ENDBRANCH  24  26
ENDBRANCH  23  24
ENDBRANCH  21  23
ENDBRANCH   1  21
TORSDOF 5
ENDMDL
MODEL 5
REMARK VINA RESULT:      -6.3      1.966      3.507
REMARK  Name = 
REMARK  8 active torsions:
REMARK  status: ('A' for Active; 'I' for Inactive)
REMARK    1  A    between atoms: C_1  and  C_2
REMARK    2  A    between atoms: C_2  and  C_3
REMARK    3  A    between atoms: C_3  and  C_4
REMARK    4  A    between atoms: C_4  and  N_5
REMARK    5  A    between atoms: N_5  and  C_6
REMARK    6  A    between atoms: C_8  and  C_9
REMARK    7  A    between atoms: N_14  and  C_15
REMARK    8  A    between atoms: C_21  and  C_22
REMARK                            x       y       z     vdW  Elec       q    Type
REMARK                         _______ _______ _______ _____ _____    ______ ____
ROOT
ATOM      1  C   UNL     1       7.876   1.241  23.382  0.00  0.00    +0.126 A 
ATOM      2  N   UNL     1       8.568   0.060  23.700  0.00  0.00    -0.181 N 
ATOM      3  C   UNL     1       9.946   0.019  23.868  0.00  0.00    +0.256 A 
ATOM      4  N   UNL     1      10.304  -1.238  24.061  0.00  0.00    -0.176 NA
ATOM      5  C   UNL     1       9.125  -1.932  24.006  0.00  0.00    +0.241 A 
ATOM      6  N   UNL     1       9.142  -3.272  24.159  0.00  0.00    -0.282 N 
ATOM      7  H   UNL     1      10.040  -3.681  24.374  0.00  0.00    +0.155 HD
ATOM      8  N   UNL     1      10.700   1.160  23.800  0.00  0.00    -0.216 NA
ATOM      9  C   UNL     1      10.059   2.263  23.530  0.00  0.00    +0.045 A 
ATOM     10  C   UNL     1      10.843   3.550  23.459  0.00  0.00    +0.066 C 
ATOM     11  N   UNL     1       8.046  -1.172  23.830  0.00  0.00    -0.126 NA
ATOM     12  C   UNL     1       8.586   2.374  23.282  0.00  0.00    +0.066 A 
ENDROOT
BRANCH   6  13
ATOM     13  C   UNL     1       8.061  -4.185  24.080  0.00  0.00    +0.038 A 
ATOM     14  C   UNL     1       7.326  -4.546  25.229  0.00  0.00    -0.029 A 
ATOM     15  C   UNL     1       7.719  -4.076  26.605  0.00  0.00    +0.045 C 
ATOM     16  C   UNL     1       6.163  -5.331  25.100  0.00  0.00    +0.006 A 
ATOM     17  C   UNL     1       5.715  -5.757  23.850  0.00  0.00    +0.020 A 
ATOM     18  C   UNL     1       6.443  -5.420  22.720  0.00  0.00    +0.043 A 
ATOM     19 CL   UNL     1       5.900  -5.921  21.163  0.00  0.00    -0.083 Cl
ATOM     20  C   UNL     1       7.600  -4.656  22.833  0.00  0.00    +0.043 A 
ENDBRANCH   6  13
BRANCH   1  21
ATOM     21  N   UNL     1       6.494   1.138  23.182  0.00  0.00    -0.329 N 
ATOM     22  H   UNL     1       6.282   1.446  22.222  0.00  0.00    +0.147 HD
BRANCH  21  23
ATOM     23  C   UNL     1       5.547   1.729  24.123  0.00  0.00    +0.103 C 
BRANCH  23  24
ATOM     24  C   UNL     1       5.405   0.844  25.359  0.00  0.00    +0.018 C 
BRANCH  24  26
ATOM     25  C   UNL     1       7.248   0.475  27.037  0.00  0.00    +0.004 C 
ATOM     26  C   UNL     1       6.151   1.414  26.565  0.00  0.00    -0.002 C 
ENDBRANCH  24  26
ENDBRANCH  23  24
ENDBRANCH  21  23
ENDBRANCH   1  21
TORSDOF 5
ENDMDL
MODEL 6
REMARK VINA RESULT:      -6.1      3.365      6.750
REMARK  Name = 
REMARK  8 active torsions:
REMARK  status: ('A' for Active; 'I' for Inactive)
REMARK    1  A    between atoms: C_1  and  C_2
REMARK    2  A    between atoms: C_2  and  C_3
REMARK    3  A    between atoms: C_3  and  C_4
REMARK    4  A    between atoms: C_4  and  N_5
REMARK    5  A    between atoms: N_5  and  C_6
REMARK    6  A    between atoms: C_8  and  C_9
REMARK    7  A    between atoms: N_14  and  C_15
REMARK    8  A    between atoms: C_21  and  C_22
REMARK                            x       y       z     vdW  Elec       q    Type
REMARK                         _______ _______ _______ _____ _____    ______ ____
ROOT
ATOM      1  C   UNL     1       9.076  -2.273  24.439  0.00  0.00    +0.126 A 
ATOM      2  N   UNL     1       8.455  -1.199  25.099  0.00  0.00    -0.181 N 
ATOM      3  C   UNL     1       7.676  -1.366  26.237  0.00  0.00    +0.256 A 
ATOM      4  N   UNL     1       7.156  -0.195  26.560  0.00  0.00    -0.176 NA
ATOM      5  C   UNL     1       7.638   0.658  25.603  0.00  0.00    +0.241 A 
ATOM      6  N   UNL     1       7.281   1.958  25.641  0.00  0.00    -0.282 N 
ATOM      7  H   UNL     1       6.717   2.240  26.431  0.00  0.00    +0.155 HD
ATOM      8  N   UNL     1       7.531  -2.596  26.820  0.00  0.00    -0.216 NA
ATOM      9  C   UNL     1       8.127  -3.593  26.226  0.00  0.00    +0.045 A 
ATOM     10  C   UNL     1       8.011  -4.967  26.838  0.00  0.00    +0.066 C 
ATOM     11  N   UNL     1       8.464   0.093  24.725  0.00  0.00    -0.126 NA
ATOM     12  C   UNL     1       8.936  -3.497  24.968  0.00  0.00    +0.066 A 
ENDROOT
BRANCH   6  13
ATOM     13  C   UNL     1       7.609   2.992  24.729  0.00  0.00    +0.038 A 
ATOM     14  C   UNL     1       6.784   3.274  23.619  0.00  0.00    -0.029 A 
ATOM     15  C   UNL     1       5.586   2.425  23.282  0.00  0.00    +0.045 C 
ATOM     16  C   UNL     1       7.047   4.404  22.819  0.00  0.00    +0.006 A 
ATOM     17  C   UNL     1       8.109   5.260  23.105  0.00  0.00    +0.020 A 
ATOM     18  C   UNL     1       8.933   4.978  24.184  0.00  0.00    +0.043 A 
ATOM     19 CL   UNL     1      10.243   6.030  24.568  0.00  0.00    -0.083 Cl
ATOM     20  C   UNL     1       8.693   3.860  24.975  0.00  0.00    +0.043 A 
ENDBRANCH   6  13
BRANCH   1  21
ATOM     21  N   UNL     1       9.787  -1.980  23.270  0.00  0.00    -0.329 N 
ATOM     22  H   UNL     1      10.431  -1.200  23.469  0.00  0.00    +0.147 HD
BRANCH  21  23
ATOM     23  C   UNL     1       9.099  -1.754  22.002  0.00  0.00    +0.103 C 
BRANCH  23  24
ATOM     24  C   UNL     1       9.724  -0.574  21.262  0.00  0.00    +0.018 C 
BRANCH  24  26
ATOM     25  C   UNL     1       9.940   1.823  22.011  0.00  0.00    +0.004 C 
ATOM     26  C   UNL     1       8.988   0.737  21.541  0.00  0.00    -0.002 C 
ENDBRANCH  24  26
ENDBRANCH  23  24
ENDBRANCH  21  23
ENDBRANCH   1  21
TORSDOF 5
ENDMDL
MODEL 7
REMARK VINA RESULT:      -6.1      1.968      2.534
REMARK  Name = 
REMARK  8 active torsions:
REMARK  status: ('A' for Active; 'I' for Inactive)
REMARK    1  A    between atoms: C_1  and  C_2
REMARK    2  A    between atoms: C_2  and  C_3
REMARK    3  A    between atoms: C_3  and  C_4
REMARK    4  A    between atoms: C_4  and  N_5
REMARK    5  A    between atoms: N_5  and  C_6
REMARK    6  A    between atoms: C_8  and  C_9
REMARK    7  A    between atoms: N_14  and  C_15
REMARK    8  A    between atoms: C_21  and  C_22
REMARK                            x       y       z     vdW  Elec       q    Type
REMARK                         _______ _______ _______ _____ _____    ______ ____
ROOT
ATOM      1  C   UNL     1       8.282   2.395  24.889  0.00  0.00    +0.126 A 
ATOM      2  N   UNL     1       7.236   1.460  24.799  0.00  0.00    -0.181 N 
ATOM      3  C   UNL     1       5.903   1.804  24.984  0.00  0.00    +0.256 A 
ATOM      4  N   UNL     1       5.179   0.699  24.934  0.00  0.00    -0.176 NA
ATOM      5  C   UNL     1       6.098  -0.292  24.717  0.00  0.00    +0.241 A 
ATOM      6  N   UNL     1       5.678  -1.570  24.623  0.00  0.00    -0.282 N 
ATOM      7  H   UNL     1       4.677  -1.710  24.656  0.00  0.00    +0.155 HD
ATOM      8  N   UNL     1       5.532   3.104  25.197  0.00  0.00    -0.216 NA
ATOM      9  C   UNL     1       6.497   3.980  25.256  0.00  0.00    +0.045 A 
ATOM     10  C   UNL     1       6.138   5.430  25.473  0.00  0.00    +0.066 C 
ATOM     11  N   UNL     1       7.352   0.137  24.587  0.00  0.00    -0.126 NA
ATOM     12  C   UNL     1       7.958   3.675  25.121  0.00  0.00    +0.066 A 
ENDROOT
BRANCH   6  13
ATOM     13  C   UNL     1       6.451  -2.746  24.463  0.00  0.00    +0.038 A 
ATOM     14  C   UNL     1       6.493  -3.427  23.227  0.00  0.00    -0.029 A 
ATOM     15  C   UNL     1       5.637  -3.012  22.059  0.00  0.00    +0.045 C 
ATOM     16  C   UNL     1       7.389  -4.501  23.049  0.00  0.00    +0.006 A 
ATOM     17  C   UNL     1       8.245  -4.904  24.072  0.00  0.00    +0.020 A 
ATOM     18  C   UNL     1       8.196  -4.249  25.293  0.00  0.00    +0.043 A 
ATOM     19 CL   UNL     1       9.256  -4.718  26.568  0.00  0.00    -0.083 Cl
ATOM     20  C   UNL     1       7.308  -3.196  25.487  0.00  0.00    +0.043 A 
ENDBRANCH   6  13
BRANCH   1  21
ATOM     21  N   UNL     1       9.587   1.911  24.739  0.00  0.00    -0.329 N 
ATOM     22  H   UNL     1      10.048   1.931  25.660  0.00  0.00    +0.147 HD
BRANCH  21  23
ATOM     23  C   UNL     1      10.480   2.447  23.716  0.00  0.00    +0.103 C 
BRANCH  23  24
ATOM     24  C   UNL     1      10.141   1.851  22.351  0.00  0.00    +0.018 C 
BRANCH  24  26
ATOM     25  C   UNL     1       9.178  -0.265  21.381  0.00  0.00    +0.004 C 
ATOM     26  C   UNL     1      10.175   0.323  22.364  0.00  0.00    -0.002 C 
ENDBRANCH  24  26
ENDBRANCH  23  24
ENDBRANCH  21  23
ENDBRANCH   1  21
TORSDOF 5
ENDMDL
MODEL 8
REMARK VINA RESULT:      -6.1      2.347      4.422
REMARK  Name = 
REMARK  8 active torsions:
REMARK  status: ('A' for Active; 'I' for Inactive)
REMARK    1  A    between atoms: C_1  and  C_2
REMARK    2  A    between atoms: C_2  and  C_3
REMARK    3  A    between atoms: C_3  and  C_4
REMARK    4  A    between atoms: C_4  and  N_5
REMARK    5  A    between atoms: N_5  and  C_6
REMARK    6  A    between atoms: C_8  and  C_9
REMARK    7  A    between atoms: N_14  and  C_15
REMARK    8  A    between atoms: C_21  and  C_22
REMARK                            x       y       z     vdW  Elec       q    Type
REMARK                         _______ _______ _______ _____ _____    ______ ____
ROOT
ATOM      1  C   UNL     1       7.364   0.435  23.385  0.00  0.00    +0.126 A 
ATOM      2  N   UNL     1       7.924  -0.851  23.474  0.00  0.00    -0.181 N 
ATOM      3  C   UNL     1       9.253  -1.114  23.167  0.00  0.00    +0.256 A 
ATOM      4  N   UNL     1       9.448  -2.418  23.253  0.00  0.00    -0.176 NA
ATOM      5  C   UNL     1       8.225  -2.915  23.613  0.00  0.00    +0.241 A 
ATOM      6  N   UNL     1       8.077  -4.245  23.780  0.00  0.00    -0.282 N 
ATOM      7  H   UNL     1       8.918  -4.798  23.686  0.00  0.00    +0.155 HD
ATOM      8  N   UNL     1      10.112  -0.105  22.824  0.00  0.00    -0.216 NA
ATOM      9  C   UNL     1       9.604   1.094  22.764  0.00  0.00    +0.045 A 
ATOM     10  C   UNL     1      10.514   2.244  22.406  0.00  0.00    +0.066 C 
ATOM     11  N   UNL     1       7.286  -1.989  23.798  0.00  0.00    -0.126 NA
ATOM     12  C   UNL     1       8.171   1.445  23.028  0.00  0.00    +0.066 A 
ENDROOT
BRANCH   6  13
ATOM     13  C   UNL     1       6.902  -4.973  24.089  0.00  0.00    +0.038 A 
ATOM     14  C   UNL     1       6.132  -5.580  23.073  0.00  0.00    -0.029 A 
ATOM     15  C   UNL     1       6.450  -5.391  21.613  0.00  0.00    +0.045 C 
ATOM     16  C   UNL     1       5.059  -6.426  23.417  0.00  0.00    +0.006 A 
ATOM     17  C   UNL     1       4.742  -6.684  24.750  0.00  0.00    +0.020 A 
ATOM     18  C   UNL     1       5.484  -6.077  25.752  0.00  0.00    +0.043 A 
ATOM     19 CL   UNL     1       5.122  -6.394  27.406  0.00  0.00    -0.083 Cl
ATOM     20  C   UNL     1       6.538  -5.230  25.427  0.00  0.00    +0.043 A 
ENDBRANCH   6  13
BRANCH   1  21
ATOM     21  N   UNL     1       5.999   0.558  23.666  0.00  0.00    -0.329 N 
ATOM     22  H   UNL     1       5.555   1.082  22.897  0.00  0.00    +0.147 HD
BRANCH  21  23
ATOM     23  C   UNL     1       5.534   1.065  24.954  0.00  0.00    +0.103 C 
BRANCH  23  24
ATOM     24  C   UNL     1       5.163   2.542  24.841  0.00  0.00    +0.018 C 
BRANCH  24  26
ATOM     25  C   UNL     1       5.367   4.024  22.813  0.00  0.00    +0.004 C 
ATOM     26  C   UNL     1       4.595   2.890  23.465  0.00  0.00    -0.002 C 
ENDBRANCH  24  26
ENDBRANCH  23  24
ENDBRANCH  21  23
ENDBRANCH   1  21
TORSDOF 5
ENDMDL
MODEL 9
REMARK VINA RESULT:      -6.1      2.338      4.048
REMARK  Name = 
REMARK  8 active torsions:
REMARK  status: ('A' for Active; 'I' for Inactive)
REMARK    1  A    between atoms: C_1  and  C_2
REMARK    2  A    between atoms: C_2  and  C_3
REMARK    3  A    between atoms: C_3  and  C_4
REMARK    4  A    between atoms: C_4  and  N_5
REMARK    5  A    between atoms: N_5  and  C_6
REMARK    6  A    between atoms: C_8  and  C_9
REMARK    7  A    between atoms: N_14  and  C_15
REMARK    8  A    between atoms: C_21  and  C_22
REMARK                            x       y       z     vdW  Elec       q    Type
REMARK                         _______ _______ _______ _____ _____    ______ ____
ROOT
ATOM      1  C   UNL     1       8.176   1.170  24.726  0.00  0.00    +0.126 A 
ATOM      2  N   UNL     1       8.732  -0.075  24.386  0.00  0.00    -0.181 N 
ATOM      3  C   UNL     1       9.931  -0.199  23.696  0.00  0.00    +0.256 A 
ATOM      4  N   UNL     1      10.134  -1.480  23.442  0.00  0.00    -0.176 NA
ATOM      5  C   UNL     1       9.047  -2.104  23.991  0.00  0.00    +0.241 A 
ATOM      6  N   UNL     1       8.940  -3.445  23.897  0.00  0.00    -0.282 N 
ATOM      7  H   UNL     1       9.723  -3.922  23.471  0.00  0.00    +0.155 HD
ATOM      8  N   UNL     1      10.675   0.903  23.369  0.00  0.00    -0.216 NA
ATOM      9  C   UNL     1      10.176   2.060  23.705  0.00  0.00    +0.045 A 
ATOM     10  C   UNL     1      10.966   3.304  23.382  0.00  0.00    +0.066 C 
ATOM     11  N   UNL     1       8.195  -1.288  24.609  0.00  0.00    -0.126 NA
ATOM     12  C   UNL     1       8.866   2.272  24.400  0.00  0.00    +0.066 A 
ENDROOT
BRANCH   6  13
ATOM     13  C   UNL     1       7.884  -4.282  24.334  0.00  0.00    +0.038 A 
ATOM     14  C   UNL     1       7.862  -4.802  25.646  0.00  0.00    -0.029 A 
ATOM     15  C   UNL     1       9.005  -4.594  26.605  0.00  0.00    +0.045 C 
ATOM     16  C   UNL     1       6.727  -5.500  26.105  0.00  0.00    +0.006 A 
ATOM     17  C   UNL     1       5.613  -5.685  25.286  0.00  0.00    +0.020 A 
ATOM     18  C   UNL     1       5.637  -5.191  23.991  0.00  0.00    +0.043 A 
ATOM     19 CL   UNL     1       4.266  -5.392  22.966  0.00  0.00    -0.083 Cl
ATOM     20  C   UNL     1       6.755  -4.511  23.521  0.00  0.00    +0.043 A 
ENDBRANCH   6  13
BRANCH   1  21
ATOM     21  N   UNL     1       6.934   1.160  25.371  0.00  0.00    -0.329 N 
ATOM     22  H   UNL     1       6.307   1.813  24.879  0.00  0.00    +0.147 HD
BRANCH  21  23
ATOM     23  C   UNL     1       6.829   1.353  26.815  0.00  0.00    +0.103 C 
BRANCH  23  24
ATOM     24  C   UNL     1       6.489   0.033  27.503  0.00  0.00    +0.018 C 
BRANCH  24  26
ATOM     25  C   UNL     1       5.422  -2.139  26.801  0.00  0.00    +0.004 C 
ATOM     26  C   UNL     1       5.254  -0.632  26.896  0.00  0.00    -0.002 C 
ENDBRANCH  24  26
ENDBRANCH  23  24
ENDBRANCH  21  23
ENDBRANCH   1  21
TORSDOF 5
ENDMDL
