MODEL 1
REMARK VINA RESULT:      -7.1      0.000      0.000
REMARK  Name = 
REMARK  6 active torsions:
REMARK  status: ('A' for Active; 'I' for Inactive)
REMARK    1  A    between atoms: C_2  and  C_12
REMARK    2  A    between atoms: CA_14  and  C_15
REMARK    3  A    between atoms: C_15  and  O_16
REMARK    4  A    between atoms: C_18  and  C_20
REMARK    5  A    between atoms: C_20  and  C_21
REMARK    6  A    between atoms: C_20  and  C_22
REMARK                            x       y       z     vdW  Elec       q    Type
REMARK                         _______ _______ _______ _____ _____    ______ ____
ROOT
ATOM      1  C   UNL     1       8.783  -2.594  23.376  0.00  0.00    +0.097 A 
ATOM      2  S   UNL     1       8.255  -2.841  25.000  0.00  0.00    -0.074 S 
ATOM      3  C   UNL     1       7.069  -3.949  24.453  0.00  0.00    +0.026 A 
ATOM      4  CA  UNL     1       6.935  -3.825  23.082  0.00  0.00    +0.158 A 
ATOM      5  N   UNL     1       7.982  -3.108  22.453  0.00  0.00    -0.236 NA
ENDROOT
BRANCH   1   6
ATOM      6  C   UNL     1      10.098  -1.836  23.181  0.00  0.00    +0.114 C 
ATOM      7  N   UNL     1      10.321  -1.447  21.763  0.00  0.00    -0.303 NA
ATOM      8  H   UNL     1      11.231  -0.992  21.697  0.00  0.00    +0.123 HD
ATOM      9  C   UNL     1       9.304  -0.481  21.325  0.00  0.00    +0.117 C 
ATOM     10  C   UNL     1       9.145   0.692  22.259  0.00  0.00    -0.030 A 
ATOM     11  C   UNL     1       8.476   1.843  21.817  0.00  0.00    +0.005 A 
ATOM     12  C   UNL     1       8.331   2.943  22.660  0.00  0.00    +0.000 A 
ATOM     13  C   UNL     1       8.861   2.910  23.947  0.00  0.00    +0.000 A 
ATOM     14  C   UNL     1       9.504   1.761  24.408  0.00  0.00    +0.004 A 
ATOM     15  C   UNL     1       9.617   0.636  23.582  0.00  0.00    -0.041 A 
ATOM     16  C   UNL     1      10.297  -0.613  24.094  0.00  0.00    +0.061 C 
ENDBRANCH   1   6
BRANCH   3  17
ATOM     17  C   UNL     1       6.381  -4.875  25.431  0.00  0.00    +0.022 C 
ATOM     18  C   UNL     1       5.084  -4.286  25.982  0.00  0.00    +0.013 C 
ATOM     19  C   UNL     1       7.340  -5.255  26.568  0.00  0.00    +0.013 C 
ENDBRANCH   3  17
BRANCH   4  20
ATOM     20  C   UNL     1       5.874  -4.443  22.272  0.00  0.00    +0.356 C 
ATOM     21  OXT UNL     1       4.692  -4.144  22.329  0.00  0.00    -0.243 OA
BRANCH  20  22
ATOM     22  O   UNL     1       6.350  -5.397  21.430  0.00  0.00    -0.476 OA
ATOM     23  H   UNL     1       7.312  -5.237  21.312  0.00  0.00    +0.295 HD
ENDBRANCH  20  22
ENDBRANCH   4  20
TORSDOF 4
ENDMDL
MODEL 2
REMARK VINA RESULT:      -6.8      2.763      3.595
REMARK  Name = 
REMARK  6 active torsions:
REMARK  status: ('A' for Active; 'I' for Inactive)
REMARK    1  A    between atoms: C_2  and  C_12
REMARK    2  A    between atoms: CA_14  and  C_15
REMARK    3  A    between atoms: C_15  and  O_16
REMARK    4  A    between atoms: C_18  and  C_20
REMARK    5  A    between atoms: C_20  and  C_21
REMARK    6  A    between atoms: C_20  and  C_22
REMARK                            x       y       z     vdW  Elec       q    Type
REMARK                         _______ _______ _______ _____ _____    ______ ____
ROOT
ATOM      1  C   UNL     1       7.311  -1.868  25.569  0.00  0.00    +0.097 A 
ATOM      2  S   UNL     1       6.852  -2.472  24.020  0.00  0.00    -0.074 S 
ATOM      3  C   UNL     1       6.944  -4.077  24.610  0.00  0.00    +0.026 A 
ATOM      4  CA  UNL     1       7.612  -4.073  25.822  0.00  0.00    +0.158 A 
ATOM      5  N   UNL     1       7.744  -2.794  26.413  0.00  0.00    -0.236 NA
ENDROOT
BRANCH   1   6
ATOM      6  C   UNL     1       7.159  -0.363  25.801  0.00  0.00    +0.114 C 
ATOM      7  N   UNL     1       8.388   0.247  26.376  0.00  0.00    -0.303 NA
ATOM      8  H   UNL     1       8.202   1.234  26.549  0.00  0.00    +0.123 HD
ATOM      9  C   UNL     1       9.503   0.161  25.423  0.00  0.00    +0.117 C 
ATOM     10  C   UNL     1       9.161   0.670  24.046  0.00  0.00    -0.030 A 
ATOM     11  C   UNL     1      10.190   0.964  23.141  0.00  0.00    +0.005 A 
ATOM     12  C   UNL     1       9.895   1.449  21.868  0.00  0.00    +0.000 A 
ATOM     13  C   UNL     1       8.571   1.653  21.490  0.00  0.00    +0.000 A 
ATOM     14  C   UNL     1       7.536   1.336  22.370  0.00  0.00    +0.004 A 
ATOM     15  C   UNL     1       7.823   0.810  23.636  0.00  0.00    -0.041 A 
ATOM     16  C   UNL     1       6.697   0.450  24.578  0.00  0.00    +0.061 C 
ENDBRANCH   1   6
BRANCH   3  17
ATOM     17  C   UNL     1       6.322  -5.214  23.831  0.00  0.00    +0.022 C 
ATOM     18  C   UNL     1       7.180  -5.649  22.644  0.00  0.00    +0.013 C 
ATOM     19  C   UNL     1       4.905  -4.835  23.378  0.00  0.00    +0.013 C 
ENDBRANCH   3  17
BRANCH   4  20
ATOM     20  C   UNL     1       8.081  -5.269  26.538  0.00  0.00    +0.356 C 
ATOM     21  OXT UNL     1       7.565  -5.723  27.547  0.00  0.00    -0.243 OA
BRANCH  20  22
ATOM     22  O   UNL     1       9.166  -5.837  25.950  0.00  0.00    -0.476 OA
ATOM     23  H   UNL     1       9.306  -5.389  25.087  0.00  0.00    +0.295 HD
ENDBRANCH  20  22
ENDBRANCH   4  20
TORSDOF 4
ENDMDL
MODEL 3
REMARK VINA RESULT:      -6.7      3.036      4.233
REMARK  Name = 
REMARK  6 active torsions:
REMARK  status: ('A' for Active; 'I' for Inactive)
REMARK    1  A    between atoms: C_2  and  C_12
REMARK    2  A    between atoms: CA_14  and  C_15
REMARK    3  A    between atoms: C_15  and  O_16
REMARK    4  A    between atoms: C_18  and  C_20
REMARK    5  A    between atoms: C_20  and  C_21
REMARK    6  A    between atoms: C_20  and  C_22
REMARK                            x       y       z     vdW  Elec       q    Type
REMARK                         _______ _______ _______ _____ _____    ______ ____
ROOT
ATOM      1  C   UNL     1       9.906   0.629  23.673  0.00  0.00    +0.097 A 
ATOM      2  S   UNL     1       9.994  -0.967  23.025  0.00  0.00    -0.074 S 
ATOM      3  C   UNL     1       9.041  -1.554  24.322  0.00  0.00    +0.026 A 
ATOM      4  CA  UNL     1       8.987  -0.590  25.312  0.00  0.00    +0.158 A 
ATOM      5  N   UNL     1       9.411   0.697  24.901  0.00  0.00    -0.236 NA
ENDROOT
BRANCH   1   6
ATOM      6  C   UNL     1      10.388   1.771  22.775  0.00  0.00    +0.114 C 
ATOM      7  N   UNL     1       9.570   1.901  21.540  0.00  0.00    -0.303 NA
ATOM      8  H   UNL     1       9.973   2.643  20.968  0.00  0.00    +0.123 HD
ATOM      9  C   UNL     1       8.191   2.287  21.869  0.00  0.00    +0.117 C 
ATOM     10  C   UNL     1       8.101   3.481  22.784  0.00  0.00    -0.030 A 
ATOM     11  C   UNL     1       6.884   4.165  22.913  0.00  0.00    +0.005 A 
ATOM     12  C   UNL     1       6.784   5.280  23.743  0.00  0.00    +0.000 A 
ATOM     13  C   UNL     1       7.899   5.729  24.444  0.00  0.00    +0.000 A 
ATOM     14  C   UNL     1       9.109   5.041  24.347  0.00  0.00    +0.004 A 
ATOM     15  C   UNL     1       9.207   3.896  23.548  0.00  0.00    -0.041 A 
ATOM     16  C   UNL     1      10.515   3.143  23.462  0.00  0.00    +0.061 C 
ENDBRANCH   1   6
BRANCH   3  17
ATOM     17  C   UNL     1       8.401  -2.922  24.242  0.00  0.00    +0.022 C 
ATOM     18  C   UNL     1       9.314  -4.028  24.766  0.00  0.00    +0.013 C 
ATOM     19  C   UNL     1       7.951  -3.214  22.803  0.00  0.00    +0.013 C 
ENDBRANCH   3  17
BRANCH   4  20
ATOM     20  C   UNL     1       8.451  -0.792  26.667  0.00  0.00    +0.356 C 
ATOM     21  OXT UNL     1       7.337  -1.222  26.918  0.00  0.00    -0.243 OA
BRANCH  20  22
ATOM     22  O   UNL     1       9.341  -0.451  27.636  0.00  0.00    -0.476 OA
ATOM     23  H   UNL     1       9.742   0.409  27.382  0.00  0.00    +0.295 HD
ENDBRANCH  20  22
ENDBRANCH   4  20
TORSDOF 4
ENDMDL
MODEL 4
REMARK VINA RESULT:      -6.5      2.517      3.161
REMARK  Name = 
REMARK  6 active torsions:
REMARK  status: ('A' for Active; 'I' for Inactive)
REMARK    1  A    between atoms: C_2  and  C_12
REMARK    2  A    between atoms: CA_14  and  C_15
REMARK    3  A    between atoms: C_15  and  O_16
REMARK    4  A    between atoms: C_18  and  C_20
REMARK    5  A    between atoms: C_20  and  C_21
REMARK    6  A    between atoms: C_20  and  C_22
REMARK                            x       y       z     vdW  Elec       q    Type
REMARK                         _______ _______ _______ _____ _____    ______ ____
ROOT
ATOM      1  C   UNL     1       7.430  -3.211  23.313  0.00  0.00    +0.097 A 
ATOM      2  S   UNL     1       6.082  -4.260  23.555  0.00  0.00    -0.074 S 
ATOM      3  C   UNL     1       6.826  -4.903  24.958  0.00  0.00    +0.026 A 
ATOM      4  CA  UNL     1       8.157  -4.524  24.976  0.00  0.00    +0.158 A 
ATOM      5  N   UNL     1       8.480  -3.480  24.076  0.00  0.00    -0.236 NA
ENDROOT
BRANCH   1   6
ATOM      6  C   UNL     1       7.266  -2.099  22.274  0.00  0.00    +0.114 C 
ATOM      7  N   UNL     1       6.221  -1.114  22.661  0.00  0.00    -0.303 NA
ATOM      8  H   UNL     1       6.131  -0.433  21.907  0.00  0.00    +0.123 HD
ATOM      9  C   UNL     1       6.616  -0.388  23.875  0.00  0.00    +0.117 C 
ATOM     10  C   UNL     1       8.004   0.197  23.804  0.00  0.00    -0.030 A 
ATOM     11  C   UNL     1       8.388   1.183  24.724  0.00  0.00    +0.005 A 
ATOM     12  C   UNL     1       9.661   1.747  24.665  0.00  0.00    +0.000 A 
ATOM     13  C   UNL     1      10.559   1.339  23.682  0.00  0.00    +0.000 A 
ATOM     14  C   UNL     1      10.200   0.339  22.779  0.00  0.00    +0.004 A 
ATOM     15  C   UNL     1       8.938  -0.262  22.857  0.00  0.00    -0.041 A 
ATOM     16  C   UNL     1       8.561  -1.360  21.889  0.00  0.00    +0.061 C 
ENDBRANCH   1   6
BRANCH   3  17
ATOM     17  C   UNL     1       6.019  -5.716  25.945  0.00  0.00    +0.022 C 
ATOM     18  C   UNL     1       4.929  -6.545  25.269  0.00  0.00    +0.013 C 
ATOM     19  C   UNL     1       5.427  -4.802  27.027  0.00  0.00    +0.013 C 
ENDBRANCH   3  17
BRANCH   4  20
ATOM     20  C   UNL     1       9.178  -5.049  25.894  0.00  0.00    +0.356 C 
ATOM     21  OXT UNL     1       9.304  -4.713  27.061  0.00  0.00    -0.243 OA
BRANCH  20  22
ATOM     22  O   UNL     1       9.984  -5.972  25.306  0.00  0.00    -0.476 OA
ATOM     23  H   UNL     1       9.728  -6.031  24.360  0.00  0.00    +0.295 HD
ENDBRANCH  20  22
ENDBRANCH   4  20
TORSDOF 4
ENDMDL
MODEL 5
REMARK VINA RESULT:      -6.4      2.526      6.383
REMARK  Name = 
REMARK  6 active torsions:
REMARK  status: ('A' for Active; 'I' for Inactive)
REMARK    1  A    between atoms: C_2  and  C_12
REMARK    2  A    between atoms: CA_14  and  C_15
REMARK    3  A    between atoms: C_15  and  O_16
REMARK    4  A    between atoms: C_18  and  C_20
REMARK    5  A    between atoms: C_20  and  C_21
REMARK    6  A    between atoms: C_20  and  C_22
REMARK                            x       y       z     vdW  Elec       q    Type
REMARK                         _______ _______ _______ _____ _____    ______ ____
ROOT
ATOM      1  C   UNL     1       8.179  -2.843  23.575  0.00  0.00    +0.097 A 
ATOM      2  S   UNL     1       9.600  -1.922  23.248  0.00  0.00    -0.074 S 
ATOM      3  C   UNL     1       8.786  -0.487  23.709  0.00  0.00    +0.026 A 
ATOM      4  CA  UNL     1       7.427  -0.741  23.773  0.00  0.00    +0.158 A 
ATOM      5  N   UNL     1       7.089  -2.116  23.781  0.00  0.00    -0.236 NA
ENDROOT
BRANCH   1   6
ATOM      6  C   UNL     1       8.329  -4.365  23.605  0.00  0.00    +0.114 C 
ATOM      7  N   UNL     1       9.281  -4.819  24.654  0.00  0.00    -0.303 NA
ATOM      8  H   UNL     1       9.370  -5.832  24.586  0.00  0.00    +0.123 HD
ATOM      9  C   UNL     1       8.766  -4.503  25.993  0.00  0.00    +0.117 C 
ATOM     10  C   UNL     1       7.349  -4.966  26.218  0.00  0.00    -0.030 A 
ATOM     11  C   UNL     1       6.845  -5.042  27.525  0.00  0.00    +0.005 A 
ATOM     12  C   UNL     1       5.543  -5.481  27.756  0.00  0.00    +0.000 A 
ATOM     13  C   UNL     1       4.735  -5.858  26.686  0.00  0.00    +0.000 A 
ATOM     14  C   UNL     1       5.214  -5.759  25.380  0.00  0.00    +0.004 A 
ATOM     15  C   UNL     1       6.507  -5.280  25.137  0.00  0.00    -0.041 A 
ATOM     16  C   UNL     1       7.013  -5.157  23.719  0.00  0.00    +0.061 C 
ENDBRANCH   1   6
BRANCH   3  17
ATOM     17  C   UNL     1       9.567   0.776  23.994  0.00  0.00    +0.022 C 
ATOM     18  C   UNL     1       9.927   1.542  22.723  0.00  0.00    +0.013 C 
ATOM     19  C   UNL     1      10.822   0.450  24.817  0.00  0.00    +0.013 C 
ENDBRANCH   3  17
BRANCH   4  20
ATOM     20  C   UNL     1       6.377   0.278  23.922  0.00  0.00    +0.356 C 
ATOM     21  OXT UNL     1       5.741   0.477  24.944  0.00  0.00    -0.243 OA
BRANCH  20  22
ATOM     22  O   UNL     1       6.184   0.997  22.786  0.00  0.00    -0.476 OA
ATOM     23  H   UNL     1       5.555   0.498  22.220  0.00  0.00    +0.295 HD
ENDBRANCH  20  22
ENDBRANCH   4  20
TORSDOF 4
ENDMDL
MODEL 6
REMARK VINA RESULT:      -6.4      1.800      2.281
REMARK  Name = 
REMARK  6 active torsions:
REMARK  status: ('A' for Active; 'I' for Inactive)
REMARK    1  A    between atoms: C_2  and  C_12
REMARK    2  A    between atoms: CA_14  and  C_15
REMARK    3  A    between atoms: C_15  and  O_16
REMARK    4  A    between atoms: C_18  and  C_20
REMARK    5  A    between atoms: C_20  and  C_21
REMARK    6  A    between atoms: C_20  and  C_22
REMARK                            x       y       z     vdW  Elec       q    Type
REMARK                         _______ _______ _______ _____ _____    ______ ____
ROOT
ATOM      1  C   UNL     1       8.416  -2.518  24.079  0.00  0.00    +0.097 A 
ATOM      2  S   UNL     1       8.153  -4.190  23.746  0.00  0.00    -0.074 S 
ATOM      3  C   UNL     1       6.460  -3.956  23.871  0.00  0.00    +0.026 A 
ATOM      4  CA  UNL     1       6.218  -2.728  24.459  0.00  0.00    +0.158 A 
ATOM      5  N   UNL     1       7.340  -1.865  24.497  0.00  0.00    -0.236 NA
ENDROOT
BRANCH   1   6
ATOM      6  C   UNL     1       9.829  -1.977  23.847  0.00  0.00    +0.114 C 
ATOM      7  N   UNL     1      10.186  -1.929  22.404  0.00  0.00    -0.303 NA
ATOM      8  H   UNL     1      11.150  -1.609  22.325  0.00  0.00    +0.123 HD
ATOM      9  C   UNL     1       9.333  -0.968  21.691  0.00  0.00    +0.117 C 
ATOM     10  C   UNL     1       9.275   0.388  22.347  0.00  0.00    -0.030 A 
ATOM     11  C   UNL     1       8.791   1.487  21.622  0.00  0.00    +0.005 A 
ATOM     12  C   UNL     1       8.742   2.752  22.206  0.00  0.00    +0.000 A 
ATOM     13  C   UNL     1       9.185   2.934  23.513  0.00  0.00    +0.000 A 
ATOM     14  C   UNL     1       9.641   1.843  24.254  0.00  0.00    +0.004 A 
ATOM     15  C   UNL     1       9.655   0.562  23.689  0.00  0.00    -0.041 A 
ATOM     16  C   UNL     1      10.131  -0.618  24.503  0.00  0.00    +0.061 C 
ENDBRANCH   1   6
BRANCH   3  17
ATOM     17  C   UNL     1       5.504  -5.006  23.351  0.00  0.00    +0.022 C 
ATOM     18  C   UNL     1       5.187  -6.077  24.392  0.00  0.00    +0.013 C 
ATOM     19  C   UNL     1       6.055  -5.634  22.062  0.00  0.00    +0.013 C 
ENDBRANCH   3  17
BRANCH   4  20
ATOM     20  C   UNL     1       4.908  -2.255  24.933  0.00  0.00    +0.356 C 
ATOM     21  OXT UNL     1       3.894  -2.933  24.964  0.00  0.00    -0.243 OA
BRANCH  20  22
ATOM     22  O   UNL     1       4.940  -0.963  25.350  0.00  0.00    -0.476 OA
ATOM     23  H   UNL     1       5.496  -0.459  24.717  0.00  0.00    +0.295 HD
ENDBRANCH  20  22
ENDBRANCH   4  20
TORSDOF 4
ENDMDL
MODEL 7
REMARK VINA RESULT:      -6.4      2.876      6.746
REMARK  Name = 
REMARK  6 active torsions:
REMARK  status: ('A' for Active; 'I' for Inactive)
REMARK    1  A    between atoms: C_2  and  C_12
REMARK    2  A    between atoms: CA_14  and  C_15
REMARK    3  A    between atoms: C_15  and  O_16
REMARK    4  A    between atoms: C_18  and  C_20
REMARK    5  A    between atoms: C_20  and  C_21
REMARK    6  A    between atoms: C_20  and  C_22
REMARK                            x       y       z     vdW  Elec       q    Type
REMARK                         _______ _______ _______ _____ _____    ______ ____
ROOT
ATOM      1  C   UNL     1       8.320  -3.080  23.707  0.00  0.00    +0.097 A 
ATOM      2  S   UNL     1       7.067  -2.065  23.091  0.00  0.00    -0.074 S 
ATOM      3  C   UNL     1       8.073  -0.692  23.289  0.00  0.00    +0.026 A 
ATOM      4  CA  UNL     1       9.149  -1.034  24.088  0.00  0.00    +0.158 A 
ATOM      5  N   UNL     1       9.335  -2.428  24.255  0.00  0.00    -0.236 NA
ENDROOT
BRANCH   1   6
ATOM      6  C   UNL     1       8.132  -4.590  23.545  0.00  0.00    +0.114 C 
ATOM      7  N   UNL     1       9.055  -5.370  24.412  0.00  0.00    -0.303 NA
ATOM      8  H   UNL     1       8.912  -6.361  24.220  0.00  0.00    +0.123 HD
ATOM      9  C   UNL     1       8.752  -5.140  25.831  0.00  0.00    +0.117 C 
ATOM     10  C   UNL     1       7.296  -5.326  26.174  0.00  0.00    -0.030 A 
ATOM     11  C   UNL     1       6.914  -5.473  27.516  0.00  0.00    +0.005 A 
ATOM     12  C   UNL     1       5.575  -5.661  27.853  0.00  0.00    +0.000 A 
ATOM     13  C   UNL     1       4.606  -5.712  26.854  0.00  0.00    +0.000 A 
ATOM     14  C   UNL     1       4.968  -5.537  25.519  0.00  0.00    +0.004 A 
ATOM     15  C   UNL     1       6.306  -5.308  25.175  0.00  0.00    -0.041 A 
ATOM     16  C   UNL     1       6.691  -5.099  23.729  0.00  0.00    +0.061 C 
ENDBRANCH   1   6
BRANCH   3  17
ATOM     17  C   UNL     1       7.724   0.614  22.611  0.00  0.00    +0.022 C 
ATOM     18  C   UNL     1       8.781   1.049  21.598  0.00  0.00    +0.013 C 
ATOM     19  C   UNL     1       7.482   1.708  23.660  0.00  0.00    +0.013 C 
ENDBRANCH   3  17
BRANCH   4  20
ATOM     20  C   UNL     1      10.115  -0.086  24.664  0.00  0.00    +0.356 C 
ATOM     21  OXT UNL     1      11.063   0.393  24.062  0.00  0.00    -0.243 OA
BRANCH  20  22
ATOM     22  O   UNL     1       9.840   0.215  25.960  0.00  0.00    -0.476 OA
ATOM     23  H   UNL     1       9.605   1.168  26.000  0.00  0.00    +0.295 HD
ENDBRANCH  20  22
ENDBRANCH   4  20
TORSDOF 4
ENDMDL
MODEL 8
REMARK VINA RESULT:      -6.4      2.723      6.152
REMARK  Name = 
REMARK  6 active torsions:
REMARK  status: ('A' for Active; 'I' for Inactive)
REMARK    1  A    between atoms: C_2  and  C_12
REMARK    2  A    between atoms: CA_14  and  C_15
REMARK    3  A    between atoms: C_15  and  O_16
REMARK    4  A    between atoms: C_18  and  C_20
REMARK    5  A    between atoms: C_20  and  C_21
REMARK    6  A    between atoms: C_20  and  C_22
REMARK                            x       y       z     vdW  Elec       q    Type
REMARK                         _______ _______ _______ _____ _____    ______ ____
ROOT
ATOM      1  C   UNL     1       8.843  -1.949  24.749  0.00  0.00    +0.097 A 
ATOM      2  S   UNL     1       8.425  -0.534  25.642  0.00  0.00    -0.074 S 
ATOM      3  C   UNL     1       8.541   0.409  24.216  0.00  0.00    +0.026 A 
ATOM      4  CA  UNL     1       9.187  -0.329  23.241  0.00  0.00    +0.158 A 
ATOM      5  N   UNL     1       9.282  -1.713  23.520  0.00  0.00    -0.236 NA
ENDROOT
BRANCH   1   6
ATOM      6  C   UNL     1       8.656  -3.295  25.453  0.00  0.00    +0.114 C 
ATOM      7  N   UNL     1       7.357  -3.381  26.171  0.00  0.00    -0.303 NA
ATOM      8  H   UNL     1       7.319  -4.277  26.654  0.00  0.00    +0.123 HD
ATOM      9  C   UNL     1       6.235  -3.334  25.223  0.00  0.00    +0.117 C 
ATOM     10  C   UNL     1       6.366  -4.317  24.086  0.00  0.00    -0.030 A 
ATOM     11  C   UNL     1       5.243  -4.626  23.306  0.00  0.00    +0.005 A 
ATOM     12  C   UNL     1       5.339  -5.542  22.261  0.00  0.00    +0.000 A 
ATOM     13  C   UNL     1       6.554  -6.165  21.990  0.00  0.00    +0.000 A 
ATOM     14  C   UNL     1       7.686  -5.845  22.740  0.00  0.00    +0.004 A 
ATOM     15  C   UNL     1       7.607  -4.895  23.765  0.00  0.00    -0.041 A 
ATOM     16  C   UNL     1       8.841  -4.537  24.562  0.00  0.00    +0.061 C 
ENDBRANCH   1   6
BRANCH   3  17
ATOM     17  C   UNL     1       7.957   1.804  24.173  0.00  0.00    +0.022 C 
ATOM     18  C   UNL     1       7.794   2.414  25.564  0.00  0.00    +0.013 C 
ATOM     19  C   UNL     1       6.622   1.798  23.414  0.00  0.00    +0.013 C 
ENDBRANCH   3  17
BRANCH   4  20
ATOM     20  C   UNL     1       9.669   0.199  21.955  0.00  0.00    +0.356 C 
ATOM     21  OXT UNL     1      10.169   1.301  21.799  0.00  0.00    -0.243 OA
BRANCH  20  22
ATOM     22  O   UNL     1       9.504  -0.682  20.935  0.00  0.00    -0.476 OA
ATOM     23  H   UNL     1       9.703  -0.209  20.097  0.00  0.00    +0.295 HD
ENDBRANCH  20  22
ENDBRANCH   4  20
TORSDOF 4
ENDMDL
MODEL 9
REMARK VINA RESULT:      -6.3      2.946      6.743
REMARK  Name = 
REMARK  6 active torsions:
REMARK  status: ('A' for Active; 'I' for Inactive)
REMARK    1  A    between atoms: C_2  and  C_12
REMARK    2  A    between atoms: CA_14  and  C_15
REMARK    3  A    between atoms: C_15  and  O_16
REMARK    4  A    between atoms: C_18  and  C_20
REMARK    5  A    between atoms: C_20  and  C_21
REMARK    6  A    between atoms: C_20  and  C_22
REMARK                            x       y       z     vdW  Elec       q    Type
REMARK                         _______ _______ _______ _____ _____    ______ ____
ROOT
ATOM      1  C   UNL     1       8.494  -3.178  24.007  0.00  0.00    +0.097 A 
ATOM      2  S   UNL     1       7.641  -2.375  22.741  0.00  0.00    -0.074 S 
ATOM      3  C   UNL     1       8.444  -0.910  23.120  0.00  0.00    +0.026 A 
ATOM      4  CA  UNL     1       9.052  -1.036  24.355  0.00  0.00    +0.158 A 
ATOM      5  N   UNL     1       9.154  -2.369  24.824  0.00  0.00    -0.236 NA
ENDROOT
BRANCH   1   6
ATOM      6  C   UNL     1       8.408  -4.705  24.043  0.00  0.00    +0.114 C 
ATOM      7  N   UNL     1       8.164  -5.226  25.414  0.00  0.00    -0.303 NA
ATOM      8  H   UNL     1       8.167  -6.245  25.373  0.00  0.00    +0.123 HD
ATOM      9  C   UNL     1       6.845  -4.801  25.903  0.00  0.00    +0.117 C 
ATOM     10  C   UNL     1       5.724  -5.087  24.937  0.00  0.00    -0.030 A 
ATOM     11  C   UNL     1       4.396  -5.053  25.388  0.00  0.00    +0.005 A 
ATOM     12  C   UNL     1       3.346  -5.328  24.514  0.00  0.00    +0.000 A 
ATOM     13  C   UNL     1       3.611  -5.649  23.186  0.00  0.00    +0.000 A 
ATOM     14  C   UNL     1       4.925  -5.657  22.717  0.00  0.00    +0.004 A 
ATOM     15  C   UNL     1       5.983  -5.342  23.578  0.00  0.00    -0.041 A 
ATOM     16  C   UNL     1       7.402  -5.333  23.061  0.00  0.00    +0.061 C 
ENDBRANCH   1   6
BRANCH   3  17
ATOM     17  C   UNL     1       8.425   0.246  22.144  0.00  0.00    +0.022 C 
ATOM     18  C   UNL     1       9.825   0.754  21.810  0.00  0.00    +0.013 C 
ATOM     19  C   UNL     1       7.539   1.380  22.681  0.00  0.00    +0.013 C 
ENDBRANCH   3  17
BRANCH   4  20
ATOM     20  C   UNL     1       9.653   0.064  25.124  0.00  0.00    +0.356 C 
ATOM     21  OXT UNL     1      10.828   0.391  25.068  0.00  0.00    -0.243 OA
BRANCH  20  22
ATOM     22  O   UNL     1       8.752   0.700  25.917  0.00  0.00    -0.476 OA
ATOM     23  H   UNL     1       9.213   0.958  26.744  0.00  0.00    +0.295 HD
ENDBRANCH  20  22
ENDBRANCH   4  20
TORSDOF 4
ENDMDL
