MODEL 1
REMARK VINA RESULT:      -6.5      0.000      0.000
REMARK  Name = 
REMARK  3 active torsions:
REMARK  status: ('A' for Active; 'I' for Inactive)
REMARK    1  A    between atoms: C_2  and  C_4
REMARK    2  A    between atoms: N_6  and  C_7
REMARK    3  A    between atoms: C_7  and  C_8
REMARK                            x       y       z     vdW  Elec       q    Type
REMARK                         _______ _______ _______ _____ _____    ______ ____
ROOT
ATOM      1  C   UNL     1       7.942  -3.869  23.168  0.00  0.00    +0.167 A 
ATOM      2  N   UNL     1       8.868  -4.230  24.120  0.00  0.00    -0.125 NA
ATOM      3  N   UNL     1       9.826  -3.312  24.138  0.00  0.00    -0.065 NA
ATOM      4  N   UNL     1       9.516  -2.382  23.214  0.00  0.00    -0.246 N 
ATOM      5  C   UNL     1       8.323  -2.664  22.614  0.00  0.00    +0.143 A 
ENDROOT
BRANCH   1   9
ATOM      6  N   UNL     1       7.083  -5.692  21.912  0.00  0.00    -0.324 N 
ATOM      7  H   UNL     1       8.018  -5.805  21.540  0.00  0.00    +0.145 HD
ATOM      8  H   UNL     1       6.325  -6.257  21.562  0.00  0.00    +0.145 HD
ATOM      9  C   UNL     1       6.802  -4.690  22.799  0.00  0.00    +0.263 C 
ATOM     10  O   UNL     1       5.662  -4.503  23.208  0.00  0.00    -0.269 OA
ENDBRANCH   1   9
BRANCH   4  11
ATOM     11  C   UNL     1      10.528  -1.452  22.746  0.00  0.00    +0.186 C 
BRANCH  11  12
ATOM     12  C   UNL     1      10.134  -0.013  22.853  0.00  0.00    +0.044 A 
ATOM     13  C   UNL     1      10.337   0.703  24.033  0.00  0.00    +0.131 A 
ATOM     14  F   UNL     1      10.982   0.123  25.055  0.00  0.00    -0.205 F 
ATOM     15  C   UNL     1       9.841   1.996  24.197  0.00  0.00    +0.039 A 
ATOM     16  C   UNL     1       9.138   2.605  23.159  0.00  0.00    +0.006 A 
ATOM     17  C   UNL     1       8.966   1.924  21.953  0.00  0.00    +0.039 A 
ATOM     18  C   UNL     1       9.469   0.632  21.810  0.00  0.00    +0.131 A 
ATOM     19  F   UNL     1       9.257  -0.015  20.656  0.00  0.00    -0.205 F 
ENDBRANCH  11  12
ENDBRANCH   4  11
TORSDOF 3
ENDMDL
MODEL 2
REMARK VINA RESULT:      -6.5      0.728      2.122
REMARK  Name = 
REMARK  3 active torsions:
REMARK  status: ('A' for Active; 'I' for Inactive)
REMARK    1  A    between atoms: C_2  and  C_4
REMARK    2  A    between atoms: N_6  and  C_7
REMARK    3  A    between atoms: C_7  and  C_8
REMARK                            x       y       z     vdW  Elec       q    Type
REMARK                         _______ _______ _______ _____ _____    ______ ____
ROOT
ATOM      1  C   UNL     1       7.255  -3.874  22.736  0.00  0.00    +0.167 A 
ATOM      2  N   UNL     1       7.881  -4.368  23.858  0.00  0.00    -0.125 NA
ATOM      3  N   UNL     1       8.938  -3.607  24.113  0.00  0.00    -0.065 NA
ATOM      4  N   UNL     1       8.985  -2.645  23.169  0.00  0.00    -0.246 N 
ATOM      5  C   UNL     1       7.926  -2.745  22.314  0.00  0.00    +0.143 A 
ENDROOT
BRANCH   1   9
ATOM      6  N   UNL     1       6.429  -5.570  21.293  0.00  0.00    -0.324 N 
ATOM      7  H   UNL     1       7.394  -5.839  21.147  0.00  0.00    +0.145 HD
ATOM      8  H   UNL     1       5.692  -6.016  20.769  0.00  0.00    +0.145 HD
ATOM      9  C   UNL     1       6.115  -4.513  22.102  0.00  0.00    +0.263 C 
ATOM     10  O   UNL     1       4.956  -4.137  22.236  0.00  0.00    -0.269 OA
ENDBRANCH   1   9
BRANCH   4  11
ATOM     11  C   UNL     1      10.204  -1.884  22.962  0.00  0.00    +0.186 C 
BRANCH  11  12
ATOM     12  C   UNL     1      10.016  -0.401  23.011  0.00  0.00    +0.044 A 
ATOM     13  C   UNL     1       9.689   0.321  21.863  0.00  0.00    +0.131 A 
ATOM     14  F   UNL     1       9.443  -0.333  20.718  0.00  0.00    -0.205 F 
ATOM     15  C   UNL     1       9.657   1.715  21.861  0.00  0.00    +0.039 A 
ATOM     16  C   UNL     1       9.942   2.415  23.032  0.00  0.00    +0.006 A 
ATOM     17  C   UNL     1      10.224   1.711  24.202  0.00  0.00    +0.039 A 
ATOM     18  C   UNL     1      10.252   0.318  24.182  0.00  0.00    +0.131 A 
ATOM     19  F   UNL     1      10.564  -0.334  25.310  0.00  0.00    -0.205 F 
ENDBRANCH  11  12
ENDBRANCH   4  11
TORSDOF 3
ENDMDL
MODEL 3
REMARK VINA RESULT:      -6.4      2.279      3.007
REMARK  Name = 
REMARK  3 active torsions:
REMARK  status: ('A' for Active; 'I' for Inactive)
REMARK    1  A    between atoms: C_2  and  C_4
REMARK    2  A    between atoms: N_6  and  C_7
REMARK    3  A    between atoms: C_7  and  C_8
REMARK                            x       y       z     vdW  Elec       q    Type
REMARK                         _______ _______ _______ _____ _____    ______ ____
ROOT
ATOM      1  C   UNL     1       9.071  -3.683  25.192  0.00  0.00    +0.167 A 
ATOM      2  N   UNL     1      10.022  -3.562  24.206  0.00  0.00    -0.125 NA
ATOM      3  N   UNL     1       9.775  -2.451  23.524  0.00  0.00    -0.065 NA
ATOM      4  N   UNL     1       8.683  -1.875  24.065  0.00  0.00    -0.246 N 
ATOM      5  C   UNL     1       8.236  -2.586  25.141  0.00  0.00    +0.143 A 
ENDROOT
BRANCH   1   9
ATOM      6  N   UNL     1       9.691  -5.923  25.683  0.00  0.00    -0.324 N 
ATOM      7  H   UNL     1      10.223  -5.906  24.821  0.00  0.00    +0.145 HD
ATOM      8  H   UNL     1       9.610  -6.776  26.214  0.00  0.00    +0.145 HD
ATOM      9  C   UNL     1       8.966  -4.832  26.076  0.00  0.00    +0.263 C 
ATOM     10  O   UNL     1       8.268  -4.861  27.082  0.00  0.00    -0.269 OA
ENDBRANCH   1   9
BRANCH   4  11
ATOM     11  C   UNL     1       7.956  -0.854  23.333  0.00  0.00    +0.186 C 
BRANCH  11  12
ATOM     12  C   UNL     1       8.665   0.461  23.248  0.00  0.00    +0.044 A 
ATOM     13  C   UNL     1       9.364   0.829  22.099  0.00  0.00    +0.131 A 
ATOM     14  F   UNL     1       9.322   0.037  21.017  0.00  0.00    -0.205 F 
ATOM     15  C   UNL     1      10.150   1.979  22.059  0.00  0.00    +0.039 A 
ATOM     16  C   UNL     1      10.235   2.799  23.184  0.00  0.00    +0.006 A 
ATOM     17  C   UNL     1       9.506   2.474  24.327  0.00  0.00    +0.039 A 
ATOM     18  C   UNL     1       8.726   1.318  24.346  0.00  0.00    +0.131 A 
ATOM     19  F   UNL     1       8.066   1.009  25.470  0.00  0.00    -0.205 F 
ENDBRANCH  11  12
ENDBRANCH   4  11
TORSDOF 3
ENDMDL
MODEL 4
REMARK VINA RESULT:      -6.4      1.925      2.947
REMARK  Name = 
REMARK  3 active torsions:
REMARK  status: ('A' for Active; 'I' for Inactive)
REMARK    1  A    between atoms: C_2  and  C_4
REMARK    2  A    between atoms: N_6  and  C_7
REMARK    3  A    between atoms: C_7  and  C_8
REMARK                            x       y       z     vdW  Elec       q    Type
REMARK                         _______ _______ _______ _____ _____    ______ ____
ROOT
ATOM      1  C   UNL     1       7.866  -4.105  25.612  0.00  0.00    +0.167 A 
ATOM      2  N   UNL     1       7.949  -2.938  26.336  0.00  0.00    -0.125 NA
ATOM      3  N   UNL     1       8.703  -2.081  25.660  0.00  0.00    -0.065 NA
ATOM      4  N   UNL     1       9.094  -2.692  24.523  0.00  0.00    -0.246 N 
ATOM      5  C   UNL     1       8.556  -3.943  24.428  0.00  0.00    +0.143 A 
ENDROOT
BRANCH   1   9
ATOM      6  N   UNL     1       7.797  -5.898  27.167  0.00  0.00    -0.324 N 
ATOM      7  H   UNL     1       8.651  -5.519  27.559  0.00  0.00    +0.145 HD
ATOM      8  H   UNL     1       7.426  -6.772  27.508  0.00  0.00    +0.145 HD
ATOM      9  C   UNL     1       7.201  -5.306  26.089  0.00  0.00    +0.263 C 
ATOM     10  O   UNL     1       6.204  -5.791  25.567  0.00  0.00    -0.269 OA
ENDBRANCH   1   9
BRANCH   4  11
ATOM     11  C   UNL     1      10.203  -2.159  23.752  0.00  0.00    +0.186 C 
BRANCH  11  12
ATOM     12  C   UNL     1       9.968  -0.784  23.211  0.00  0.00    +0.044 A 
ATOM     13  C   UNL     1       9.333  -0.592  21.985  0.00  0.00    +0.131 A 
ATOM     14  F   UNL     1       8.837  -1.648  21.324  0.00  0.00    -0.205 F 
ATOM     15  C   UNL     1       9.241   0.670  21.399  0.00  0.00    +0.039 A 
ATOM     16  C   UNL     1       9.780   1.777  22.053  0.00  0.00    +0.006 A 
ATOM     17  C   UNL     1      10.377   1.614  23.303  0.00  0.00    +0.039 A 
ATOM     18  C   UNL     1      10.459   0.343  23.870  0.00  0.00    +0.131 A 
ATOM     19  F   UNL     1      11.072   0.207  25.054  0.00  0.00    -0.205 F 
ENDBRANCH  11  12
ENDBRANCH   4  11
TORSDOF 3
ENDMDL
MODEL 5
REMARK VINA RESULT:      -6.2      2.272      2.419
REMARK  Name = 
REMARK  3 active torsions:
REMARK  status: ('A' for Active; 'I' for Inactive)
REMARK    1  A    between atoms: C_2  and  C_4
REMARK    2  A    between atoms: N_6  and  C_7
REMARK    3  A    between atoms: C_7  and  C_8
REMARK                            x       y       z     vdW  Elec       q    Type
REMARK                         _______ _______ _______ _____ _____    ______ ____
ROOT
ATOM      1  C   UNL     1       9.142  -3.709  25.178  0.00  0.00    +0.167 A 
ATOM      2  N   UNL     1      10.059  -3.662  24.153  0.00  0.00    -0.125 NA
ATOM      3  N   UNL     1       9.873  -2.534  23.480  0.00  0.00    -0.065 NA
ATOM      4  N   UNL     1       8.855  -1.873  24.066  0.00  0.00    -0.246 N 
ATOM      5  C   UNL     1       8.397  -2.548  25.160  0.00  0.00    +0.143 A 
ENDROOT
BRANCH   1   9
ATOM      6  N   UNL     1       9.630  -5.982  25.664  0.00  0.00    -0.324 N 
ATOM      7  H   UNL     1      10.147  -6.000  24.793  0.00  0.00    +0.145 HD
ATOM      8  H   UNL     1       9.506  -6.828  26.199  0.00  0.00    +0.145 HD
ATOM      9  C   UNL     1       8.981  -4.848  26.066  0.00  0.00    +0.263 C 
ATOM     10  O   UNL     1       8.300  -4.831  27.085  0.00  0.00    -0.269 OA
ENDBRANCH   1   9
BRANCH   4  11
ATOM     11  C   UNL     1       8.183  -0.795  23.363  0.00  0.00    +0.186 C 
BRANCH  11  12
ATOM     12  C   UNL     1       8.928   0.503  23.375  0.00  0.00    +0.044 A 
ATOM     13  C   UNL     1       8.819   1.384  24.451  0.00  0.00    +0.131 A 
ATOM     14  F   UNL     1       8.116   1.023  25.534  0.00  0.00    -0.205 F 
ATOM     15  C   UNL     1       9.386   2.658  24.412  0.00  0.00    +0.039 A 
ATOM     16  C   UNL     1      10.093   3.066  23.282  0.00  0.00    +0.006 A 
ATOM     17  C   UNL     1      10.254   2.182  22.216  0.00  0.00    +0.039 A 
ATOM     18  C   UNL     1       9.679   0.914  22.274  0.00  0.00    +0.131 A 
ATOM     19  F   UNL     1       9.815   0.098  21.221  0.00  0.00    -0.205 F 
ENDBRANCH  11  12
ENDBRANCH   4  11
TORSDOF 3
ENDMDL
MODEL 6
REMARK VINA RESULT:      -5.9      5.096      7.294
REMARK  Name = 
REMARK  3 active torsions:
REMARK  status: ('A' for Active; 'I' for Inactive)
REMARK    1  A    between atoms: C_2  and  C_4
REMARK    2  A    between atoms: N_6  and  C_7
REMARK    3  A    between atoms: C_7  and  C_8
REMARK                            x       y       z     vdW  Elec       q    Type
REMARK                         _______ _______ _______ _____ _____    ______ ____
ROOT
ATOM      1  C   UNL     1      11.672   4.612  23.322  0.00  0.00    +0.167 A 
ATOM      2  N   UNL     1      10.690   5.455  23.789  0.00  0.00    -0.125 NA
ATOM      3  N   UNL     1       9.638   4.720  24.129  0.00  0.00    -0.065 NA
ATOM      4  N   UNL     1       9.945   3.431  23.881  0.00  0.00    -0.246 N 
ATOM      5  C   UNL     1      11.223   3.311  23.419  0.00  0.00    +0.143 A 
ENDROOT
BRANCH   1   9
ATOM      6  N   UNL     1      12.860   5.523  21.479  0.00  0.00    -0.324 N 
ATOM      7  H   UNL     1      11.983   5.496  20.971  0.00  0.00    +0.145 HD
ATOM      8  H   UNL     1      13.711   5.794  21.010  0.00  0.00    +0.145 HD
ATOM      9  C   UNL     1      12.934   5.071  22.767  0.00  0.00    +0.263 C 
ATOM     10  O   UNL     1      14.000   5.039  23.370  0.00  0.00    -0.269 OA
ENDBRANCH   1   9
BRANCH   4  11
ATOM     11  C   UNL     1       8.894   2.432  23.808  0.00  0.00    +0.186 C 
BRANCH  11  12
ATOM     12  C   UNL     1       9.333   1.121  23.235  0.00  0.00    +0.044 A 
ATOM     13  C   UNL     1       9.108   0.811  21.894  0.00  0.00    +0.131 A 
ATOM     14  F   UNL     1       8.579   1.737  21.081  0.00  0.00    -0.205 F 
ATOM     15  C   UNL     1       9.376  -0.458  21.383  0.00  0.00    +0.039 A 
ATOM     16  C   UNL     1       9.895  -1.445  22.219  0.00  0.00    +0.006 A 
ATOM     17  C   UNL     1      10.172  -1.141  23.552  0.00  0.00    +0.039 A 
ATOM     18  C   UNL     1       9.896   0.134  24.043  0.00  0.00    +0.131 A 
ATOM     19  F   UNL     1      10.135   0.389  25.336  0.00  0.00    -0.205 F 
ENDBRANCH  11  12
ENDBRANCH   4  11
TORSDOF 3
ENDMDL
MODEL 7
REMARK VINA RESULT:      -5.9      2.470      2.958
REMARK  Name = 
REMARK  3 active torsions:
REMARK  status: ('A' for Active; 'I' for Inactive)
REMARK    1  A    between atoms: C_2  and  C_4
REMARK    2  A    between atoms: N_6  and  C_7
REMARK    3  A    between atoms: C_7  and  C_8
REMARK                            x       y       z     vdW  Elec       q    Type
REMARK                         _______ _______ _______ _____ _____    ______ ____
ROOT
ATOM      1  C   UNL     1       7.836  -4.619  25.574  0.00  0.00    +0.167 A 
ATOM      2  N   UNL     1       9.199  -4.579  25.393  0.00  0.00    -0.125 NA
ATOM      3  N   UNL     1       9.458  -3.792  24.356  0.00  0.00    -0.065 NA
ATOM      4  N   UNL     1       8.280  -3.339  23.885  0.00  0.00    -0.246 N 
ATOM      5  C   UNL     1       7.240  -3.793  24.644  0.00  0.00    +0.143 A 
ENDROOT
BRANCH   1   9
ATOM      6  N   UNL     1       5.976  -5.976  26.156  0.00  0.00    -0.324 N 
ATOM      7  H   UNL     1       5.592  -5.744  25.248  0.00  0.00    +0.145 HD
ATOM      8  H   UNL     1       5.434  -6.514  26.815  0.00  0.00    +0.145 HD
ATOM      9  C   UNL     1       7.177  -5.460  26.558  0.00  0.00    +0.263 C 
ATOM     10  O   UNL     1       7.622  -5.683  27.678  0.00  0.00    -0.269 OA
ENDBRANCH   1   9
BRANCH   4  11
ATOM     11  C   UNL     1       8.200  -2.755  22.557  0.00  0.00    +0.186 C 
BRANCH  11  12
ATOM     12  C   UNL     1       8.404  -1.274  22.527  0.00  0.00    +0.044 A 
ATOM     13  C   UNL     1       7.365  -0.398  22.842  0.00  0.00    +0.131 A 
ATOM     14  F   UNL     1       6.194  -0.888  23.274  0.00  0.00    -0.205 F 
ATOM     15  C   UNL     1       7.496   0.980  22.674  0.00  0.00    +0.039 A 
ATOM     16  C   UNL     1       8.693   1.509  22.194  0.00  0.00    +0.006 A 
ATOM     17  C   UNL     1       9.760   0.654  21.918  0.00  0.00    +0.039 A 
ATOM     18  C   UNL     1       9.609  -0.721  22.092  0.00  0.00    +0.131 A 
ATOM     19  F   UNL     1      10.635  -1.524  21.783  0.00  0.00    -0.205 F 
ENDBRANCH  11  12
ENDBRANCH   4  11
TORSDOF 3
ENDMDL
MODEL 8
REMARK VINA RESULT:      -5.9      5.165      7.034
REMARK  Name = 
REMARK  3 active torsions:
REMARK  status: ('A' for Active; 'I' for Inactive)
REMARK    1  A    between atoms: C_2  and  C_4
REMARK    2  A    between atoms: N_6  and  C_7
REMARK    3  A    between atoms: C_7  and  C_8
REMARK                            x       y       z     vdW  Elec       q    Type
REMARK                         _______ _______ _______ _____ _____    ______ ____
ROOT
ATOM      1  C   UNL     1      11.626   4.638  23.348  0.00  0.00    +0.167 A 
ATOM      2  N   UNL     1      10.707   5.516  23.875  0.00  0.00    -0.125 NA
ATOM      3  N   UNL     1       9.617   4.832  24.200  0.00  0.00    -0.065 NA
ATOM      4  N   UNL     1       9.838   3.541  23.884  0.00  0.00    -0.246 N 
ATOM      5  C   UNL     1      11.098   3.364  23.391  0.00  0.00    +0.143 A 
ENDROOT
BRANCH   1   9
ATOM      6  N   UNL     1      12.848   5.492  21.500  0.00  0.00    -0.324 N 
ATOM      7  H   UNL     1      11.971   5.495  20.992  0.00  0.00    +0.145 HD
ATOM      8  H   UNL     1      13.709   5.727  21.029  0.00  0.00    +0.145 HD
ATOM      9  C   UNL     1      12.904   5.046  22.791  0.00  0.00    +0.263 C 
ATOM     10  O   UNL     1      13.969   4.977  23.395  0.00  0.00    -0.269 OA
ENDBRANCH   1   9
BRANCH   4  11
ATOM     11  C   UNL     1       8.725   2.613  23.784  0.00  0.00    +0.186 C 
BRANCH  11  12
ATOM     12  C   UNL     1       9.096   1.267  23.246  0.00  0.00    +0.044 A 
ATOM     13  C   UNL     1       9.729   0.320  24.051  0.00  0.00    +0.131 A 
ATOM     14  F   UNL     1       9.921   0.580  25.353  0.00  0.00    -0.205 F 
ATOM     15  C   UNL     1      10.213  -0.878  23.527  0.00  0.00    +0.039 A 
ATOM     16  C   UNL     1      10.054  -1.154  22.170  0.00  0.00    +0.006 A 
ATOM     17  C   UNL     1       9.382  -0.241  21.357  0.00  0.00    +0.039 A 
ATOM     18  C   UNL     1       8.906   0.951  21.901  0.00  0.00    +0.131 A 
ATOM     19  F   UNL     1       8.298   1.828  21.092  0.00  0.00    -0.205 F 
ENDBRANCH  11  12
ENDBRANCH   4  11
TORSDOF 3
ENDMDL
MODEL 9
REMARK VINA RESULT:      -5.8      2.998      5.492
REMARK  Name = 
REMARK  3 active torsions:
REMARK  status: ('A' for Active; 'I' for Inactive)
REMARK    1  A    between atoms: C_2  and  C_4
REMARK    2  A    between atoms: N_6  and  C_7
REMARK    3  A    between atoms: C_7  and  C_8
REMARK                            x       y       z     vdW  Elec       q    Type
REMARK                         _______ _______ _______ _____ _____    ______ ____
ROOT
ATOM      1  C   UNL     1       9.385   0.340  22.874  0.00  0.00    +0.167 A 
ATOM      2  N   UNL     1       8.979   0.423  24.186  0.00  0.00    -0.125 NA
ATOM      3  N   UNL     1       9.241  -0.736  24.776  0.00  0.00    -0.065 NA
ATOM      4  N   UNL     1       9.804  -1.544  23.856  0.00  0.00    -0.246 N 
ATOM      5  C   UNL     1       9.957  -0.898  22.664  0.00  0.00    +0.143 A 
ENDROOT
BRANCH   1   9
ATOM      6  N   UNL     1      10.228   2.229  21.708  0.00  0.00    -0.324 N 
ATOM      7  H   UNL     1      11.076   2.117  22.251  0.00  0.00    +0.145 HD
ATOM      8  H   UNL     1      10.121   3.019  21.090  0.00  0.00    +0.145 HD
ATOM      9  C   UNL     1       9.166   1.389  21.893  0.00  0.00    +0.263 C 
ATOM     10  O   UNL     1       8.113   1.552  21.287  0.00  0.00    -0.269 OA
ENDBRANCH   1   9
BRANCH   4  11
ATOM     11  C   UNL     1       9.876  -2.976  24.088  0.00  0.00    +0.186 C 
BRANCH  11  12
ATOM     12  C   UNL     1       8.555  -3.617  24.378  0.00  0.00    +0.044 A 
ATOM     13  C   UNL     1       8.237  -4.057  25.663  0.00  0.00    +0.131 A 
ATOM     14  F   UNL     1       9.084  -3.816  26.674  0.00  0.00    -0.205 F 
ATOM     15  C   UNL     1       7.077  -4.788  25.917  0.00  0.00    +0.039 A 
ATOM     16  C   UNL     1       6.199  -5.078  24.874  0.00  0.00    +0.006 A 
ATOM     17  C   UNL     1       6.476  -4.606  23.591  0.00  0.00    +0.039 A 
ATOM     18  C   UNL     1       7.641  -3.878  23.358  0.00  0.00    +0.131 A 
ATOM     19  F   UNL     1       7.903  -3.468  22.110  0.00  0.00    -0.205 F 
ENDBRANCH  11  12
ENDBRANCH   4  11
TORSDOF 3
ENDMDL
