MODEL 1
REMARK VINA RESULT:      -4.6      0.000      0.000
REMARK  Name = 
REMARK  11 active torsions:
REMARK  status: ('A' for Active; 'I' for Inactive)
REMARK    1  A    between atoms: C_1  and  N_2
REMARK    2  A    between atoms: N_2  and  C_3
REMARK    3  A    between atoms: N_2  and  C_4
REMARK    4  A    between atoms: C_4  and  C_5
REMARK    5  A    between atoms: C_5  and  O_6
REMARK    6  A    between atoms: O_6  and  P_7
REMARK    7  A    between atoms: P_7  and  O_8
REMARK    8  A    between atoms: P_7  and  O_10
REMARK    9  A    between atoms: O_10  and  P_11
REMARK   10  A    between atoms: P_11  and  O_12
REMARK   11  A    between atoms: P_11  and  O_13
REMARK                            x       y       z     vdW  Elec       q    Type
REMARK                         _______ _______ _______ _____ _____    ______ ____
ROOT
ATOM      1  P   UNL     1       8.827  -5.175  25.208  0.00  0.00    +0.483 P 
ATOM      2  O   UNL     1       8.699  -5.610  23.751  0.00  0.00    -0.227 OA
ENDROOT
BRANCH   1   3
ATOM      3  O   UNL     1      10.544  -5.263  25.013  0.00  0.00    -0.302 OA
ATOM      4  H   UNL     1      10.755  -6.157  25.355  0.00  0.00    +0.222 HD
ENDBRANCH   1   3
BRANCH   1   5
ATOM      5  O   UNL     1       8.950  -3.537  25.269  0.00  0.00    -0.285 OA
BRANCH   5   6
ATOM      6  C   UNL     1       8.656  -2.892  24.033  0.00  0.00    +0.187 C 
BRANCH   6   7
ATOM      7  C   UNL     1       9.872  -2.123  23.501  0.00  0.00    +0.112 C 
BRANCH   7   9
ATOM      8  C   UNL     1      10.492   0.086  24.251  0.00  0.00    +0.104 C 
ATOM      9  N   UNL     1       9.623  -0.674  23.346  0.00  0.00    -0.306 NA
ATOM     10  C   UNL     1       9.835  -0.214  21.971  0.00  0.00    +0.104 C 
ENDBRANCH   7   9
ENDBRANCH   6   7
ENDBRANCH   5   6
ENDBRANCH   1   5
BRANCH   1  11
ATOM     11  O   UNL     1       7.110  -5.086  25.401  0.00  0.00    -0.186 OA
BRANCH  11  12
ATOM     12  P   UNL     1       6.709  -5.241  27.076  0.00  0.00    +0.481 P 
ATOM     13  O   UNL     1       6.351  -5.380  28.576  0.00  0.00    -0.227 OA
BRANCH  12  14
ATOM     14  O   UNL     1       6.931  -3.624  27.174  0.00  0.00    -0.302 OA
ATOM     15  H   UNL     1       6.483  -3.207  26.424  0.00  0.00    +0.222 HD
ENDBRANCH  12  14
BRANCH  12  16
ATOM     16  O   UNL     1       8.294  -5.619  27.278  0.00  0.00    -0.302 OA
ATOM     17  H   UNL     1       8.476  -6.511  26.916  0.00  0.00    +0.222 HD
ENDBRANCH  12  16
ENDBRANCH  11  12
ENDBRANCH   1  11
TORSDOF 9
ENDMDL
MODEL 2
REMARK VINA RESULT:      -4.5      3.060      4.466
REMARK  Name = 
REMARK  11 active torsions:
REMARK  status: ('A' for Active; 'I' for Inactive)
REMARK    1  A    between atoms: C_1  and  N_2
REMARK    2  A    between atoms: N_2  and  C_3
REMARK    3  A    between atoms: N_2  and  C_4
REMARK    4  A    between atoms: C_4  and  C_5
REMARK    5  A    between atoms: C_5  and  O_6
REMARK    6  A    between atoms: O_6  and  P_7
REMARK    7  A    between atoms: P_7  and  O_8
REMARK    8  A    between atoms: P_7  and  O_10
REMARK    9  A    between atoms: O_10  and  P_11
REMARK   10  A    between atoms: P_11  and  O_12
REMARK   11  A    between atoms: P_11  and  O_13
REMARK                            x       y       z     vdW  Elec       q    Type
REMARK                         _______ _______ _______ _____ _____    ______ ____
ROOT
ATOM      1  P   UNL     1       9.141  -2.321  23.953  0.00  0.00    +0.483 P 
ATOM      2  O   UNL     1      10.354  -1.747  23.227  0.00  0.00    -0.227 OA
ENDROOT
BRANCH   1   3
ATOM      3  O   UNL     1       8.311  -0.847  23.591  0.00  0.00    -0.302 OA
ATOM      4  H   UNL     1       9.013  -0.296  23.186  0.00  0.00    +0.222 HD
ENDBRANCH   1   3
BRANCH   1   5
ATOM      5  O   UNL     1       8.181  -3.092  22.865  0.00  0.00    -0.285 OA
BRANCH   5   6
ATOM      6  C   UNL     1       6.854  -2.575  22.801  0.00  0.00    +0.187 C 
BRANCH   6   7
ATOM      7  C   UNL     1       5.932  -3.500  21.996  0.00  0.00    +0.112 C 
BRANCH   7   9
ATOM      8  C   UNL     1       5.173  -5.499  23.117  0.00  0.00    +0.104 C 
ATOM      9  N   UNL     1       6.197  -4.935  22.231  0.00  0.00    -0.306 NA
ATOM     10  C   UNL     1       6.238  -5.706  20.986  0.00  0.00    +0.104 C 
ENDBRANCH   7   9
ENDBRANCH   6   7
ENDBRANCH   5   6
ENDBRANCH   1   5
BRANCH   1  11
ATOM     11  O   UNL     1       9.972  -3.795  24.313  0.00  0.00    -0.186 OA
BRANCH  11  12
ATOM     12  P   UNL     1       8.960  -4.805  25.285  0.00  0.00    +0.481 P 
ATOM     13  O   UNL     1       8.052  -5.709  26.155  0.00  0.00    -0.227 OA
BRANCH  12  14
ATOM     14  O   UNL     1      10.317  -5.639  25.654  0.00  0.00    -0.302 OA
ATOM     15  H   UNL     1      10.330  -6.451  25.129  0.00  0.00    +0.222 HD
ENDBRANCH  12  14
BRANCH  12  16
ATOM     16  O   UNL     1       8.664  -5.617  23.890  0.00  0.00    -0.302 OA
ATOM     17  H   UNL     1       7.709  -5.579  23.674  0.00  0.00    +0.222 HD
ENDBRANCH  12  16
ENDBRANCH  11  12
ENDBRANCH   1  11
TORSDOF 9
ENDMDL
MODEL 3
REMARK VINA RESULT:      -4.4      4.609      6.216
REMARK  Name = 
REMARK  11 active torsions:
REMARK  status: ('A' for Active; 'I' for Inactive)
REMARK    1  A    between atoms: C_1  and  N_2
REMARK    2  A    between atoms: N_2  and  C_3
REMARK    3  A    between atoms: N_2  and  C_4
REMARK    4  A    between atoms: C_4  and  C_5
REMARK    5  A    between atoms: C_5  and  O_6
REMARK    6  A    between atoms: O_6  and  P_7
REMARK    7  A    between atoms: P_7  and  O_8
REMARK    8  A    between atoms: P_7  and  O_10
REMARK    9  A    between atoms: O_10  and  P_11
REMARK   10  A    between atoms: P_11  and  O_12
REMARK   11  A    between atoms: P_11  and  O_13
REMARK                            x       y       z     vdW  Elec       q    Type
REMARK                         _______ _______ _______ _____ _____    ______ ____
ROOT
ATOM      1  P   UNL     1      10.067  -1.461  22.735  0.00  0.00    +0.483 P 
ATOM      2  O   UNL     1       9.622  -0.712  23.987  0.00  0.00    -0.227 OA
ENDROOT
BRANCH   1   3
ATOM      3  O   UNL     1      10.037  -2.914  23.675  0.00  0.00    -0.302 OA
ATOM      4  H   UNL     1      10.022  -2.577  24.595  0.00  0.00    +0.222 HD
ENDBRANCH   1   3
BRANCH   1   5
ATOM      5  O   UNL     1       8.738  -1.992  21.928  0.00  0.00    -0.285 OA
BRANCH   5   6
ATOM      6  C   UNL     1       7.608  -2.218  22.767  0.00  0.00    +0.187 C 
BRANCH   6   7
ATOM      7  C   UNL     1       6.853  -3.489  22.358  0.00  0.00    +0.112 C 
BRANCH   7   9
ATOM      8  C   UNL     1       7.201  -5.028  24.185  0.00  0.00    +0.104 C 
ATOM      9  N   UNL     1       7.529  -4.733  22.787  0.00  0.00    -0.306 NA
ATOM     10  C   UNL     1       7.169  -5.881  21.952  0.00  0.00    +0.104 C 
ENDBRANCH   7   9
ENDBRANCH   6   7
ENDBRANCH   5   6
ENDBRANCH   1   5
BRANCH   1  11
ATOM     11  O   UNL     1      10.097  -0.007  21.797  0.00  0.00    -0.186 OA
BRANCH  11  12
ATOM     12  P   UNL     1       9.675   1.336  22.800  0.00  0.00    +0.481 P 
ATOM     13  O   UNL     1       9.297   2.539  23.699  0.00  0.00    -0.227 OA
BRANCH  12  14
ATOM     14  O   UNL     1       8.156   1.161  22.221  0.00  0.00    -0.302 OA
ATOM     15  H   UNL     1       7.628   1.919  22.511  0.00  0.00    +0.222 HD
ENDBRANCH  12  14
BRANCH  12  16
ATOM     16  O   UNL     1      10.203   2.259  21.550  0.00  0.00    -0.302 OA
ATOM     17  H   UNL     1      10.167   1.748  20.715  0.00  0.00    +0.222 HD
ENDBRANCH  12  16
ENDBRANCH  11  12
ENDBRANCH   1  11
TORSDOF 9
ENDMDL
MODEL 4
REMARK VINA RESULT:      -4.3      5.302      6.794
REMARK  Name = 
REMARK  11 active torsions:
REMARK  status: ('A' for Active; 'I' for Inactive)
REMARK    1  A    between atoms: C_1  and  N_2
REMARK    2  A    between atoms: N_2  and  C_3
REMARK    3  A    between atoms: N_2  and  C_4
REMARK    4  A    between atoms: C_4  and  C_5
REMARK    5  A    between atoms: C_5  and  O_6
REMARK    6  A    between atoms: O_6  and  P_7
REMARK    7  A    between atoms: P_7  and  O_8
REMARK    8  A    between atoms: P_7  and  O_10
REMARK    9  A    between atoms: O_10  and  P_11
REMARK   10  A    between atoms: P_11  and  O_12
REMARK   11  A    between atoms: P_11  and  O_13
REMARK                            x       y       z     vdW  Elec       q    Type
REMARK                         _______ _______ _______ _____ _____    ______ ____
ROOT
ATOM      1  P   UNL     1       9.408  -0.265  21.934  0.00  0.00    +0.483 P 
ATOM      2  O   UNL     1      10.188   0.026  23.212  0.00  0.00    -0.227 OA
ENDROOT
BRANCH   1   3
ATOM      3  O   UNL     1      10.355  -1.703  21.763  0.00  0.00    -0.302 OA
ATOM      4  H   UNL     1      10.734  -1.609  20.865  0.00  0.00    +0.222 HD
ENDBRANCH   1   3
BRANCH   1   5
ATOM      5  O   UNL     1       8.109  -1.202  22.301  0.00  0.00    -0.285 OA
BRANCH   5   6
ATOM      6  C   UNL     1       8.452  -2.510  22.752  0.00  0.00    +0.187 C 
BRANCH   6   7
ATOM      7  C   UNL     1       7.373  -3.533  22.376  0.00  0.00    +0.112 C 
BRANCH   7   9
ATOM      8  C   UNL     1       7.012  -4.986  24.270  0.00  0.00    +0.104 C 
ATOM      9  N   UNL     1       7.622  -4.877  22.940  0.00  0.00    -0.306 NA
ATOM     10  C   UNL     1       7.108  -5.947  22.082  0.00  0.00    +0.104 C 
ENDBRANCH   7   9
ENDBRANCH   6   7
ENDBRANCH   5   6
ENDBRANCH   1   5
BRANCH   1  11
ATOM     11  O   UNL     1       8.460   1.173  22.105  0.00  0.00    -0.186 OA
BRANCH  11  12
ATOM     12  P   UNL     1       9.387   2.378  22.928  0.00  0.00    +0.481 P 
ATOM     13  O   UNL     1      10.217   3.458  23.666  0.00  0.00    -0.227 OA
BRANCH  12  14
ATOM     14  O   UNL     1       8.336   3.466  22.307  0.00  0.00    -0.302 OA
ATOM     15  H   UNL     1       7.735   3.002  21.706  0.00  0.00    +0.222 HD
ENDBRANCH  12  14
BRANCH  12  16
ATOM     16  O   UNL     1      10.357   2.339  21.605  0.00  0.00    -0.302 OA
ATOM     17  H   UNL     1      10.002   2.931  20.910  0.00  0.00    +0.222 HD
ENDBRANCH  12  16
ENDBRANCH  11  12
ENDBRANCH   1  11
TORSDOF 9
ENDMDL
MODEL 5
REMARK VINA RESULT:      -4.3      1.672      2.581
REMARK  Name = 
REMARK  11 active torsions:
REMARK  status: ('A' for Active; 'I' for Inactive)
REMARK    1  A    between atoms: C_1  and  N_2
REMARK    2  A    between atoms: N_2  and  C_3
REMARK    3  A    between atoms: N_2  and  C_4
REMARK    4  A    between atoms: C_4  and  C_5
REMARK    5  A    between atoms: C_5  and  O_6
REMARK    6  A    between atoms: O_6  and  P_7
REMARK    7  A    between atoms: P_7  and  O_8
REMARK    8  A    between atoms: P_7  and  O_10
REMARK    9  A    between atoms: O_10  and  P_11
REMARK   10  A    between atoms: P_11  and  O_12
REMARK   11  A    between atoms: P_11  and  O_13
REMARK                            x       y       z     vdW  Elec       q    Type
REMARK                         _______ _______ _______ _____ _____    ______ ____
ROOT
ATOM      1  P   UNL     1       7.932  -3.374  23.434  0.00  0.00    +0.483 P 
ATOM      2  O   UNL     1       6.829  -3.936  24.325  0.00  0.00    -0.227 OA
ENDROOT
BRANCH   1   3
ATOM      3  O   UNL     1       6.712  -2.461  22.615  0.00  0.00    -0.302 OA
ATOM      4  H   UNL     1       6.828  -1.561  22.985  0.00  0.00    +0.222 HD
ENDBRANCH   1   3
BRANCH   1   5
ATOM      5  O   UNL     1       8.492  -1.976  24.092  0.00  0.00    -0.285 OA
BRANCH   5   6
ATOM      6  C   UNL     1       9.864  -1.716  23.808  0.00  0.00    +0.187 C 
BRANCH   6   7
ATOM      7  C   UNL     1      10.059  -1.263  22.356  0.00  0.00    +0.112 C 
BRANCH   7   9
ATOM      8  C   UNL     1       9.022   0.752  21.523  0.00  0.00    +0.104 C 
ATOM      9  N   UNL     1      10.193   0.203  22.216  0.00  0.00    -0.306 NA
ATOM     10  C   UNL     1      10.352   0.875  23.507  0.00  0.00    +0.104 C 
ENDBRANCH   7   9
ENDBRANCH   6   7
ENDBRANCH   5   6
ENDBRANCH   1   5
BRANCH   1  11
ATOM     11  O   UNL     1       9.151  -4.287  24.255  0.00  0.00    -0.186 OA
BRANCH  11  12
ATOM     12  P   UNL     1       8.448  -5.100  25.610  0.00  0.00    +0.481 P 
ATOM     13  O   UNL     1       7.819  -5.828  26.823  0.00  0.00    -0.227 OA
BRANCH  12  14
ATOM     14  O   UNL     1       8.852  -3.778  26.483  0.00  0.00    -0.302 OA
ATOM     15  H   UNL     1       9.806  -3.639  26.406  0.00  0.00    +0.222 HD
ENDBRANCH  12  14
BRANCH  12  16
ATOM     16  O   UNL     1       9.912  -5.827  25.759  0.00  0.00    -0.302 OA
ATOM     17  H   UNL     1       9.822  -6.668  26.253  0.00  0.00    +0.222 HD
ENDBRANCH  12  16
ENDBRANCH  11  12
ENDBRANCH   1  11
TORSDOF 9
ENDMDL
MODEL 6
REMARK VINA RESULT:      -4.3      2.314      3.455
REMARK  Name = 
REMARK  11 active torsions:
REMARK  status: ('A' for Active; 'I' for Inactive)
REMARK    1  A    between atoms: C_1  and  N_2
REMARK    2  A    between atoms: N_2  and  C_3
REMARK    3  A    between atoms: N_2  and  C_4
REMARK    4  A    between atoms: C_4  and  C_5
REMARK    5  A    between atoms: C_5  and  O_6
REMARK    6  A    between atoms: O_6  and  P_7
REMARK    7  A    between atoms: P_7  and  O_8
REMARK    8  A    between atoms: P_7  and  O_10
REMARK    9  A    between atoms: O_10  and  P_11
REMARK   10  A    between atoms: P_11  and  O_12
REMARK   11  A    between atoms: P_11  and  O_13
REMARK                            x       y       z     vdW  Elec       q    Type
REMARK                         _______ _______ _______ _____ _____    ______ ____
ROOT
ATOM      1  P   UNL     1       8.001  -4.613  24.263  0.00  0.00    +0.483 P 
ATOM      2  O   UNL     1       8.254  -5.510  23.056  0.00  0.00    -0.227 OA
ENDROOT
BRANCH   1   3
ATOM      3  O   UNL     1       9.661  -4.837  24.695  0.00  0.00    -0.302 OA
ATOM      4  H   UNL     1      10.090  -5.000  23.829  0.00  0.00    +0.222 HD
ENDBRANCH   1   3
BRANCH   1   5
ATOM      5  O   UNL     1       8.348  -3.059  23.859  0.00  0.00    -0.285 OA
BRANCH   5   6
ATOM      6  C   UNL     1       9.731  -2.731  23.970  0.00  0.00    +0.187 C 
BRANCH   6   7
ATOM      7  C   UNL     1      10.172  -1.778  22.851  0.00  0.00    +0.112 C 
BRANCH   7   9
ATOM      8  C   UNL     1      10.588   0.268  24.063  0.00  0.00    +0.104 C 
ATOM      9  N   UNL     1       9.731  -0.383  23.066  0.00  0.00    -0.306 NA
ATOM     10  C   UNL     1       9.742   0.403  21.830  0.00  0.00    +0.104 C 
ENDBRANCH   7   9
ENDBRANCH   6   7
ENDBRANCH   5   6
ENDBRANCH   1   5
BRANCH   1  11
ATOM     11  O   UNL     1       6.340  -4.389  23.831  0.00  0.00    -0.186 OA
BRANCH  11  12
ATOM     12  P   UNL     1       6.110  -4.838  22.177  0.00  0.00    +0.481 P 
ATOM     13  O   UNL     1       5.903  -5.240  20.695  0.00  0.00    -0.227 OA
BRANCH  12  14
ATOM     14  O   UNL     1       6.596  -3.322  21.803  0.00  0.00    -0.302 OA
ATOM     15  H   UNL     1       5.823  -2.740  21.818  0.00  0.00    +0.222 HD
ENDBRANCH  12  14
BRANCH  12  16
ATOM     16  O   UNL     1       4.540  -4.430  22.428  0.00  0.00    -0.302 OA
ATOM     17  H   UNL     1       4.038  -5.209  22.749  0.00  0.00    +0.222 HD
ENDBRANCH  12  16
ENDBRANCH  11  12
ENDBRANCH   1  11
TORSDOF 9
ENDMDL
MODEL 7
REMARK VINA RESULT:      -4.2      4.867      6.549
REMARK  Name = 
REMARK  11 active torsions:
REMARK  status: ('A' for Active; 'I' for Inactive)
REMARK    1  A    between atoms: C_1  and  N_2
REMARK    2  A    between atoms: N_2  and  C_3
REMARK    3  A    between atoms: N_2  and  C_4
REMARK    4  A    between atoms: C_4  and  C_5
REMARK    5  A    between atoms: C_5  and  O_6
REMARK    6  A    between atoms: O_6  and  P_7
REMARK    7  A    between atoms: P_7  and  O_8
REMARK    8  A    between atoms: P_7  and  O_10
REMARK    9  A    between atoms: O_10  and  P_11
REMARK   10  A    between atoms: P_11  and  O_12
REMARK   11  A    between atoms: P_11  and  O_13
REMARK                            x       y       z     vdW  Elec       q    Type
REMARK                         _______ _______ _______ _____ _____    ______ ____
ROOT
ATOM      1  P   UNL     1       9.957   0.218  24.416  0.00  0.00    +0.483 P 
ATOM      2  O   UNL     1       9.452   1.642  24.623  0.00  0.00    -0.227 OA
ENDROOT
BRANCH   1   3
ATOM      3  O   UNL     1       9.816  -0.009  26.126  0.00  0.00    -0.302 OA
ATOM      4  H   UNL     1      10.490   0.605  26.483  0.00  0.00    +0.222 HD
ENDBRANCH   1   3
BRANCH   1   5
ATOM      5  O   UNL     1       8.669  -0.781  24.209  0.00  0.00    -0.285 OA
BRANCH   5   6
ATOM      6  C   UNL     1       8.953  -1.926  23.409  0.00  0.00    +0.187 C 
BRANCH   6   7
ATOM      7  C   UNL     1       9.771  -2.964  24.188  0.00  0.00    +0.112 C 
BRANCH   7   9
ATOM      8  C   UNL     1       9.630  -5.052  25.392  0.00  0.00    +0.104 C 
ATOM      9  N   UNL     1       9.126  -4.294  24.242  0.00  0.00    -0.306 NA
ATOM     10  C   UNL     1       7.666  -4.204  24.322  0.00  0.00    +0.104 C 
ENDBRANCH   7   9
ENDBRANCH   6   7
ENDBRANCH   5   6
ENDBRANCH   1   5
BRANCH   1  11
ATOM     11  O   UNL     1      10.097   0.446  22.707  0.00  0.00    -0.186 OA
BRANCH  11  12
ATOM     12  P   UNL     1       9.012   1.694  22.201  0.00  0.00    +0.481 P 
ATOM     13  O   UNL     1       8.040   2.812  21.748  0.00  0.00    -0.227 OA
BRANCH  12  14
ATOM     14  O   UNL     1       8.887   0.874  20.792  0.00  0.00    -0.302 OA
ATOM     15  H   UNL     1       9.776   0.746  20.431  0.00  0.00    +0.222 HD
ENDBRANCH  12  14
BRANCH  12  16
ATOM     16  O   UNL     1      10.370   2.512  21.774  0.00  0.00    -0.302 OA
ATOM     17  H   UNL     1      10.384   3.389  22.210  0.00  0.00    +0.222 HD
ENDBRANCH  12  16
ENDBRANCH  11  12
ENDBRANCH   1  11
TORSDOF 9
ENDMDL
MODEL 8
REMARK VINA RESULT:      -4.1      3.309      4.339
REMARK  Name = 
REMARK  11 active torsions:
REMARK  status: ('A' for Active; 'I' for Inactive)
REMARK    1  A    between atoms: C_1  and  N_2
REMARK    2  A    between atoms: N_2  and  C_3
REMARK    3  A    between atoms: N_2  and  C_4
REMARK    4  A    between atoms: C_4  and  C_5
REMARK    5  A    between atoms: C_5  and  O_6
REMARK    6  A    between atoms: O_6  and  P_7
REMARK    7  A    between atoms: P_7  and  O_8
REMARK    8  A    between atoms: P_7  and  O_10
REMARK    9  A    between atoms: O_10  and  P_11
REMARK   10  A    between atoms: P_11  and  O_12
REMARK   11  A    between atoms: P_11  and  O_13
REMARK                            x       y       z     vdW  Elec       q    Type
REMARK                         _______ _______ _______ _____ _____    ______ ____
ROOT
ATOM      1  P   UNL     1       6.937  -2.441  22.843  0.00  0.00    +0.483 P 
ATOM      2  O   UNL     1       6.340  -2.711  24.221  0.00  0.00    -0.227 OA
ENDROOT
BRANCH   1   3
ATOM      3  O   UNL     1       6.263  -0.850  22.938  0.00  0.00    -0.302 OA
ATOM      4  H   UNL     1       6.260  -0.560  22.002  0.00  0.00    +0.222 HD
ENDBRANCH   1   3
BRANCH   1   5
ATOM      5  O   UNL     1       8.432  -1.784  23.027  0.00  0.00    -0.285 OA
BRANCH   5   6
ATOM      6  C   UNL     1       9.108  -1.540  21.796  0.00  0.00    +0.187 C 
BRANCH   6   7
ATOM      7  C   UNL     1       9.636  -0.102  21.723  0.00  0.00    +0.112 C 
BRANCH   7   9
ATOM      8  C   UNL     1       9.649   1.565  23.469  0.00  0.00    +0.104 C 
ATOM      9  N   UNL     1       8.815   0.860  22.490  0.00  0.00    -0.306 NA
ATOM     10  C   UNL     1       8.148   1.838  21.628  0.00  0.00    +0.104 C 
ENDBRANCH   7   9
ENDBRANCH   6   7
ENDBRANCH   5   6
ENDBRANCH   1   5
BRANCH   1  11
ATOM     11  O   UNL     1       7.611  -4.032  22.750  0.00  0.00    -0.186 OA
BRANCH  11  12
ATOM     12  P   UNL     1       6.610  -5.024  21.749  0.00  0.00    +0.481 P 
ATOM     13  O   UNL     1       5.714  -5.914  20.851  0.00  0.00    -0.227 OA
BRANCH  12  14
ATOM     14  O   UNL     1       5.689  -3.692  21.523  0.00  0.00    -0.302 OA
ATOM     15  H   UNL     1       6.175  -3.076  20.957  0.00  0.00    +0.222 HD
ENDBRANCH  12  14
BRANCH  12  16
ATOM     16  O   UNL     1       5.883  -5.469  23.151  0.00  0.00    -0.302 OA
ATOM     17  H   UNL     1       5.564  -4.677  23.631  0.00  0.00    +0.222 HD
ENDBRANCH  12  16
ENDBRANCH  11  12
ENDBRANCH   1  11
TORSDOF 9
ENDMDL
MODEL 9
REMARK VINA RESULT:      -4.1      5.343      6.707
REMARK  Name = 
REMARK  11 active torsions:
REMARK  status: ('A' for Active; 'I' for Inactive)
REMARK    1  A    between atoms: C_1  and  N_2
REMARK    2  A    between atoms: N_2  and  C_3
REMARK    3  A    between atoms: N_2  and  C_4
REMARK    4  A    between atoms: C_4  and  C_5
REMARK    5  A    between atoms: C_5  and  O_6
REMARK    6  A    between atoms: O_6  and  P_7
REMARK    7  A    between atoms: P_7  and  O_8
REMARK    8  A    between atoms: P_7  and  O_10
REMARK    9  A    between atoms: O_10  and  P_11
REMARK   10  A    between atoms: P_11  and  O_12
REMARK   11  A    between atoms: P_11  and  O_13
REMARK                            x       y       z     vdW  Elec       q    Type
REMARK                         _______ _______ _______ _____ _____    ______ ____
ROOT
ATOM      1  P   UNL     1      10.151   1.544  24.179  0.00  0.00    +0.483 P 
ATOM      2  O   UNL     1       8.720   1.333  24.663  0.00  0.00    -0.227 OA
ENDROOT
BRANCH   1   3
ATOM      3  O   UNL     1      10.653   0.393  25.370  0.00  0.00    -0.302 OA
ATOM      4  H   UNL     1      10.283  -0.448  25.029  0.00  0.00    +0.222 HD
ENDBRANCH   1   3
BRANCH   1   5
ATOM      5  O   UNL     1      10.491   0.438  23.012  0.00  0.00    -0.285 OA
BRANCH   5   6
ATOM      6  C   UNL     1      10.109  -0.892  23.352  0.00  0.00    +0.187 C 
BRANCH   6   7
ATOM      7  C   UNL     1       9.429  -1.597  22.171  0.00  0.00    +0.112 C 
BRANCH   7   9
ATOM      8  C   UNL     1       8.484  -3.254  23.650  0.00  0.00    +0.104 C 
ATOM      9  N   UNL     1       8.199  -2.322  22.554  0.00  0.00    -0.306 NA
ATOM     10  C   UNL     1       7.120  -1.417  22.956  0.00  0.00    +0.104 C 
ENDBRANCH   7   9
ENDBRANCH   6   7
ENDBRANCH   5   6
ENDBRANCH   1   5
BRANCH   1  11
ATOM     11  O   UNL     1       9.649   2.695  22.989  0.00  0.00    -0.186 OA
BRANCH  11  12
ATOM     12  P   UNL     1       8.020   2.361  22.516  0.00  0.00    +0.481 P 
ATOM     13  O   UNL     1       6.560   2.063  22.093  0.00  0.00    -0.227 OA
BRANCH  12  14
ATOM     14  O   UNL     1       8.651   1.751  21.137  0.00  0.00    -0.302 OA
ATOM     15  H   UNL     1       7.927   1.570  20.522  0.00  0.00    +0.222 HD
ENDBRANCH  12  14
BRANCH  12  16
ATOM     16  O   UNL     1       7.998   3.917  21.992  0.00  0.00    -0.302 OA
ATOM     17  H   UNL     1       7.697   4.510  22.712  0.00  0.00    +0.222 HD
ENDBRANCH  12  16
ENDBRANCH  11  12
ENDBRANCH   1  11
TORSDOF 9
ENDMDL
