MODEL 1
REMARK VINA RESULT:      -8.9      0.000      0.000
REMARK  Name = 
REMARK  5 active torsions:
REMARK  status: ('A' for Active; 'I' for Inactive)
REMARK    1  A    between atoms: C_9  and  C_12
REMARK    2  A    between atoms: N_14  and  C_15
REMARK    3  A    between atoms: C_15  and  C_16
REMARK    4  A    between atoms: C_19  and  C_22
REMARK    5  A    between atoms: N_30  and  O_31
REMARK                            x       y       z     vdW  Elec       q    Type
REMARK                         _______ _______ _______ _____ _____    ______ ____
ROOT
ATOM      1  C   UNL     1       7.472  -2.466  23.240  0.00  0.00    +0.245 C 
ATOM      2  N   UNL     1       8.818  -2.571  22.965  0.00  0.00    -0.309 N 
ATOM      3  H   UNL     1       9.310  -3.372  23.345  0.00  0.00    +0.149 HD
ATOM      4  O   UNL     1       6.740  -1.662  22.669  0.00  0.00    -0.273 OA
ENDROOT
BRANCH   1   7
ATOM      5  C   UNL     1       8.425  -4.492  25.762  0.00  0.00    +0.269 C 
ATOM      6  O   UNL     1       7.813  -3.204  25.585  0.00  0.00    -0.335 OA
ATOM      7  C   UNL     1       6.999  -3.344  24.411  0.00  0.00    +0.237 C 
ATOM      8  C   UNL     1       7.081  -4.817  24.042  0.00  0.00    +0.176 C 
ATOM      9  C   UNL     1       6.057  -5.669  24.812  0.00  0.00    +0.144 C 
ATOM     10  N   UNL     1       6.268  -5.710  26.265  0.00  0.00    -0.277 N 
ATOM     11  C   UNL     1       5.331  -6.403  27.010  0.00  0.00    +0.325 C 
ATOM     12  N   UNL     1       5.696  -6.716  28.300  0.00  0.00    -0.181 N 
ATOM     13  H   UNL     1       6.652  -7.012  28.449  0.00  0.00    +0.184 HD
ATOM     14  O   UNL     1       4.233  -6.746  26.565  0.00  0.00    -0.250 OA
ATOM     15  O   UNL     1       8.403  -5.165  24.499  0.00  0.00    -0.342 OA
ATOM     16  C   UNL     1       7.611  -5.341  26.766  0.00  0.00    +0.170 C 
BRANCH  12  17
ATOM     17  O   UNL     1       4.754  -7.550  28.967  0.00  0.00    -0.294 OA
ATOM     18  H   UNL     1       4.356  -6.933  29.621  0.00  0.00    +0.241 HD
ENDBRANCH  12  17
ENDBRANCH   1   7
BRANCH   2  19
ATOM     19  C   UNL     1       9.428  -1.822  21.888  0.00  0.00    +0.139 C 
BRANCH  19  20
ATOM     20  C   UNL     1       9.742  -0.418  22.324  0.00  0.00    -0.030 A 
ATOM     21  C   UNL     1       9.426   0.663  21.495  0.00  0.00    +0.006 A 
ATOM     22  C   UNL     1       9.680   1.977  21.905  0.00  0.00    +0.009 A 
ATOM     23  C   UNL     1      10.231   2.262  23.166  0.00  0.00    -0.018 A 
ATOM     24  C   UNL     1      10.553   1.162  23.982  0.00  0.00    +0.009 A 
ATOM     25  C   UNL     1      10.316  -0.157  23.571  0.00  0.00    +0.006 A 
BRANCH  23  26
ATOM     26  C   UNL     1      10.432   3.659  23.631  0.00  0.00    -0.018 A 
ATOM     27  C   UNL     1      11.646   4.337  23.404  0.00  0.00    +0.008 A 
ATOM     28  C   UNL     1      11.833   5.665  23.804  0.00  0.00    +0.001 A 
ATOM     29  C   UNL     1      10.803   6.353  24.435  0.00  0.00    +0.000 A 
ATOM     30  C   UNL     1       9.594   5.710  24.678  0.00  0.00    +0.001 A 
ATOM     31  C   UNL     1       9.416   4.377  24.289  0.00  0.00    +0.008 A 
ENDBRANCH  23  26
ENDBRANCH  19  20
ENDBRANCH   2  19
TORSDOF 5
ENDMDL
MODEL 2
REMARK VINA RESULT:      -8.6      1.248      1.959
REMARK  Name = 
REMARK  5 active torsions:
REMARK  status: ('A' for Active; 'I' for Inactive)
REMARK    1  A    between atoms: C_9  and  C_12
REMARK    2  A    between atoms: N_14  and  C_15
REMARK    3  A    between atoms: C_15  and  C_16
REMARK    4  A    between atoms: C_19  and  C_22
REMARK    5  A    between atoms: N_30  and  O_31
REMARK                            x       y       z     vdW  Elec       q    Type
REMARK                         _______ _______ _______ _____ _____    ______ ____
ROOT
ATOM      1  C   UNL     1       8.366  -2.869  22.852  0.00  0.00    +0.245 C 
ATOM      2  N   UNL     1       9.634  -2.448  23.191  0.00  0.00    -0.309 N 
ATOM      3  H   UNL     1      10.142  -3.003  23.872  0.00  0.00    +0.149 HD
ATOM      4  O   UNL     1       7.746  -2.403  21.901  0.00  0.00    -0.273 OA
ENDROOT
BRANCH   1   7
ATOM      5  C   UNL     1       5.514  -4.262  23.994  0.00  0.00    +0.269 C 
ATOM      6  O   UNL     1       6.693  -4.654  23.272  0.00  0.00    -0.335 OA
ATOM      7  C   UNL     1       7.750  -3.871  23.844  0.00  0.00    +0.237 C 
ATOM      8  C   UNL     1       7.115  -3.139  25.017  0.00  0.00    +0.176 C 
ATOM      9  C   UNL     1       7.100  -3.992  26.297  0.00  0.00    +0.144 C 
ATOM     10  N   UNL     1       6.273  -5.203  26.213  0.00  0.00    -0.277 N 
ATOM     11  C   UNL     1       6.285  -6.042  27.313  0.00  0.00    +0.325 C 
ATOM     12  N   UNL     1       5.280  -6.981  27.367  0.00  0.00    -0.181 N 
ATOM     13  H   UNL     1       4.357  -6.686  27.075  0.00  0.00    +0.184 HD
ATOM     14  O   UNL     1       7.124  -5.964  28.214  0.00  0.00    -0.250 OA
ATOM     15  O   UNL     1       5.758  -2.971  24.563  0.00  0.00    -0.342 OA
ATOM     16  C   UNL     1       5.240  -5.248  25.154  0.00  0.00    +0.170 C 
BRANCH  12  17
ATOM     17  O   UNL     1       5.260  -7.716  28.587  0.00  0.00    -0.294 OA
ATOM     18  H   UNL     1       5.482  -7.025  29.250  0.00  0.00    +0.241 HD
ENDBRANCH  12  17
ENDBRANCH   1   7
BRANCH   2  19
ATOM     19  C   UNL     1      10.365  -1.514  22.364  0.00  0.00    +0.139 C 
BRANCH  19  20
ATOM     20  C   UNL     1      10.110  -0.098  22.803  0.00  0.00    -0.030 A 
ATOM     21  C   UNL     1      10.273   0.261  24.144  0.00  0.00    +0.006 A 
ATOM     22  C   UNL     1      10.074   1.584  24.559  0.00  0.00    +0.009 A 
ATOM     23  C   UNL     1       9.734   2.599  23.647  0.00  0.00    -0.018 A 
ATOM     24  C   UNL     1       9.564   2.216  22.304  0.00  0.00    +0.009 A 
ATOM     25  C   UNL     1       9.746   0.890  21.885  0.00  0.00    +0.006 A 
BRANCH  23  26
ATOM     26  C   UNL     1       9.596   4.015  24.075  0.00  0.00    -0.018 A 
ATOM     27  C   UNL     1      10.557   4.983  23.721  0.00  0.00    +0.008 A 
ATOM     28  C   UNL     1      10.417   6.326  24.087  0.00  0.00    +0.001 A 
ATOM     29  C   UNL     1       9.304   6.739  24.810  0.00  0.00    +0.000 A 
ATOM     30  C   UNL     1       8.341   5.807  25.180  0.00  0.00    +0.001 A 
ATOM     31  C   UNL     1       8.491   4.461  24.824  0.00  0.00    +0.008 A 
ENDBRANCH  23  26
ENDBRANCH  19  20
ENDBRANCH   2  19
TORSDOF 5
ENDMDL
MODEL 3
REMARK VINA RESULT:      -8.4      2.486      3.152
REMARK  Name = 
REMARK  5 active torsions:
REMARK  status: ('A' for Active; 'I' for Inactive)
REMARK    1  A    between atoms: C_9  and  C_12
REMARK    2  A    between atoms: N_14  and  C_15
REMARK    3  A    between atoms: C_15  and  C_16
REMARK    4  A    between atoms: C_19  and  C_22
REMARK    5  A    between atoms: N_30  and  O_31
REMARK                            x       y       z     vdW  Elec       q    Type
REMARK                         _______ _______ _______ _____ _____    ______ ____
ROOT
ATOM      1  C   UNL     1       8.969  -3.399  23.757  0.00  0.00    +0.245 C 
ATOM      2  N   UNL     1       9.090  -2.368  22.851  0.00  0.00    -0.309 N 
ATOM      3  H   UNL     1       8.239  -2.029  22.415  0.00  0.00    +0.149 HD
ATOM      4  O   UNL     1       9.890  -3.747  24.491  0.00  0.00    -0.273 OA
ENDROOT
BRANCH   1   7
ATOM      5  C   UNL     1       7.068  -5.495  21.921  0.00  0.00    +0.269 C 
ATOM      6  O   UNL     1       7.774  -5.495  23.173  0.00  0.00    -0.335 OA
ATOM      7  C   UNL     1       7.634  -4.157  23.672  0.00  0.00    +0.237 C 
ATOM      8  C   UNL     1       6.688  -3.466  22.701  0.00  0.00    +0.176 C 
ATOM      9  C   UNL     1       5.210  -3.715  23.050  0.00  0.00    +0.144 C 
ATOM     10  N   UNL     1       4.786  -5.117  22.938  0.00  0.00    -0.277 N 
ATOM     11  C   UNL     1       3.485  -5.404  23.312  0.00  0.00    +0.325 C 
ATOM     12  N   UNL     1       2.995  -6.625  22.905  0.00  0.00    -0.181 N 
ATOM     13  H   UNL     1       3.242  -6.933  21.972  0.00  0.00    +0.184 HD
ATOM     14  O   UNL     1       2.778  -4.626  23.956  0.00  0.00    -0.250 OA
ATOM     15  O   UNL     1       6.987  -4.141  21.464  0.00  0.00    -0.342 OA
ATOM     16  C   UNL     1       5.626  -6.017  22.117  0.00  0.00    +0.170 C 
BRANCH  12  17
ATOM     17  O   UNL     1       1.612  -6.803  23.193  0.00  0.00    -0.294 OA
ATOM     18  H   UNL     1       1.332  -7.430  22.488  0.00  0.00    +0.241 HD
ENDBRANCH  12  17
ENDBRANCH   1   7
BRANCH   2  19
ATOM     19  C   UNL     1      10.278  -1.544  22.800  0.00  0.00    +0.139 C 
BRANCH  19  20
ATOM     20  C   UNL     1       9.928  -0.090  22.963  0.00  0.00    -0.030 A 
ATOM     21  C   UNL     1       9.965   0.503  24.228  0.00  0.00    +0.006 A 
ATOM     22  C   UNL     1       9.677   1.864  24.388  0.00  0.00    +0.009 A 
ATOM     23  C   UNL     1       9.370   2.686  23.290  0.00  0.00    -0.018 A 
ATOM     24  C   UNL     1       9.327   2.069  22.026  0.00  0.00    +0.009 A 
ATOM     25  C   UNL     1       9.599   0.703  21.862  0.00  0.00    +0.006 A 
BRANCH  23  26
ATOM     26  C   UNL     1       9.137   4.145  23.450  0.00  0.00    -0.018 A 
ATOM     27  C   UNL     1      10.115   4.983  24.019  0.00  0.00    +0.008 A 
ATOM     28  C   UNL     1       9.921   6.364  24.141  0.00  0.00    +0.001 A 
ATOM     29  C   UNL     1       8.742   6.944  23.686  0.00  0.00    +0.000 A 
ATOM     30  C   UNL     1       7.754   6.142  23.124  0.00  0.00    +0.001 A 
ATOM     31  C   UNL     1       7.947   4.759  23.017  0.00  0.00    +0.008 A 
ENDBRANCH  23  26
ENDBRANCH  19  20
ENDBRANCH   2  19
TORSDOF 5
ENDMDL
MODEL 4
REMARK VINA RESULT:      -8.2      2.412      3.113
REMARK  Name = 
REMARK  5 active torsions:
REMARK  status: ('A' for Active; 'I' for Inactive)
REMARK    1  A    between atoms: C_9  and  C_12
REMARK    2  A    between atoms: N_14  and  C_15
REMARK    3  A    between atoms: C_15  and  C_16
REMARK    4  A    between atoms: C_19  and  C_22
REMARK    5  A    between atoms: N_30  and  O_31
REMARK                            x       y       z     vdW  Elec       q    Type
REMARK                         _______ _______ _______ _____ _____    ______ ____
ROOT
ATOM      1  C   UNL     1       9.399  -2.111  23.223  0.00  0.00    +0.245 C 
ATOM      2  N   UNL     1       9.783  -1.034  23.993  0.00  0.00    -0.309 N 
ATOM      3  H   UNL     1       9.748  -1.146  25.000  0.00  0.00    +0.149 HD
ATOM      4  O   UNL     1       9.594  -2.163  22.012  0.00  0.00    -0.273 OA
ENDROOT
BRANCH   1   7
ATOM      5  C   UNL     1       6.319  -3.287  23.936  0.00  0.00    +0.269 C 
ATOM      6  O   UNL     1       7.496  -3.706  23.227  0.00  0.00    -0.335 OA
ATOM      7  C   UNL     1       8.591  -3.173  23.988  0.00  0.00    +0.237 C 
ATOM      8  C   UNL     1       7.955  -2.569  25.231  0.00  0.00    +0.176 C 
ATOM      9  C   UNL     1       7.737  -3.613  26.340  0.00  0.00    +0.144 C 
ATOM     10  N   UNL     1       6.780  -4.674  25.998  0.00  0.00    -0.277 N 
ATOM     11  C   UNL     1       6.604  -5.677  26.934  0.00  0.00    +0.325 C 
ATOM     12  N   UNL     1       5.493  -6.473  26.765  0.00  0.00    -0.181 N 
ATOM     13  H   UNL     1       4.638  -6.015  26.475  0.00  0.00    +0.184 HD
ATOM     14  O   UNL     1       7.371  -5.861  27.882  0.00  0.00    -0.250 OA
ATOM     15  O   UNL     1       6.668  -2.152  24.734  0.00  0.00    -0.342 OA
ATOM     16  C   UNL     1       5.838  -4.407  24.889  0.00  0.00    +0.170 C 
BRANCH  12  17
ATOM     17  O   UNL     1       5.288  -7.390  27.834  0.00  0.00    -0.294 OA
ATOM     18  H   UNL     1       6.187  -7.457  28.227  0.00  0.00    +0.241 HD
ENDBRANCH  12  17
ENDBRANCH   1   7
BRANCH   2  19
ATOM     19  C   UNL     1      10.558   0.052  23.435  0.00  0.00    +0.139 C 
BRANCH  19  20
ATOM     20  C   UNL     1       9.702   1.272  23.234  0.00  0.00    -0.030 A 
ATOM     21  C   UNL     1       8.957   1.421  22.060  0.00  0.00    +0.006 A 
ATOM     22  C   UNL     1       8.129   2.534  21.876  0.00  0.00    +0.009 A 
ATOM     23  C   UNL     1       7.992   3.523  22.866  0.00  0.00    -0.018 A 
ATOM     24  C   UNL     1       8.757   3.362  24.036  0.00  0.00    +0.009 A 
ATOM     25  C   UNL     1       9.602   2.257  24.219  0.00  0.00    +0.006 A 
BRANCH  23  26
ATOM     26  C   UNL     1       7.056   4.666  22.702  0.00  0.00    -0.018 A 
ATOM     27  C   UNL     1       7.490   5.893  22.163  0.00  0.00    +0.008 A 
ATOM     28  C   UNL     1       6.609   6.963  21.969  0.00  0.00    +0.001 A 
ATOM     29  C   UNL     1       5.266   6.829  22.302  0.00  0.00    +0.000 A 
ATOM     30  C   UNL     1       4.808   5.632  22.841  0.00  0.00    +0.001 A 
ATOM     31  C   UNL     1       5.696   4.568  23.046  0.00  0.00    +0.008 A 
ENDBRANCH  23  26
ENDBRANCH  19  20
ENDBRANCH   2  19
TORSDOF 5
ENDMDL
MODEL 5
REMARK VINA RESULT:      -8.1      3.571      9.816
REMARK  Name = 
REMARK  5 active torsions:
REMARK  status: ('A' for Active; 'I' for Inactive)
REMARK    1  A    between atoms: C_9  and  C_12
REMARK    2  A    between atoms: N_14  and  C_15
REMARK    3  A    between atoms: C_15  and  C_16
REMARK    4  A    between atoms: C_19  and  C_22
REMARK    5  A    between atoms: N_30  and  O_31
REMARK                            x       y       z     vdW  Elec       q    Type
REMARK                         _______ _______ _______ _____ _____    ______ ____
ROOT
ATOM      1  C   UNL     1       9.711  -1.910  23.531  0.00  0.00    +0.245 C 
ATOM      2  N   UNL     1       8.958  -2.395  24.579  0.00  0.00    -0.309 N 
ATOM      3  H   UNL     1       8.135  -1.865  24.846  0.00  0.00    +0.149 HD
ATOM      4  O   UNL     1      10.597  -2.567  22.993  0.00  0.00    -0.273 OA
ENDROOT
BRANCH   1   7
ATOM      5  C   UNL     1      10.139   1.298  24.482  0.00  0.00    +0.269 C 
ATOM      6  O   UNL     1      10.562   0.420  23.427  0.00  0.00    -0.335 OA
ATOM      7  C   UNL     1       9.434  -0.436  23.189  0.00  0.00    +0.237 C 
ATOM      8  C   UNL     1       8.321   0.117  24.066  0.00  0.00    +0.176 C 
ATOM      9  C   UNL     1       7.554   1.262  23.382  0.00  0.00    +0.144 C 
ATOM     10  N   UNL     1       8.358   2.464  23.120  0.00  0.00    -0.277 N 
ATOM     11  C   UNL     1       7.733   3.494  22.440  0.00  0.00    +0.325 C 
ATOM     12  N   UNL     1       8.363   4.717  22.486  0.00  0.00    -0.181 N 
ATOM     13  H   UNL     1       8.780   4.989  23.367  0.00  0.00    +0.184 HD
ATOM     14  O   UNL     1       6.667   3.357  21.836  0.00  0.00    -0.250 OA
ATOM     15  O   UNL     1       9.061   0.662  25.177  0.00  0.00    -0.342 OA
ATOM     16  C   UNL     1       9.607   2.627  23.897  0.00  0.00    +0.170 C 
BRANCH  12  17
ATOM     17  O   UNL     1       7.603   5.766  21.893  0.00  0.00    -0.294 OA
ATOM     18  H   UNL     1       8.303   6.403  21.623  0.00  0.00    +0.241 HD
ENDBRANCH  12  17
ENDBRANCH   1   7
BRANCH   2  19
ATOM     19  C   UNL     1       9.083  -3.764  25.026  0.00  0.00    +0.139 C 
BRANCH  19  20
ATOM     20  C   UNL     1       7.805  -4.522  24.793  0.00  0.00    -0.030 A 
ATOM     21  C   UNL     1       7.091  -5.045  25.876  0.00  0.00    +0.006 A 
ATOM     22  C   UNL     1       5.882  -5.721  25.675  0.00  0.00    +0.009 A 
ATOM     23  C   UNL     1       5.328  -5.876  24.392  0.00  0.00    -0.018 A 
ATOM     24  C   UNL     1       6.066  -5.353  23.314  0.00  0.00    +0.009 A 
ATOM     25  C   UNL     1       7.286  -4.689  23.508  0.00  0.00    +0.006 A 
BRANCH  23  26
ATOM     26  C   UNL     1       4.009  -6.528  24.187  0.00  0.00    -0.018 A 
ATOM     27  C   UNL     1       3.181  -6.176  23.104  0.00  0.00    +0.008 A 
ATOM     28  C   UNL     1       1.954  -6.811  22.879  0.00  0.00    +0.001 A 
ATOM     29  C   UNL     1       1.527  -7.823  23.731  0.00  0.00    +0.000 A 
ATOM     30  C   UNL     1       2.320  -8.190  24.813  0.00  0.00    +0.001 A 
ATOM     31  C   UNL     1       3.541  -7.543  25.042  0.00  0.00    +0.008 A 
ENDBRANCH  23  26
ENDBRANCH  19  20
ENDBRANCH   2  19
TORSDOF 5
ENDMDL
MODEL 6
REMARK VINA RESULT:      -8.0      1.831      2.112
REMARK  Name = 
REMARK  5 active torsions:
REMARK  status: ('A' for Active; 'I' for Inactive)
REMARK    1  A    between atoms: C_9  and  C_12
REMARK    2  A    between atoms: N_14  and  C_15
REMARK    3  A    between atoms: C_15  and  C_16
REMARK    4  A    between atoms: C_19  and  C_22
REMARK    5  A    between atoms: N_30  and  O_31
REMARK                            x       y       z     vdW  Elec       q    Type
REMARK                         _______ _______ _______ _____ _____    ______ ____
ROOT
ATOM      1  C   UNL     1       8.858  -2.864  23.389  0.00  0.00    +0.245 C 
ATOM      2  N   UNL     1       8.814  -2.042  22.284  0.00  0.00    -0.309 N 
ATOM      3  H   UNL     1       7.900  -1.755  21.953  0.00  0.00    +0.149 HD
ATOM      4  O   UNL     1       9.897  -3.104  23.996  0.00  0.00    -0.273 OA
ENDROOT
BRANCH   1   7
ATOM      5  C   UNL     1       7.262  -5.033  25.421  0.00  0.00    +0.269 C 
ATOM      6  O   UNL     1       7.248  -3.629  25.117  0.00  0.00    -0.335 OA
ATOM      7  C   UNL     1       7.522  -3.556  23.710  0.00  0.00    +0.237 C 
ATOM      8  C   UNL     1       7.539  -5.000  23.231  0.00  0.00    +0.176 C 
ATOM      9  C   UNL     1       6.130  -5.519  22.896  0.00  0.00    +0.144 C 
ATOM     10  N   UNL     1       5.218  -5.593  24.045  0.00  0.00    -0.277 N 
ATOM     11  C   UNL     1       3.917  -5.984  23.782  0.00  0.00    +0.325 C 
ATOM     12  N   UNL     1       3.168  -6.365  24.873  0.00  0.00    -0.181 N 
ATOM     13  H   UNL     1       3.636  -6.914  25.584  0.00  0.00    +0.184 HD
ATOM     14  O   UNL     1       3.436  -6.015  22.647  0.00  0.00    -0.250 OA
ATOM     15  O   UNL     1       8.017  -5.695  24.400  0.00  0.00    -0.342 OA
ATOM     16  C   UNL     1       5.825  -5.605  25.394  0.00  0.00    +0.170 C 
BRANCH  12  17
ATOM     17  O   UNL     1       1.892  -6.892  24.526  0.00  0.00    -0.294 OA
ATOM     18  H   UNL     1       1.634  -7.370  25.346  0.00  0.00    +0.241 HD
ENDBRANCH  12  17
ENDBRANCH   1   7
BRANCH   2  19
ATOM     19  C   UNL     1       9.980  -1.306  21.846  0.00  0.00    +0.139 C 
BRANCH  19  20
ATOM     20  C   UNL     1       9.967   0.093  22.398  0.00  0.00    -0.030 A 
ATOM     21  C   UNL     1       9.265   1.104  21.734  0.00  0.00    +0.006 A 
ATOM     22  C   UNL     1       9.215   2.401  22.257  0.00  0.00    +0.009 A 
ATOM     23  C   UNL     1       9.841   2.731  23.472  0.00  0.00    -0.018 A 
ATOM     24  C   UNL     1      10.552   1.705  24.120  0.00  0.00    +0.009 A 
ATOM     25  C   UNL     1      10.619   0.407  23.593  0.00  0.00    +0.006 A 
BRANCH  23  26
ATOM     26  C   UNL     1       9.726   4.090  24.064  0.00  0.00    -0.018 A 
ATOM     27  C   UNL     1      10.632   5.113  23.723  0.00  0.00    +0.008 A 
ATOM     28  C   UNL     1      10.511   6.406  24.245  0.00  0.00    +0.001 A 
ATOM     29  C   UNL     1       9.472   6.710  25.117  0.00  0.00    +0.000 A 
ATOM     30  C   UNL     1       8.565   5.720  25.478  0.00  0.00    +0.001 A 
ATOM     31  C   UNL     1       8.698   4.424  24.964  0.00  0.00    +0.008 A 
ENDBRANCH  23  26
ENDBRANCH  19  20
ENDBRANCH   2  19
TORSDOF 5
ENDMDL
MODEL 7
REMARK VINA RESULT:      -8.0      2.190      3.188
REMARK  Name = 
REMARK  5 active torsions:
REMARK  status: ('A' for Active; 'I' for Inactive)
REMARK    1  A    between atoms: C_9  and  C_12
REMARK    2  A    between atoms: N_14  and  C_15
REMARK    3  A    between atoms: C_15  and  C_16
REMARK    4  A    between atoms: C_19  and  C_22
REMARK    5  A    between atoms: N_30  and  O_31
REMARK                            x       y       z     vdW  Elec       q    Type
REMARK                         _______ _______ _______ _____ _____    ______ ____
ROOT
ATOM      1  C   UNL     1       8.818  -3.959  24.393  0.00  0.00    +0.245 C 
ATOM      2  N   UNL     1       8.958  -2.749  23.749  0.00  0.00    -0.309 N 
ATOM      3  H   UNL     1       8.131  -2.354  23.315  0.00  0.00    +0.149 HD
ATOM      4  O   UNL     1       9.689  -4.427  25.121  0.00  0.00    -0.273 OA
ENDROOT
BRANCH   1   7
ATOM      5  C   UNL     1       5.716  -3.734  23.088  0.00  0.00    +0.269 C 
ATOM      6  O   UNL     1       6.986  -4.318  22.756  0.00  0.00    -0.335 OA
ATOM      7  C   UNL     1       7.541  -4.728  24.015  0.00  0.00    +0.237 C 
ATOM      8  C   UNL     1       6.442  -4.474  25.036  0.00  0.00    +0.176 C 
ATOM      9  C   UNL     1       5.450  -5.646  25.129  0.00  0.00    +0.144 C 
ATOM     10  N   UNL     1       4.674  -5.887  23.905  0.00  0.00    -0.277 N 
ATOM     11  C   UNL     1       3.821  -6.976  23.914  0.00  0.00    +0.325 C 
ATOM     12  N   UNL     1       2.873  -7.008  22.916  0.00  0.00    -0.181 N 
ATOM     13  H   UNL     1       2.431  -6.131  22.672  0.00  0.00    +0.184 HD
ATOM     14  O   UNL     1       3.874  -7.870  24.762  0.00  0.00    -0.250 OA
ATOM     15  O   UNL     1       5.760  -3.341  24.463  0.00  0.00    -0.342 OA
ATOM     16  C   UNL     1       4.586  -4.779  22.929  0.00  0.00    +0.170 C 
BRANCH  12  17
ATOM     17  O   UNL     1       1.937  -8.072  23.061  0.00  0.00    -0.294 OA
ATOM     18  H   UNL     1       1.550  -7.889  23.947  0.00  0.00    +0.241 HD
ENDBRANCH  12  17
ENDBRANCH   1   7
BRANCH   2  19
ATOM     19  C   UNL     1      10.097  -1.892  23.994  0.00  0.00    +0.139 C 
BRANCH  19  20
ATOM     20  C   UNL     1       9.716  -0.443  23.855  0.00  0.00    -0.030 A 
ATOM     21  C   UNL     1      10.670   0.557  24.063  0.00  0.00    +0.006 A 
ATOM     22  C   UNL     1      10.337   1.907  23.901  0.00  0.00    +0.009 A 
ATOM     23  C   UNL     1       9.050   2.306  23.499  0.00  0.00    -0.018 A 
ATOM     24  C   UNL     1       8.100   1.286  23.306  0.00  0.00    +0.009 A 
ATOM     25  C   UNL     1       8.424  -0.067  23.482  0.00  0.00    +0.006 A 
BRANCH  23  26
ATOM     26  C   UNL     1       8.717   3.733  23.256  0.00  0.00    -0.018 A 
ATOM     27  C   UNL     1       7.606   4.101  22.472  0.00  0.00    +0.008 A 
ATOM     28  C   UNL     1       7.262   5.442  22.267  0.00  0.00    +0.001 A 
ATOM     29  C   UNL     1       8.018   6.452  22.852  0.00  0.00    +0.000 A 
ATOM     30  C   UNL     1       9.124   6.121  23.627  0.00  0.00    +0.001 A 
ATOM     31  C   UNL     1       9.473   4.779  23.817  0.00  0.00    +0.008 A 
ENDBRANCH  23  26
ENDBRANCH  19  20
ENDBRANCH   2  19
TORSDOF 5
ENDMDL
MODEL 8
REMARK VINA RESULT:      -7.7      1.900      2.607
REMARK  Name = 
REMARK  5 active torsions:
REMARK  status: ('A' for Active; 'I' for Inactive)
REMARK    1  A    between atoms: C_9  and  C_12
REMARK    2  A    between atoms: N_14  and  C_15
REMARK    3  A    between atoms: C_15  and  C_16
REMARK    4  A    between atoms: C_19  and  C_22
REMARK    5  A    between atoms: N_30  and  O_31
REMARK                            x       y       z     vdW  Elec       q    Type
REMARK                         _______ _______ _______ _____ _____    ______ ____
ROOT
ATOM      1  C   UNL     1       7.675  -3.212  23.147  0.00  0.00    +0.245 C 
ATOM      2  N   UNL     1       8.838  -2.895  23.816  0.00  0.00    -0.309 N 
ATOM      3  H   UNL     1       8.969  -3.297  24.737  0.00  0.00    +0.149 HD
ATOM      4  O   UNL     1       7.503  -2.956  21.959  0.00  0.00    -0.273 OA
ENDROOT
BRANCH   1   7
ATOM      5  C   UNL     1       5.208  -5.496  23.414  0.00  0.00    +0.269 C 
ATOM      6  O   UNL     1       6.490  -5.220  24.000  0.00  0.00    -0.335 OA
ATOM      7  C   UNL     1       6.569  -3.787  24.048  0.00  0.00    +0.237 C 
ATOM      8  C   UNL     1       5.202  -3.297  23.596  0.00  0.00    +0.176 C 
ATOM      9  C   UNL     1       4.189  -3.246  24.754  0.00  0.00    +0.144 C 
ATOM     10  N   UNL     1       3.863  -4.555  25.335  0.00  0.00    -0.277 N 
ATOM     11  C   UNL     1       3.013  -4.555  26.427  0.00  0.00    +0.325 C 
ATOM     12  N   UNL     1       2.456  -5.771  26.758  0.00  0.00    -0.181 N 
ATOM     13  H   UNL     1       2.159  -6.365  25.995  0.00  0.00    +0.184 HD
ATOM     14  O   UNL     1       2.739  -3.541  27.072  0.00  0.00    -0.250 OA
ATOM     15  O   UNL     1       4.801  -4.336  22.682  0.00  0.00    -0.342 OA
ATOM     16  C   UNL     1       4.156  -5.753  24.518  0.00  0.00    +0.170 C 
BRANCH  12  17
ATOM     17  O   UNL     1       1.484  -5.682  27.795  0.00  0.00    -0.294 OA
ATOM     18  H   UNL     1       0.811  -6.339  27.506  0.00  0.00    +0.241 HD
ENDBRANCH  12  17
ENDBRANCH   1   7
BRANCH   2  19
ATOM     19  C   UNL     1       9.984  -2.352  23.119  0.00  0.00    +0.139 C 
BRANCH  19  20
ATOM     20  C   UNL     1      10.010  -0.852  23.222  0.00  0.00    -0.030 A 
ATOM     21  C   UNL     1      10.171  -0.236  24.467  0.00  0.00    +0.006 A 
ATOM     22  C   UNL     1      10.234   1.158  24.572  0.00  0.00    +0.009 A 
ATOM     23  C   UNL     1      10.166   1.987  23.438  0.00  0.00    -0.018 A 
ATOM     24  C   UNL     1       9.994   1.350  22.195  0.00  0.00    +0.009 A 
ATOM     25  C   UNL     1       9.914  -0.046  22.086  0.00  0.00    +0.006 A 
BRANCH  23  26
ATOM     26  C   UNL     1      10.307   3.462  23.541  0.00  0.00    -0.018 A 
ATOM     27  C   UNL     1       9.203   4.281  23.850  0.00  0.00    +0.008 A 
ATOM     28  C   UNL     1       9.332   5.668  23.987  0.00  0.00    +0.001 A 
ATOM     29  C   UNL     1      10.575   6.271  23.826  0.00  0.00    +0.000 A 
ATOM     30  C   UNL     1      11.682   5.491  23.516  0.00  0.00    +0.001 A 
ATOM     31  C   UNL     1      11.547   4.105  23.366  0.00  0.00    +0.008 A 
ENDBRANCH  23  26
ENDBRANCH  19  20
ENDBRANCH   2  19
TORSDOF 5
ENDMDL
MODEL 9
REMARK VINA RESULT:      -7.5      3.529     10.002
REMARK  Name = 
REMARK  5 active torsions:
REMARK  status: ('A' for Active; 'I' for Inactive)
REMARK    1  A    between atoms: C_9  and  C_12
REMARK    2  A    between atoms: N_14  and  C_15
REMARK    3  A    between atoms: C_15  and  C_16
REMARK    4  A    between atoms: C_19  and  C_22
REMARK    5  A    between atoms: N_30  and  O_31
REMARK                            x       y       z     vdW  Elec       q    Type
REMARK                         _______ _______ _______ _____ _____    ______ ____
ROOT
ATOM      1  C   UNL     1       8.730  -1.284  25.318  0.00  0.00    +0.245 C 
ATOM      2  N   UNL     1       8.837  -2.278  24.370  0.00  0.00    -0.309 N 
ATOM      3  H   UNL     1       9.050  -1.994  23.420  0.00  0.00    +0.149 HD
ATOM      4  O   UNL     1       8.682  -1.520  26.522  0.00  0.00    -0.273 OA
ENDROOT
BRANCH   1   7
ATOM      5  C   UNL     1       8.470   0.548  22.498  0.00  0.00    +0.269 C 
ATOM      6  O   UNL     1       7.649   0.156  23.609  0.00  0.00    -0.335 OA
ATOM      7  C   UNL     1       8.541   0.126  24.733  0.00  0.00    +0.237 C 
ATOM      8  C   UNL     1       9.862   0.667  24.207  0.00  0.00    +0.176 C 
ATOM      9  C   UNL     1       9.919   2.204  24.246  0.00  0.00    +0.144 C 
ATOM     10  N   UNL     1       8.948   2.872  23.368  0.00  0.00    -0.277 N 
ATOM     11  C   UNL     1       8.910   4.254  23.422  0.00  0.00    +0.325 C 
ATOM     12  N   UNL     1       8.253   4.881  22.387  0.00  0.00    -0.181 N 
ATOM     13  H   UNL     1       8.387   4.501  21.459  0.00  0.00    +0.184 HD
ATOM     14  O   UNL     1       9.439   4.911  24.322  0.00  0.00    -0.250 OA
ATOM     15  O   UNL     1       9.829   0.244  22.829  0.00  0.00    -0.342 OA
ATOM     16  C   UNL     1       8.368   2.074  22.266  0.00  0.00    +0.170 C 
BRANCH  12  17
ATOM     17  O   UNL     1       8.370   6.300  22.421  0.00  0.00    -0.294 OA
ATOM     18  H   UNL     1       7.640   6.554  23.029  0.00  0.00    +0.241 HD
ENDBRANCH  12  17
ENDBRANCH   1   7
BRANCH   2  19
ATOM     19  C   UNL     1       9.029  -3.661  24.746  0.00  0.00    +0.139 C 
BRANCH  19  20
ATOM     20  C   UNL     1       7.757  -4.445  24.570  0.00  0.00    -0.030 A 
ATOM     21  C   UNL     1       7.133  -5.030  25.676  0.00  0.00    +0.006 A 
ATOM     22  C   UNL     1       5.930  -5.731  25.530  0.00  0.00    +0.009 A 
ATOM     23  C   UNL     1       5.292  -5.849  24.283  0.00  0.00    -0.018 A 
ATOM     24  C   UNL     1       5.940  -5.263  23.180  0.00  0.00    +0.009 A 
ATOM     25  C   UNL     1       7.153  -4.574  23.317  0.00  0.00    +0.006 A 
BRANCH  23  26
ATOM     26  C   UNL     1       3.979  -6.529  24.142  0.00  0.00    -0.018 A 
ATOM     27  C   UNL     1       3.098  -6.206  23.091  0.00  0.00    +0.008 A 
ATOM     28  C   UNL     1       1.876  -6.867  22.926  0.00  0.00    +0.001 A 
ATOM     29  C   UNL     1       1.506  -7.876  23.808  0.00  0.00    +0.000 A 
ATOM     30  C   UNL     1       2.350  -8.214  24.859  0.00  0.00    +0.001 A 
ATOM     31  C   UNL     1       3.567  -7.541  25.028  0.00  0.00    +0.008 A 
ENDBRANCH  23  26
ENDBRANCH  19  20
ENDBRANCH   2  19
TORSDOF 5
ENDMDL
