MODEL 1
REMARK VINA RESULT:      -6.1      0.000      0.000
REMARK  Name = 
REMARK  16 active torsions:
REMARK  status: ('A' for Active; 'I' for Inactive)
REMARK    1  A    between atoms: C_1  and  C_2
REMARK    2  A    between atoms: C_2  and  C_3
REMARK    3  A    between atoms: C_2  and  C_4
REMARK    4  A    between atoms: C_4  and  C_5
REMARK    5  A    between atoms: C_5  and  N_7
REMARK    6  A    between atoms: C_5  and  C_17
REMARK    7  A    between atoms: C_8  and  C_10
REMARK    8  A    between atoms: C_10  and  O_12
REMARK    9  A    between atoms: C_10  and  C_13
REMARK   10  A    between atoms: C_13  and  C_14
REMARK   11  A    between atoms: C_14  and  O_15
REMARK   12  A    between atoms: N_19  and  C_20
REMARK   13  A    between atoms: C_20  and  C_21
REMARK   14  A    between atoms: C_21  and  C_22
REMARK   15  A    between atoms: C_22  and  C_23
REMARK   16  A    between atoms: C_23  and  N_24
REMARK                            x       y       z     vdW  Elec       q    Type
REMARK                         _______ _______ _______ _____ _____    ______ ____
ROOT
ATOM      1  C   UNL     1       7.746  -2.061  24.897  0.00  0.00    +0.159 C 
ENDROOT
BRANCH   1   2
ATOM      2  C   UNL     1       8.849  -1.328  24.095  0.00  0.00    +0.233 C 
ATOM      3  N   UNL     1       8.609  -1.281  22.735  0.00  0.00    -0.314 N 
ATOM      4  H   UNL     1       7.927  -1.949  22.375  0.00  0.00    +0.149 HD
ATOM      5  O   UNL     1       9.889  -0.916  24.603  0.00  0.00    -0.274 OA
BRANCH   3   6
ATOM      6  C   UNL     1       9.539  -0.682  21.802  0.00  0.00    +0.104 C 
BRANCH   6   7
ATOM      7  C   UNL     1       9.097   0.717  21.370  0.00  0.00    +0.022 C 
BRANCH   7   8
ATOM      8  C   UNL     1       9.840   1.811  22.143  0.00  0.00    +0.038 C 
BRANCH   8   9
ATOM      9  C   UNL     1       8.928   2.516  23.147  0.00  0.00    +0.196 C 
BRANCH   9  10
ATOM     10  N   UNL     1       8.604   3.882  22.696  0.00  0.00    -0.279 N 
ATOM     11  H   UNL     1       9.305   4.604  22.812  0.00  0.00    +0.258 HD
ATOM     12  C   UNL     1       7.439   4.245  22.133  0.00  0.00    +0.341 C 
ATOM     13  N   UNL     1       7.257   5.517  21.762  0.00  0.00    -0.292 N 
ATOM     14  H   UNL     1       6.394   5.820  21.333  0.00  0.00    +0.255 HD
ATOM     15  H   UNL     1       7.970   6.222  21.895  0.00  0.00    +0.255 HD
ATOM     16  N   UNL     1       6.448   3.376  21.923  0.00  0.00    -0.292 N 
ATOM     17  H   UNL     1       5.573   3.653  21.499  0.00  0.00    +0.255 HD
ATOM     18  H   UNL     1       6.539   2.403  22.184  0.00  0.00    +0.255 HD
ENDBRANCH   9  10
ENDBRANCH   8   9
ENDBRANCH   7   8
ENDBRANCH   6   7
ENDBRANCH   3   6
ENDBRANCH   1   2
BRANCH   1  19
ATOM     19  N   UNL     1       6.971  -2.905  23.971  0.00  0.00    -0.302 N 
ATOM     20  H   UNL     1       7.461  -3.274  23.164  0.00  0.00    +0.150 HD
ATOM     21  C   UNL     1       5.591  -2.817  23.933  0.00  0.00    +0.243 C 
ATOM     22  O   UNL     1       4.961  -2.056  24.662  0.00  0.00    -0.273 OA
BRANCH  21  23
ATOM     23  C   UNL     1       4.925  -3.783  22.931  0.00  0.00    +0.210 C 
BRANCH  23  24
ATOM     24  O   UNL     1       5.403  -3.532  21.602  0.00  0.00    -0.382 OA
ATOM     25  H   UNL     1       6.274  -3.091  21.680  0.00  0.00    +0.210 HD
ENDBRANCH  23  24
BRANCH  23  26
ATOM     26  C   UNL     1       5.257  -5.226  23.293  0.00  0.00    +0.161 C 
BRANCH  26  27
ATOM     27  C   UNL     1       6.256  -5.875  22.372  0.00  0.00    +0.308 C 
ATOM     28  O   UNL     1       7.463  -5.801  22.552  0.00  0.00    -0.251 OA
BRANCH  27  29
ATOM     29  O   UNL     1       5.723  -6.477  21.289  0.00  0.00    -0.481 OA
ATOM     30  H   UNL     1       5.212  -5.854  20.719  0.00  0.00    +0.295 HD
ENDBRANCH  27  29
ENDBRANCH  26  27
ENDBRANCH  23  26
ENDBRANCH  21  23
ENDBRANCH   1  19
BRANCH   1  31
ATOM     31  C   UNL     1       8.349  -2.915  26.029  0.00  0.00    +0.034 C 
BRANCH  31  33
ATOM     32  C   UNL     1       9.772  -4.977  25.529  0.00  0.00    +0.007 C 
ATOM     33  C   UNL     1       8.359  -4.438  25.759  0.00  0.00    -0.015 C 
ATOM     34  C   UNL     1       7.696  -5.197  26.912  0.00  0.00    +0.007 C 
ENDBRANCH  31  33
ENDBRANCH   1  31
TORSDOF 14
ENDMDL
MODEL 2
REMARK VINA RESULT:      -6.0      2.749      4.437
REMARK  Name = 
REMARK  16 active torsions:
REMARK  status: ('A' for Active; 'I' for Inactive)
REMARK    1  A    between atoms: C_1  and  C_2
REMARK    2  A    between atoms: C_2  and  C_3
REMARK    3  A    between atoms: C_2  and  C_4
REMARK    4  A    between atoms: C_4  and  C_5
REMARK    5  A    between atoms: C_5  and  N_7
REMARK    6  A    between atoms: C_5  and  C_17
REMARK    7  A    between atoms: C_8  and  C_10
REMARK    8  A    between atoms: C_10  and  O_12
REMARK    9  A    between atoms: C_10  and  C_13
REMARK   10  A    between atoms: C_13  and  C_14
REMARK   11  A    between atoms: C_14  and  O_15
REMARK   12  A    between atoms: N_19  and  C_20
REMARK   13  A    between atoms: C_20  and  C_21
REMARK   14  A    between atoms: C_21  and  C_22
REMARK   15  A    between atoms: C_22  and  C_23
REMARK   16  A    between atoms: C_23  and  N_24
REMARK                            x       y       z     vdW  Elec       q    Type
REMARK                         _______ _______ _______ _____ _____    ______ ____
ROOT
ATOM      1  C   UNL     1       8.100  -3.406  22.906  0.00  0.00    +0.159 C 
ENDROOT
BRANCH   1   2
ATOM      2  C   UNL     1       9.094  -2.220  22.893  0.00  0.00    +0.233 C 
ATOM      3  N   UNL     1       8.889  -1.335  21.851  0.00  0.00    -0.314 N 
ATOM      4  H   UNL     1       8.334  -1.681  21.069  0.00  0.00    +0.149 HD
ATOM      5  O   UNL     1      10.040  -2.126  23.671  0.00  0.00    -0.274 OA
BRANCH   3   6
ATOM      6  C   UNL     1       9.739  -0.184  21.631  0.00  0.00    +0.104 C 
BRANCH   6   7
ATOM      7  C   UNL     1       9.122   1.099  22.190  0.00  0.00    +0.022 C 
BRANCH   7   8
ATOM      8  C   UNL     1       9.949   1.672  23.345  0.00  0.00    +0.038 C 
BRANCH   8   9
ATOM      9  C   UNL     1       9.144   1.737  24.643  0.00  0.00    +0.196 C 
BRANCH   9  10
ATOM     10  N   UNL     1       9.380   0.539  25.470  0.00  0.00    -0.279 N 
ATOM     11  H   UNL     1      10.325   0.350  25.781  0.00  0.00    +0.258 HD
ATOM     12  C   UNL     1       8.426  -0.327  25.850  0.00  0.00    +0.341 C 
ATOM     13  N   UNL     1       8.758  -1.382  26.603  0.00  0.00    -0.292 N 
ATOM     14  H   UNL     1       8.062  -2.049  26.907  0.00  0.00    +0.255 HD
ATOM     15  H   UNL     1       9.710  -1.554  26.895  0.00  0.00    +0.255 HD
ATOM     16  N   UNL     1       7.145  -0.173  25.508  0.00  0.00    -0.292 N 
ATOM     17  H   UNL     1       6.429  -0.826  25.796  0.00  0.00    +0.255 HD
ATOM     18  H   UNL     1       6.844   0.611  24.941  0.00  0.00    +0.255 HD
ENDBRANCH   9  10
ENDBRANCH   8   9
ENDBRANCH   7   8
ENDBRANCH   6   7
ENDBRANCH   3   6
ENDBRANCH   1   2
BRANCH   1  19
ATOM     19  N   UNL     1       7.877  -3.819  24.303  0.00  0.00    -0.302 N 
ATOM     20  H   UNL     1       7.630  -3.092  24.965  0.00  0.00    +0.150 HD
ATOM     21  C   UNL     1       8.418  -5.000  24.779  0.00  0.00    +0.243 C 
ATOM     22  O   UNL     1       9.086  -5.749  24.070  0.00  0.00    -0.273 OA
BRANCH  21  23
ATOM     23  C   UNL     1       8.074  -5.304  26.252  0.00  0.00    +0.210 C 
BRANCH  23  24
ATOM     24  O   UNL     1       8.644  -4.309  27.113  0.00  0.00    -0.382 OA
ATOM     25  H   UNL     1       8.932  -4.759  27.934  0.00  0.00    +0.210 HD
ENDBRANCH  23  24
BRANCH  23  26
ATOM     26  C   UNL     1       6.562  -5.296  26.449  0.00  0.00    +0.161 C 
BRANCH  26  27
ATOM     27  C   UNL     1       6.058  -4.146  27.279  0.00  0.00    +0.308 C 
ATOM     28  O   UNL     1       5.563  -4.300  28.387  0.00  0.00    -0.251 OA
BRANCH  27  29
ATOM     29  O   UNL     1       6.119  -2.940  26.678  0.00  0.00    -0.481 OA
ATOM     30  H   UNL     1       6.906  -2.847  26.089  0.00  0.00    +0.295 HD
ENDBRANCH  27  29
ENDBRANCH  26  27
ENDBRANCH  23  26
ENDBRANCH  21  23
ENDBRANCH   1  19
BRANCH   1  31
ATOM     31  C   UNL     1       6.765  -3.027  22.236  0.00  0.00    +0.034 C 
BRANCH  31  33
ATOM     32  C   UNL     1       6.747  -5.452  21.432  0.00  0.00    +0.007 C 
ATOM     33  C   UNL     1       5.900  -4.229  21.788  0.00  0.00    -0.015 C 
ATOM     34  C   UNL     1       4.884  -4.600  22.872  0.00  0.00    +0.007 C 
ENDBRANCH  31  33
ENDBRANCH   1  31
TORSDOF 14
ENDMDL
MODEL 3
REMARK VINA RESULT:      -5.9      2.942      6.849
REMARK  Name = 
REMARK  16 active torsions:
REMARK  status: ('A' for Active; 'I' for Inactive)
REMARK    1  A    between atoms: C_1  and  C_2
REMARK    2  A    between atoms: C_2  and  C_3
REMARK    3  A    between atoms: C_2  and  C_4
REMARK    4  A    between atoms: C_4  and  C_5
REMARK    5  A    between atoms: C_5  and  N_7
REMARK    6  A    between atoms: C_5  and  C_17
REMARK    7  A    between atoms: C_8  and  C_10
REMARK    8  A    between atoms: C_10  and  O_12
REMARK    9  A    between atoms: C_10  and  C_13
REMARK   10  A    between atoms: C_13  and  C_14
REMARK   11  A    between atoms: C_14  and  O_15
REMARK   12  A    between atoms: N_19  and  C_20
REMARK   13  A    between atoms: C_20  and  C_21
REMARK   14  A    between atoms: C_21  and  C_22
REMARK   15  A    between atoms: C_22  and  C_23
REMARK   16  A    between atoms: C_23  and  N_24
REMARK                            x       y       z     vdW  Elec       q    Type
REMARK                         _______ _______ _______ _____ _____    ______ ____
ROOT
ATOM      1  C   UNL     1       9.605  -0.586  24.787  0.00  0.00    +0.159 C 
ENDROOT
BRANCH   1   2
ATOM      2  C   UNL     1       9.388  -1.795  23.846  0.00  0.00    +0.233 C 
ATOM      3  N   UNL     1       8.246  -1.700  23.072  0.00  0.00    -0.314 N 
ATOM      4  H   UNL     1       7.543  -1.033  23.389  0.00  0.00    +0.149 HD
ATOM      5  O   UNL     1      10.105  -2.793  23.856  0.00  0.00    -0.274 OA
BRANCH   3   6
ATOM      6  C   UNL     1       7.836  -2.746  22.161  0.00  0.00    +0.104 C 
BRANCH   6   7
ATOM      7  C   UNL     1       6.439  -3.276  22.488  0.00  0.00    +0.022 C 
BRANCH   7   8
ATOM      8  C   UNL     1       6.368  -3.854  23.904  0.00  0.00    +0.038 C 
BRANCH   8   9
ATOM      9  C   UNL     1       6.947  -5.268  23.971  0.00  0.00    +0.196 C 
BRANCH   9  10
ATOM     10  N   UNL     1       8.384  -5.234  24.303  0.00  0.00    -0.279 N 
ATOM     11  H   UNL     1       9.042  -5.023  23.562  0.00  0.00    +0.258 HD
ATOM     12  C   UNL     1       8.890  -5.457  25.527  0.00  0.00    +0.341 C 
ATOM     13  N   UNL     1      10.214  -5.399  25.711  0.00  0.00    -0.292 N 
ATOM     14  H   UNL     1      10.625  -5.559  26.620  0.00  0.00    +0.255 HD
ATOM     15  H   UNL     1      10.852  -5.195  24.954  0.00  0.00    +0.255 HD
ATOM     16  N   UNL     1       8.117  -5.733  26.580  0.00  0.00    -0.292 N 
ATOM     17  H   UNL     1       8.502  -5.900  27.499  0.00  0.00    +0.255 HD
ATOM     18  H   UNL     1       7.110  -5.785  26.491  0.00  0.00    +0.255 HD
ENDBRANCH   9  10
ENDBRANCH   8   9
ENDBRANCH   7   8
ENDBRANCH   6   7
ENDBRANCH   3   6
ENDBRANCH   1   2
BRANCH   1  19
ATOM     19  N   UNL     1       8.979   0.602  24.182  0.00  0.00    -0.302 N 
ATOM     20  H   UNL     1       8.084   0.469  23.724  0.00  0.00    +0.150 HD
ATOM     21  C   UNL     1       9.748   1.701  23.840  0.00  0.00    +0.243 C 
ATOM     22  O   UNL     1      10.961   1.739  24.033  0.00  0.00    -0.273 OA
BRANCH  21  23
ATOM     23  C   UNL     1       8.944   2.873  23.240  0.00  0.00    +0.210 C 
BRANCH  23  24
ATOM     24  O   UNL     1       8.937   2.792  21.808  0.00  0.00    -0.382 OA
ATOM     25  H   UNL     1       8.233   3.390  21.482  0.00  0.00    +0.210 HD
ENDBRANCH  23  24
BRANCH  23  26
ATOM     26  C   UNL     1       7.500   2.821  23.728  0.00  0.00    +0.161 C 
BRANCH  26  27
ATOM     27  C   UNL     1       6.517   2.351  22.688  0.00  0.00    +0.308 C 
ATOM     28  O   UNL     1       5.771   3.116  22.094  0.00  0.00    -0.251 OA
BRANCH  27  29
ATOM     29  O   UNL     1       6.466   1.014  22.518  0.00  0.00    -0.481 OA
ATOM     30  H   UNL     1       6.925   0.519  23.239  0.00  0.00    +0.295 HD
ENDBRANCH  27  29
ENDBRANCH  26  27
ENDBRANCH  23  26
ENDBRANCH  21  23
ENDBRANCH   1  19
BRANCH   1  31
ATOM     31  C   UNL     1       9.016  -0.851  26.186  0.00  0.00    +0.034 C 
BRANCH  31  33
ATOM     32  C   UNL     1       6.665  -1.717  26.687  0.00  0.00    +0.007 C 
ATOM     33  C   UNL     1       7.518  -0.496  26.338  0.00  0.00    -0.015 C 
ATOM     34  C   UNL     1       7.324   0.592  27.400  0.00  0.00    +0.007 C 
ENDBRANCH  31  33
ENDBRANCH   1  31
TORSDOF 14
ENDMDL
MODEL 4
REMARK VINA RESULT:      -5.9      1.981      3.724
REMARK  Name = 
REMARK  16 active torsions:
REMARK  status: ('A' for Active; 'I' for Inactive)
REMARK    1  A    between atoms: C_1  and  C_2
REMARK    2  A    between atoms: C_2  and  C_3
REMARK    3  A    between atoms: C_2  and  C_4
REMARK    4  A    between atoms: C_4  and  C_5
REMARK    5  A    between atoms: C_5  and  N_7
REMARK    6  A    between atoms: C_5  and  C_17
REMARK    7  A    between atoms: C_8  and  C_10
REMARK    8  A    between atoms: C_10  and  O_12
REMARK    9  A    between atoms: C_10  and  C_13
REMARK   10  A    between atoms: C_13  and  C_14
REMARK   11  A    between atoms: C_14  and  O_15
REMARK   12  A    between atoms: N_19  and  C_20
REMARK   13  A    between atoms: C_20  and  C_21
REMARK   14  A    between atoms: C_21  and  C_22
REMARK   15  A    between atoms: C_22  and  C_23
REMARK   16  A    between atoms: C_23  and  N_24
REMARK                            x       y       z     vdW  Elec       q    Type
REMARK                         _______ _______ _______ _____ _____    ______ ____
ROOT
ATOM      1  C   UNL     1       7.751  -2.794  22.505  0.00  0.00    +0.159 C 
ENDROOT
BRANCH   1   2
ATOM      2  C   UNL     1       7.830  -1.248  22.508  0.00  0.00    +0.233 C 
ATOM      3  N   UNL     1       9.012  -0.751  21.990  0.00  0.00    -0.314 N 
ATOM      4  H   UNL     1       9.791  -1.407  21.938  0.00  0.00    +0.149 HD
ATOM      5  O   UNL     1       6.970  -0.531  23.014  0.00  0.00    -0.274 OA
BRANCH   3   6
ATOM      6  C   UNL     1       9.305   0.666  21.945  0.00  0.00    +0.104 C 
BRANCH   6   7
ATOM      7  C   UNL     1      10.154   1.113  23.136  0.00  0.00    +0.022 C 
BRANCH   7   8
ATOM      8  C   UNL     1       9.951   2.598  23.453  0.00  0.00    +0.038 C 
BRANCH   8   9
ATOM      9  C   UNL     1       8.509   3.040  23.204  0.00  0.00    +0.196 C 
BRANCH   9  10
ATOM     10  N   UNL     1       8.469   4.356  22.539  0.00  0.00    -0.279 N 
ATOM     11  H   UNL     1       9.342   4.847  22.396  0.00  0.00    +0.258 HD
ATOM     12  C   UNL     1       7.349   4.955  22.100  0.00  0.00    +0.341 C 
ATOM     13  N   UNL     1       7.434   6.153  21.510  0.00  0.00    -0.292 N 
ATOM     14  H   UNL     1       6.611   6.628  21.166  0.00  0.00    +0.255 HD
ATOM     15  H   UNL     1       8.318   6.628  21.385  0.00  0.00    +0.255 HD
ATOM     16  N   UNL     1       6.144   4.396  22.225  0.00  0.00    -0.292 N 
ATOM     17  H   UNL     1       5.304   4.851  21.893  0.00  0.00    +0.255 HD
ATOM     18  H   UNL     1       6.029   3.491  22.663  0.00  0.00    +0.255 HD
ENDBRANCH   9  10
ENDBRANCH   8   9
ENDBRANCH   7   8
ENDBRANCH   6   7
ENDBRANCH   3   6
ENDBRANCH   1   2
BRANCH   1  19
ATOM     19  N   UNL     1       7.968  -3.280  23.878  0.00  0.00    -0.302 N 
ATOM     20  H   UNL     1       7.186  -3.210  24.520  0.00  0.00    +0.150 HD
ATOM     21  C   UNL     1       9.248  -3.379  24.393  0.00  0.00    +0.243 C 
ATOM     22  O   UNL     1      10.244  -3.084  23.737  0.00  0.00    -0.273 OA
BRANCH  21  23
ATOM     23  C   UNL     1       9.309  -3.928  25.834  0.00  0.00    +0.210 C 
BRANCH  23  24
ATOM     24  O   UNL     1       8.489  -3.137  26.704  0.00  0.00    -0.382 OA
ATOM     25  H   UNL     1       7.774  -3.714  27.043  0.00  0.00    +0.210 HD
ENDBRANCH  23  24
BRANCH  23  26
ATOM     26  C   UNL     1       8.796  -5.364  25.870  0.00  0.00    +0.161 C 
BRANCH  26  27
ATOM     27  C   UNL     1       7.465  -5.523  26.556  0.00  0.00    +0.308 C 
ATOM     28  O   UNL     1       6.408  -5.220  26.021  0.00  0.00    -0.251 OA
BRANCH  27  29
ATOM     29  O   UNL     1       7.531  -5.948  27.834  0.00  0.00    -0.481 OA
ATOM     30  H   UNL     1       7.096  -6.825  27.967  0.00  0.00    +0.295 HD
ENDBRANCH  27  29
ENDBRANCH  26  27
ENDBRANCH  23  26
ENDBRANCH  21  23
ENDBRANCH   1  19
BRANCH   1  31
ATOM     31  C   UNL     1       6.394  -3.286  21.966  0.00  0.00    +0.034 C 
BRANCH  31  33
ATOM     32  C   UNL     1       4.608  -4.845  22.916  0.00  0.00    +0.007 C 
ATOM     33  C   UNL     1       6.028  -4.737  22.357  0.00  0.00    -0.015 C 
ATOM     34  C   UNL     1       6.186  -5.678  21.159  0.00  0.00    +0.007 C 
ENDBRANCH  31  33
ENDBRANCH   1  31
TORSDOF 14
ENDMDL
MODEL 5
REMARK VINA RESULT:      -5.9      2.294      3.859
REMARK  Name = 
REMARK  16 active torsions:
REMARK  status: ('A' for Active; 'I' for Inactive)
REMARK    1  A    between atoms: C_1  and  C_2
REMARK    2  A    between atoms: C_2  and  C_3
REMARK    3  A    between atoms: C_2  and  C_4
REMARK    4  A    between atoms: C_4  and  C_5
REMARK    5  A    between atoms: C_5  and  N_7
REMARK    6  A    between atoms: C_5  and  C_17
REMARK    7  A    between atoms: C_8  and  C_10
REMARK    8  A    between atoms: C_10  and  O_12
REMARK    9  A    between atoms: C_10  and  C_13
REMARK   10  A    between atoms: C_13  and  C_14
REMARK   11  A    between atoms: C_14  and  O_15
REMARK   12  A    between atoms: N_19  and  C_20
REMARK   13  A    between atoms: C_20  and  C_21
REMARK   14  A    between atoms: C_21  and  C_22
REMARK   15  A    between atoms: C_22  and  C_23
REMARK   16  A    between atoms: C_23  and  N_24
REMARK                            x       y       z     vdW  Elec       q    Type
REMARK                         _______ _______ _______ _____ _____    ______ ____
ROOT
ATOM      1  C   UNL     1       8.322  -2.740  23.372  0.00  0.00    +0.159 C 
ENDROOT
BRANCH   1   2
ATOM      2  C   UNL     1       9.573  -1.830  23.387  0.00  0.00    +0.233 C 
ATOM      3  N   UNL     1       9.486  -0.778  24.280  0.00  0.00    -0.314 N 
ATOM      4  H   UNL     1       8.548  -0.541  24.604  0.00  0.00    +0.149 HD
ATOM      5  O   UNL     1      10.515  -1.967  22.609  0.00  0.00    -0.274 OA
BRANCH   3   6
ATOM      6  C   UNL     1      10.529   0.215  24.415  0.00  0.00    +0.104 C 
BRANCH   6   7
ATOM      7  C   UNL     1      10.121   1.560  23.811  0.00  0.00    +0.022 C 
BRANCH   7   8
ATOM      8  C   UNL     1      10.272   1.568  22.287  0.00  0.00    +0.038 C 
BRANCH   8   9
ATOM      9  C   UNL     1       8.926   1.395  21.582  0.00  0.00    +0.196 C 
BRANCH   9  10
ATOM     10  N   UNL     1       8.168   2.659  21.575  0.00  0.00    -0.279 N 
ATOM     11  H   UNL     1       8.620   3.487  21.205  0.00  0.00    +0.258 HD
ATOM     12  C   UNL     1       6.909   2.797  22.022  0.00  0.00    +0.341 C 
ATOM     13  N   UNL     1       6.320   3.997  21.966  0.00  0.00    -0.292 N 
ATOM     14  H   UNL     1       5.372   4.133  22.291  0.00  0.00    +0.255 HD
ATOM     15  H   UNL     1       6.794   4.812  21.600  0.00  0.00    +0.255 HD
ATOM     16  N   UNL     1       6.212   1.774  22.521  0.00  0.00    -0.292 N 
ATOM     17  H   UNL     1       5.264   1.882  22.856  0.00  0.00    +0.255 HD
ATOM     18  H   UNL     1       6.614   0.847  22.581  0.00  0.00    +0.255 HD
ENDBRANCH   9  10
ENDBRANCH   8   9
ENDBRANCH   7   8
ENDBRANCH   6   7
ENDBRANCH   3   6
ENDBRANCH   1   2
BRANCH   1  19
ATOM     19  N   UNL     1       8.272  -3.496  24.636  0.00  0.00    -0.302 N 
ATOM     20  H   UNL     1       8.456  -2.980  25.489  0.00  0.00    +0.150 HD
ATOM     21  C   UNL     1       8.436  -4.870  24.637  0.00  0.00    +0.243 C 
ATOM     22  O   UNL     1       8.615  -5.511  23.605  0.00  0.00    -0.273 OA
BRANCH  21  23
ATOM     23  C   UNL     1       8.333  -5.516  26.034  0.00  0.00    +0.210 C 
BRANCH  23  24
ATOM     24  O   UNL     1       9.041  -4.730  27.002  0.00  0.00    -0.382 OA
ATOM     25  H   UNL     1       8.381  -4.189  27.483  0.00  0.00    +0.210 HD
ENDBRANCH  23  24
BRANCH  23  26
ATOM     26  C   UNL     1       6.872  -5.603  26.465  0.00  0.00    +0.161 C 
BRANCH  26  27
ATOM     27  C   UNL     1       6.671  -5.578  27.957  0.00  0.00    +0.308 C 
ATOM     28  O   UNL     1       6.958  -6.525  28.677  0.00  0.00    -0.251 OA
BRANCH  27  29
ATOM     29  O   UNL     1       6.077  -4.465  28.433  0.00  0.00    -0.481 OA
ATOM     30  H   UNL     1       6.224  -4.337  29.401  0.00  0.00    +0.295 HD
ENDBRANCH  27  29
ENDBRANCH  26  27
ENDBRANCH  23  26
ENDBRANCH  21  23
ENDBRANCH   1  19
BRANCH   1  31
ATOM     31  C   UNL     1       7.032  -1.918  23.184  0.00  0.00    +0.034 C 
BRANCH  31  33
ATOM     32  C   UNL     1       6.280  -3.817  21.649  0.00  0.00    +0.007 C 
ATOM     33  C   UNL     1       5.835  -2.711  22.608  0.00  0.00    -0.015 C 
ATOM     34  C   UNL     1       4.990  -3.312  23.736  0.00  0.00    +0.007 C 
ENDBRANCH  31  33
ENDBRANCH   1  31
TORSDOF 14
ENDMDL
MODEL 6
REMARK VINA RESULT:      -5.9      2.569      4.270
REMARK  Name = 
REMARK  16 active torsions:
REMARK  status: ('A' for Active; 'I' for Inactive)
REMARK    1  A    between atoms: C_1  and  C_2
REMARK    2  A    between atoms: C_2  and  C_3
REMARK    3  A    between atoms: C_2  and  C_4
REMARK    4  A    between atoms: C_4  and  C_5
REMARK    5  A    between atoms: C_5  and  N_7
REMARK    6  A    between atoms: C_5  and  C_17
REMARK    7  A    between atoms: C_8  and  C_10
REMARK    8  A    between atoms: C_10  and  O_12
REMARK    9  A    between atoms: C_10  and  C_13
REMARK   10  A    between atoms: C_13  and  C_14
REMARK   11  A    between atoms: C_14  and  O_15
REMARK   12  A    between atoms: N_19  and  C_20
REMARK   13  A    between atoms: C_20  and  C_21
REMARK   14  A    between atoms: C_21  and  C_22
REMARK   15  A    between atoms: C_22  and  C_23
REMARK   16  A    between atoms: C_23  and  N_24
REMARK                            x       y       z     vdW  Elec       q    Type
REMARK                         _______ _______ _______ _____ _____    ______ ____
ROOT
ATOM      1  C   UNL     1       7.889  -3.582  22.931  0.00  0.00    +0.159 C 
ENDROOT
BRANCH   1   2
ATOM      2  C   UNL     1       8.693  -2.269  22.769  0.00  0.00    +0.233 C 
ATOM      3  N   UNL     1       9.505  -1.977  23.848  0.00  0.00    -0.314 N 
ATOM      4  H   UNL     1       9.287  -2.461  24.719  0.00  0.00    +0.149 HD
ATOM      5  O   UNL     1       8.548  -1.505  21.817  0.00  0.00    -0.274 OA
BRANCH   3   6
ATOM      6  C   UNL     1      10.302  -0.772  23.916  0.00  0.00    +0.104 C 
BRANCH   6   7
ATOM      7  C   UNL     1      10.032   0.023  25.196  0.00  0.00    +0.022 C 
BRANCH   7   8
ATOM      8  C   UNL     1       8.628   0.634  25.199  0.00  0.00    +0.038 C 
BRANCH   8   9
ATOM      9  C   UNL     1       8.453   1.661  24.080  0.00  0.00    +0.196 C 
BRANCH   9  10
ATOM     10  N   UNL     1       9.561   2.634  24.079  0.00  0.00    -0.279 N 
ATOM     11  H   UNL     1       9.758   3.137  24.936  0.00  0.00    +0.258 HD
ATOM     12  C   UNL     1      10.341   2.902  23.019  0.00  0.00    +0.341 C 
ATOM     13  N   UNL     1      11.320   3.807  23.135  0.00  0.00    -0.292 N 
ATOM     14  H   UNL     1      11.925   4.028  22.357  0.00  0.00    +0.255 HD
ATOM     15  H   UNL     1      11.492   4.303  23.999  0.00  0.00    +0.255 HD
ATOM     16  N   UNL     1      10.180   2.292  21.842  0.00  0.00    -0.292 N 
ATOM     17  H   UNL     1      10.770   2.497  21.046  0.00  0.00    +0.255 HD
ATOM     18  H   UNL     1       9.456   1.599  21.706  0.00  0.00    +0.255 HD
ENDBRANCH   9  10
ENDBRANCH   8   9
ENDBRANCH   7   8
ENDBRANCH   6   7
ENDBRANCH   3   6
ENDBRANCH   1   2
BRANCH   1  19
ATOM     19  N   UNL     1       7.836  -3.929  24.361  0.00  0.00    -0.302 N 
ATOM     20  H   UNL     1       7.618  -3.181  25.009  0.00  0.00    +0.150 HD
ATOM     21  C   UNL     1       8.490  -5.054  24.834  0.00  0.00    +0.243 C 
ATOM     22  O   UNL     1       9.122  -5.804  24.096  0.00  0.00    -0.273 OA
BRANCH  21  23
ATOM     23  C   UNL     1       8.317  -5.294  26.349  0.00  0.00    +0.210 C 
BRANCH  23  24
ATOM     24  O   UNL     1       9.461  -4.807  27.065  0.00  0.00    -0.382 OA
ATOM     25  H   UNL     1       9.943  -4.195  26.471  0.00  0.00    +0.210 HD
ENDBRANCH  23  24
BRANCH  23  26
ATOM     26  C   UNL     1       7.084  -4.556  26.859  0.00  0.00    +0.161 C 
BRANCH  26  27
ATOM     27  C   UNL     1       6.257  -5.349  27.837  0.00  0.00    +0.308 C 
ATOM     28  O   UNL     1       5.055  -5.172  27.979  0.00  0.00    -0.251 OA
BRANCH  27  29
ATOM     29  O   UNL     1       6.954  -6.215  28.601  0.00  0.00    -0.481 OA
ATOM     30  H   UNL     1       6.376  -6.874  29.055  0.00  0.00    +0.295 HD
ENDBRANCH  27  29
ENDBRANCH  26  27
ENDBRANCH  23  26
ENDBRANCH  21  23
ENDBRANCH   1  19
BRANCH   1  31
ATOM     31  C   UNL     1       6.467  -3.445  22.355  0.00  0.00    +0.034 C 
BRANCH  31  33
ATOM     32  C   UNL     1       6.919  -5.773  21.404  0.00  0.00    +0.007 C 
ATOM     33  C   UNL     1       5.851  -4.761  21.825  0.00  0.00    -0.015 C 
ATOM     34  C   UNL     1       4.928  -5.389  22.875  0.00  0.00    +0.007 C 
ENDBRANCH  31  33
ENDBRANCH   1  31
TORSDOF 14
ENDMDL
MODEL 7
REMARK VINA RESULT:      -5.8      2.065      3.588
REMARK  Name = 
REMARK  16 active torsions:
REMARK  status: ('A' for Active; 'I' for Inactive)
REMARK    1  A    between atoms: C_1  and  C_2
REMARK    2  A    between atoms: C_2  and  C_3
REMARK    3  A    between atoms: C_2  and  C_4
REMARK    4  A    between atoms: C_4  and  C_5
REMARK    5  A    between atoms: C_5  and  N_7
REMARK    6  A    between atoms: C_5  and  C_17
REMARK    7  A    between atoms: C_8  and  C_10
REMARK    8  A    between atoms: C_10  and  O_12
REMARK    9  A    between atoms: C_10  and  C_13
REMARK   10  A    between atoms: C_13  and  C_14
REMARK   11  A    between atoms: C_14  and  O_15
REMARK   12  A    between atoms: N_19  and  C_20
REMARK   13  A    between atoms: C_20  and  C_21
REMARK   14  A    between atoms: C_21  and  C_22
REMARK   15  A    between atoms: C_22  and  C_23
REMARK   16  A    between atoms: C_23  and  N_24
REMARK                            x       y       z     vdW  Elec       q    Type
REMARK                         _______ _______ _______ _____ _____    ______ ____
ROOT
ATOM      1  C   UNL     1       8.169  -2.895  22.753  0.00  0.00    +0.159 C 
ENDROOT
BRANCH   1   2
ATOM      2  C   UNL     1       9.219  -1.789  22.489  0.00  0.00    +0.233 C 
ATOM      3  N   UNL     1       8.688  -0.637  21.940  0.00  0.00    -0.314 N 
ATOM      4  H   UNL     1       7.768  -0.728  21.509  0.00  0.00    +0.149 HD
ATOM      5  O   UNL     1      10.426  -1.953  22.655  0.00  0.00    -0.274 OA
BRANCH   3   6
ATOM      6  C   UNL     1       9.507   0.498  21.574  0.00  0.00    +0.104 C 
BRANCH   6   7
ATOM      7  C   UNL     1       8.697   1.795  21.522  0.00  0.00    +0.022 C 
BRANCH   7   8
ATOM      8  C   UNL     1       7.656   1.861  22.643  0.00  0.00    +0.038 C 
BRANCH   8   9
ATOM      9  C   UNL     1       7.814   3.125  23.490  0.00  0.00    +0.196 C 
BRANCH   9  10
ATOM     10  N   UNL     1       8.091   4.297  22.640  0.00  0.00    -0.279 N 
ATOM     11  H   UNL     1       9.052   4.484  22.380  0.00  0.00    +0.258 HD
ATOM     12  C   UNL     1       7.155   5.142  22.176  0.00  0.00    +0.341 C 
ATOM     13  N   UNL     1       7.525   6.175  21.411  0.00  0.00    -0.292 N 
ATOM     14  H   UNL     1       6.844   6.826  21.043  0.00  0.00    +0.255 HD
ATOM     15  H   UNL     1       8.492   6.347  21.171  0.00  0.00    +0.255 HD
ATOM     16  N   UNL     1       5.857   4.988  22.446  0.00  0.00    -0.292 N 
ATOM     17  H   UNL     1       5.156   5.626  22.094  0.00  0.00    +0.255 HD
ATOM     18  H   UNL     1       5.528   4.220  23.019  0.00  0.00    +0.255 HD
ENDBRANCH   9  10
ENDBRANCH   8   9
ENDBRANCH   7   8
ENDBRANCH   6   7
ENDBRANCH   3   6
ENDBRANCH   1   2
BRANCH   1  19
ATOM     19  N   UNL     1       8.532  -3.604  23.993  0.00  0.00    -0.302 N 
ATOM     20  H   UNL     1       9.197  -3.148  24.607  0.00  0.00    +0.150 HD
ATOM     21  C   UNL     1       8.361  -4.974  24.091  0.00  0.00    +0.243 C 
ATOM     22  O   UNL     1       7.898  -5.646  23.173  0.00  0.00    -0.273 OA
BRANCH  21  23
ATOM     23  C   UNL     1       8.763  -5.563  25.459  0.00  0.00    +0.210 C 
BRANCH  23  24
ATOM     24  O   UNL     1      10.189  -5.538  25.614  0.00  0.00    -0.382 OA
ATOM     25  H   UNL     1      10.390  -5.782  26.541  0.00  0.00    +0.210 HD
ENDBRANCH  23  24
BRANCH  23  26
ATOM     26  C   UNL     1       8.146  -4.742  26.586  0.00  0.00    +0.161 C 
BRANCH  26  27
ATOM     27  C   UNL     1       7.032  -5.444  27.316  0.00  0.00    +0.308 C 
ATOM     28  O   UNL     1       7.232  -6.188  28.266  0.00  0.00    -0.251 OA
BRANCH  27  29
ATOM     29  O   UNL     1       5.802  -5.255  26.795  0.00  0.00    -0.481 OA
ATOM     30  H   UNL     1       5.674  -5.727  25.937  0.00  0.00    +0.295 HD
ENDBRANCH  27  29
ENDBRANCH  26  27
ENDBRANCH  23  26
ENDBRANCH  21  23
ENDBRANCH   1  19
BRANCH   1  31
ATOM     31  C   UNL     1       6.749  -2.306  22.864  0.00  0.00    +0.034 C 
BRANCH  31  33
ATOM     32  C   UNL     1       6.074  -0.682  24.717  0.00  0.00    +0.007 C 
ATOM     33  C   UNL     1       6.224  -2.149  24.311  0.00  0.00    -0.015 C 
ATOM     34  C   UNL     1       4.884  -2.873  24.482  0.00  0.00    +0.007 C 
ENDBRANCH  31  33
ENDBRANCH   1  31
TORSDOF 14
ENDMDL
MODEL 8
REMARK VINA RESULT:      -5.7      2.930      5.101
REMARK  Name = 
REMARK  16 active torsions:
REMARK  status: ('A' for Active; 'I' for Inactive)
REMARK    1  A    between atoms: C_1  and  C_2
REMARK    2  A    between atoms: C_2  and  C_3
REMARK    3  A    between atoms: C_2  and  C_4
REMARK    4  A    between atoms: C_4  and  C_5
REMARK    5  A    between atoms: C_5  and  N_7
REMARK    6  A    between atoms: C_5  and  C_17
REMARK    7  A    between atoms: C_8  and  C_10
REMARK    8  A    between atoms: C_10  and  O_12
REMARK    9  A    between atoms: C_10  and  C_13
REMARK   10  A    between atoms: C_13  and  C_14
REMARK   11  A    between atoms: C_14  and  O_15
REMARK   12  A    between atoms: N_19  and  C_20
REMARK   13  A    between atoms: C_20  and  C_21
REMARK   14  A    between atoms: C_21  and  C_22
REMARK   15  A    between atoms: C_22  and  C_23
REMARK   16  A    between atoms: C_23  and  N_24
REMARK                            x       y       z     vdW  Elec       q    Type
REMARK                         _______ _______ _______ _____ _____    ______ ____
ROOT
ATOM      1  C   UNL     1       5.128  -4.600  23.985  0.00  0.00    +0.159 C 
ENDROOT
BRANCH   1   2
ATOM      2  C   UNL     1       5.741  -3.996  22.699  0.00  0.00    +0.233 C 
ATOM      3  N   UNL     1       6.799  -3.138  22.938  0.00  0.00    -0.314 N 
ATOM      4  H   UNL     1       6.877  -2.773  23.887  0.00  0.00    +0.149 HD
ATOM      5  O   UNL     1       5.271  -4.179  21.578  0.00  0.00    -0.274 OA
BRANCH   3   6
ATOM      6  C   UNL     1       7.482  -2.433  21.875  0.00  0.00    +0.104 C 
BRANCH   6   7
ATOM      7  C   UNL     1       8.019  -1.078  22.339  0.00  0.00    +0.022 C 
BRANCH   7   8
ATOM      8  C   UNL     1       9.493  -0.892  21.966  0.00  0.00    +0.038 C 
BRANCH   8   9
ATOM      9  C   UNL     1      10.425  -1.366  23.082  0.00  0.00    +0.196 C 
BRANCH   9  10
ATOM     10  N   UNL     1       9.756  -1.294  24.393  0.00  0.00    -0.279 N 
ATOM     11  H   UNL     1       9.191  -2.082  24.687  0.00  0.00    +0.258 HD
ATOM     12  C   UNL     1       9.843  -0.254  25.239  0.00  0.00    +0.341 C 
ATOM     13  N   UNL     1       9.190  -0.300  26.406  0.00  0.00    -0.292 N 
ATOM     14  H   UNL     1       9.239   0.465  27.065  0.00  0.00    +0.255 HD
ATOM     15  H   UNL     1       8.626  -1.095  26.675  0.00  0.00    +0.255 HD
ATOM     16  N   UNL     1      10.566   0.833  24.962  0.00  0.00    -0.292 N 
ATOM     17  H   UNL     1      10.629   1.614  25.601  0.00  0.00    +0.255 HD
ATOM     18  H   UNL     1      11.079   0.913  24.093  0.00  0.00    +0.255 HD
ENDBRANCH   9  10
ENDBRANCH   8   9
ENDBRANCH   7   8
ENDBRANCH   6   7
ENDBRANCH   3   6
ENDBRANCH   1   2
BRANCH   1  19
ATOM     19  N   UNL     1       6.064  -4.384  25.102  0.00  0.00    -0.302 N 
ATOM     20  H   UNL     1       6.724  -3.620  25.009  0.00  0.00    +0.150 HD
ATOM     21  C   UNL     1       6.349  -5.410  25.985  0.00  0.00    +0.243 C 
ATOM     22  O   UNL     1       5.837  -6.522  25.887  0.00  0.00    -0.273 OA
BRANCH  21  23
ATOM     23  C   UNL     1       7.327  -5.018  27.113  0.00  0.00    +0.210 C 
BRANCH  23  24
ATOM     24  O   UNL     1       7.916  -6.190  27.692  0.00  0.00    -0.382 OA
ATOM     25  H   UNL     1       8.855  -5.986  27.880  0.00  0.00    +0.210 HD
ENDBRANCH  23  24
BRANCH  23  26
ATOM     26  C   UNL     1       8.446  -4.145  26.557  0.00  0.00    +0.161 C 
BRANCH  26  27
ATOM     27  C   UNL     1       9.202  -4.771  25.414  0.00  0.00    +0.308 C 
ATOM     28  O   UNL     1       9.116  -4.362  24.265  0.00  0.00    -0.251 OA
BRANCH  27  29
ATOM     29  O   UNL     1       9.919  -5.866  25.739  0.00  0.00    -0.481 OA
ATOM     30  H   UNL     1      10.372  -6.271  24.960  0.00  0.00    +0.295 HD
ENDBRANCH  27  29
ENDBRANCH  26  27
ENDBRANCH  23  26
ENDBRANCH  21  23
ENDBRANCH   1  19
BRANCH   1  31
ATOM     31  C   UNL     1       3.756  -3.972  24.301  0.00  0.00    +0.034 C 
BRANCH  31  33
ATOM     32  C   UNL     1       1.518  -4.408  25.453  0.00  0.00    +0.007 C 
ATOM     33  C   UNL     1       2.623  -4.990  24.569  0.00  0.00    -0.015 C 
ATOM     34  C   UNL     1       2.023  -5.492  23.252  0.00  0.00    +0.007 C 
ENDBRANCH  31  33
ENDBRANCH   1  31
TORSDOF 14
ENDMDL
MODEL 9
REMARK VINA RESULT:      -5.7      2.460      4.225
REMARK  Name = 
REMARK  16 active torsions:
REMARK  status: ('A' for Active; 'I' for Inactive)
REMARK    1  A    between atoms: C_1  and  C_2
REMARK    2  A    between atoms: C_2  and  C_3
REMARK    3  A    between atoms: C_2  and  C_4
REMARK    4  A    between atoms: C_4  and  C_5
REMARK    5  A    between atoms: C_5  and  N_7
REMARK    6  A    between atoms: C_5  and  C_17
REMARK    7  A    between atoms: C_8  and  C_10
REMARK    8  A    between atoms: C_10  and  O_12
REMARK    9  A    between atoms: C_10  and  C_13
REMARK   10  A    between atoms: C_13  and  C_14
REMARK   11  A    between atoms: C_14  and  O_15
REMARK   12  A    between atoms: N_19  and  C_20
REMARK   13  A    between atoms: C_20  and  C_21
REMARK   14  A    between atoms: C_21  and  C_22
REMARK   15  A    between atoms: C_22  and  C_23
REMARK   16  A    between atoms: C_23  and  N_24
REMARK                            x       y       z     vdW  Elec       q    Type
REMARK                         _______ _______ _______ _____ _____    ______ ____
ROOT
ATOM      1  C   UNL     1       7.964  -2.831  22.665  0.00  0.00    +0.159 C 
ENDROOT
BRANCH   1   2
ATOM      2  C   UNL     1       8.969  -1.702  22.329  0.00  0.00    +0.233 C 
ATOM      3  N   UNL     1       8.369  -0.484  22.069  0.00  0.00    -0.314 N 
ATOM      4  H   UNL     1       7.376  -0.511  21.842  0.00  0.00    +0.149 HD
ATOM      5  O   UNL     1      10.177  -1.891  22.205  0.00  0.00    -0.274 OA
BRANCH   3   6
ATOM      6  C   UNL     1       9.127   0.689  21.690  0.00  0.00    +0.104 C 
BRANCH   6   7
ATOM      7  C   UNL     1       8.288   1.966  21.776  0.00  0.00    +0.022 C 
BRANCH   7   8
ATOM      8  C   UNL     1       8.802   2.912  22.865  0.00  0.00    +0.038 C 
BRANCH   8   9
ATOM      9  C   UNL     1       9.844   2.237  23.758  0.00  0.00    +0.196 C 
BRANCH   9  10
ATOM     10  N   UNL     1       9.207   1.619  24.936  0.00  0.00    -0.279 N 
ATOM     11  H   UNL     1       8.468   2.129  25.404  0.00  0.00    +0.258 HD
ATOM     12  C   UNL     1       9.533   0.415  25.436  0.00  0.00    +0.341 C 
ATOM     13  N   UNL     1       8.885  -0.045  26.512  0.00  0.00    -0.292 N 
ATOM     14  H   UNL     1       9.105  -0.948  26.911  0.00  0.00    +0.255 HD
ATOM     15  H   UNL     1       8.156   0.486  26.968  0.00  0.00    +0.255 HD
ATOM     16  N   UNL     1      10.484  -0.349  24.895  0.00  0.00    -0.292 N 
ATOM     17  H   UNL     1      10.726  -1.254  25.275  0.00  0.00    +0.255 HD
ATOM     18  H   UNL     1      11.000  -0.045  24.079  0.00  0.00    +0.255 HD
ENDBRANCH   9  10
ENDBRANCH   8   9
ENDBRANCH   7   8
ENDBRANCH   6   7
ENDBRANCH   3   6
ENDBRANCH   1   2
BRANCH   1  19
ATOM     19  N   UNL     1       8.426  -3.529  23.877  0.00  0.00    -0.302 N 
ATOM     20  H   UNL     1       9.108  -3.048  24.454  0.00  0.00    +0.150 HD
ATOM     21  C   UNL     1       8.315  -4.904  23.979  0.00  0.00    +0.243 C 
ATOM     22  O   UNL     1       7.826  -5.591  23.086  0.00  0.00    -0.273 OA
BRANCH  21  23
ATOM     23  C   UNL     1       8.819  -5.481  25.318  0.00  0.00    +0.210 C 
BRANCH  23  24
ATOM     24  O   UNL     1      10.251  -5.421  25.381  0.00  0.00    -0.382 OA
ATOM     25  H   UNL     1      10.490  -4.658  25.947  0.00  0.00    +0.210 HD
ENDBRANCH  23  24
BRANCH  23  26
ATOM     26  C   UNL     1       8.256  -4.672  26.482  0.00  0.00    +0.161 C 
BRANCH  26  27
ATOM     27  C   UNL     1       7.063  -5.306  27.148  0.00  0.00    +0.308 C 
ATOM     28  O   UNL     1       6.751  -5.068  28.306  0.00  0.00    -0.251 OA
BRANCH  27  29
ATOM     29  O   UNL     1       6.409  -6.216  26.397  0.00  0.00    -0.481 OA
ATOM     30  H   UNL     1       6.737  -6.249  25.466  0.00  0.00    +0.295 HD
ENDBRANCH  27  29
ENDBRANCH  26  27
ENDBRANCH  23  26
ENDBRANCH  21  23
ENDBRANCH   1  19
BRANCH   1  31
ATOM     31  C   UNL     1       6.542  -2.274  22.871  0.00  0.00    +0.034 C 
BRANCH  31  33
ATOM     32  C   UNL     1       5.844  -0.691  24.751  0.00  0.00    +0.007 C 
ATOM     33  C   UNL     1       6.104  -2.144  24.349  0.00  0.00    -0.015 C 
ATOM     34  C   UNL     1       4.855  -2.989  24.620  0.00  0.00    +0.007 C 
ENDBRANCH  31  33
ENDBRANCH   1  31
TORSDOF 14
ENDMDL
