MODEL 1
REMARK VINA RESULT:      -6.6      0.000      0.000
REMARK  Name = 
REMARK  13 active torsions:
REMARK  status: ('A' for Active; 'I' for Inactive)
REMARK    1  A    between atoms: O_1  and  C_2
REMARK    2  A    between atoms: C_5  and  C_7
REMARK    3  A    between atoms: C_7  and  O_8
REMARK    4  A    between atoms: O_8  and  S_9
REMARK    5  A    between atoms: C_13  and  O_15
REMARK    6  A    between atoms: O_15  and  C_16
REMARK    7  A    between atoms: C_19  and  C_31
REMARK    8  A    between atoms: C_21  and  O_23
REMARK    9  A    between atoms: C_24  and  O_26
REMARK   10  A    between atoms: O_26  and  S_27
REMARK   11  A    between atoms: C_34  and  O_36
REMARK   12  A    between atoms: C_37  and  N_39
REMARK   13  A    between atoms: N_39  and  S_40
REMARK                            x       y       z     vdW  Elec       q    Type
REMARK                         _______ _______ _______ _____ _____    ______ ____
ROOT
ATOM      1  C   UNL     1       9.392  -2.452  22.384  0.00  0.00    +0.269 C 
ATOM      2  C   UNL     1       7.844  -2.334  22.427  0.00  0.00    +0.162 C 
ATOM      3  C   UNL     1       7.432  -1.121  23.289  0.00  0.00    +0.169 C 
ATOM      4  C   UNL     1       8.156  -1.136  24.660  0.00  0.00    +0.184 C 
ATOM      5  C   UNL     1       9.684  -1.170  24.444  0.00  0.00    +0.181 C 
ATOM      6  O   UNL     1      10.047  -2.300  23.629  0.00  0.00    -0.342 OA
ENDROOT
BRANCH   1   7
ATOM      7  O   UNL     1       9.948  -1.530  21.459  0.00  0.00    -0.366 OA
ATOM      8  H   UNL     1      10.907  -1.686  21.554  0.00  0.00    +0.213 HD
ENDBRANCH   1   7
BRANCH   2   9
ATOM      9  N   UNL     1       7.279  -3.626  22.931  0.00  0.00    -0.193 NA
ATOM     10  H   UNL     1       6.797  -3.483  23.829  0.00  0.00    +0.147 HD
BRANCH   9  11
ATOM     11  S   UNL     1       6.237  -4.484  21.917  0.00  0.00    -0.016 S 
ATOM     12  O   UNL     1       7.107  -5.472  21.284  0.00  0.00    -0.169 OA
ATOM     13  O   UNL     1       5.684  -3.488  21.011  0.00  0.00    -0.169 OA
ATOM     14  O   UNL     1       5.279  -5.042  22.858  0.00  0.00    -0.710 OA
ENDBRANCH   9  11
ENDBRANCH   2   9
BRANCH   3  15
ATOM     15  O   UNL     1       7.555   0.099  22.550  0.00  0.00    -0.387 OA
ATOM     16  H   UNL     1       7.940   0.798  23.112  0.00  0.00    +0.210 HD
ENDBRANCH   3  15
BRANCH   4  17
ATOM     17  O   UNL     1       7.683  -2.354  25.338  0.00  0.00    -0.331 OA
BRANCH  17  18
ATOM     18  C   UNL     1       6.911  -2.147  26.565  0.00  0.00    +0.342 C 
ATOM     19  C   UNL     1       5.508  -1.543  26.214  0.00  0.00    +0.248 C 
ATOM     20  C   UNL     1       4.399  -2.619  26.137  0.00  0.00    +0.178 C 
ATOM     21  C   UNL     1       4.895  -4.013  26.130  0.00  0.00    +0.054 C 
ATOM     22  C   UNL     1       6.001  -4.331  26.816  0.00  0.00    +0.145 C 
ATOM     23  O   UNL     1       6.822  -3.344  27.349  0.00  0.00    -0.459 OA
BRANCH  22  24
ATOM     24  C   UNL     1       6.244  -5.828  27.225  0.00  0.00    +0.106 C 
ATOM     25  O   UNL     1       7.088  -6.024  28.146  0.00  0.00    -0.542 OA
ATOM     26  O   UNL     1       5.537  -6.690  26.610  0.00  0.00    -0.542 OA
ENDBRANCH  22  24
BRANCH  20  27
ATOM     27  O   UNL     1       3.507  -2.619  27.263  0.00  0.00    -0.385 OA
ATOM     28  H   UNL     1       2.829  -3.300  27.064  0.00  0.00    +0.210 HD
ENDBRANCH  20  27
BRANCH  19  29
ATOM     29  O   UNL     1       5.161  -0.492  27.132  0.00  0.00    -0.242 OA
BRANCH  29  30
ATOM     30  S   UNL     1       4.370   0.821  26.566  0.00  0.00    -0.000 S 
ATOM     31  O   UNL     1       4.824   1.917  27.415  0.00  0.00    -0.345 OA
ATOM     32  O   UNL     1       2.960   0.481  26.711  0.00  0.00    -0.345 OA
ATOM     33  O   UNL     1       4.807   0.924  25.175  0.00  0.00    -0.268 OA
ENDBRANCH  29  30
ENDBRANCH  19  29
ENDBRANCH  17  18
ENDBRANCH   4  17
BRANCH   5  34
ATOM     34  C   UNL     1      10.382   0.121  23.979  0.00  0.00    +0.226 C 
BRANCH  34  35
ATOM     35  O   UNL     1       9.583   1.271  24.186  0.00  0.00    -0.252 OA
BRANCH  35  36
ATOM     36  S   UNL     1       9.656   2.440  23.045  0.00  0.00    -0.001 S 
ATOM     37  O   UNL     1       8.312   3.008  23.032  0.00  0.00    -0.345 OA
ATOM     38  O   UNL     1      10.013   1.716  21.827  0.00  0.00    -0.345 OA
ATOM     39  O   UNL     1      10.693   3.352  23.519  0.00  0.00    -0.268 OA
ENDBRANCH  35  36
ENDBRANCH  34  35
ENDBRANCH   5  34
TORSDOF 13
ENDMDL
MODEL 2
REMARK VINA RESULT:      -6.3      2.382      6.897
REMARK  Name = 
REMARK  13 active torsions:
REMARK  status: ('A' for Active; 'I' for Inactive)
REMARK    1  A    between atoms: O_1  and  C_2
REMARK    2  A    between atoms: C_5  and  C_7
REMARK    3  A    between atoms: C_7  and  O_8
REMARK    4  A    between atoms: O_8  and  S_9
REMARK    5  A    between atoms: C_13  and  O_15
REMARK    6  A    between atoms: O_15  and  C_16
REMARK    7  A    between atoms: C_19  and  C_31
REMARK    8  A    between atoms: C_21  and  O_23
REMARK    9  A    between atoms: C_24  and  O_26
REMARK   10  A    between atoms: O_26  and  S_27
REMARK   11  A    between atoms: C_34  and  O_36
REMARK   12  A    between atoms: C_37  and  N_39
REMARK   13  A    between atoms: N_39  and  S_40
REMARK                            x       y       z     vdW  Elec       q    Type
REMARK                         _______ _______ _______ _____ _____    ______ ____
ROOT
ATOM      1  C   UNL     1       5.259  -5.465  25.350  0.00  0.00    +0.269 C 
ATOM      2  C   UNL     1       6.611  -5.195  24.634  0.00  0.00    +0.162 C 
ATOM      3  C   UNL     1       7.662  -4.716  25.659  0.00  0.00    +0.169 C 
ATOM      4  C   UNL     1       7.107  -3.561  26.533  0.00  0.00    +0.184 C 
ATOM      5  C   UNL     1       5.812  -4.016  27.238  0.00  0.00    +0.181 C 
ATOM      6  O   UNL     1       4.849  -4.470  26.269  0.00  0.00    -0.342 OA
ENDROOT
BRANCH   1   7
ATOM      7  O   UNL     1       5.274  -6.720  26.012  0.00  0.00    -0.366 OA
ATOM      8  H   UNL     1       4.869  -6.510  26.876  0.00  0.00    +0.213 HD
ENDBRANCH   1   7
BRANCH   2   9
ATOM      9  N   UNL     1       6.381  -4.209  23.531  0.00  0.00    -0.193 NA
ATOM     10  H   UNL     1       7.200  -3.597  23.418  0.00  0.00    +0.147 HD
BRANCH   9  11
ATOM     11  S   UNL     1       5.969  -4.808  22.007  0.00  0.00    -0.016 S 
ATOM     12  O   UNL     1       7.163  -5.536  21.588  0.00  0.00    -0.169 OA
ATOM     13  O   UNL     1       5.660  -3.631  21.209  0.00  0.00    -0.169 OA
ATOM     14  O   UNL     1       4.823  -5.653  22.306  0.00  0.00    -0.710 OA
ENDBRANCH   9  11
ENDBRANCH   2   9
BRANCH   3  15
ATOM     15  O   UNL     1       8.209  -5.820  26.388  0.00  0.00    -0.387 OA
ATOM     16  H   UNL     1       9.098  -6.041  26.051  0.00  0.00    +0.210 HD
ENDBRANCH   3  15
BRANCH   4  17
ATOM     17  O   UNL     1       6.849  -2.454  25.599  0.00  0.00    -0.331 OA
BRANCH  17  18
ATOM     18  C   UNL     1       7.895  -1.434  25.506  0.00  0.00    +0.342 C 
ATOM     19  C   UNL     1       7.811  -0.712  24.118  0.00  0.00    +0.248 C 
ATOM     20  C   UNL     1       7.031   0.623  24.189  0.00  0.00    +0.178 C 
ATOM     21  C   UNL     1       6.288   0.834  25.450  0.00  0.00    +0.054 C 
ATOM     22  C   UNL     1       6.780   0.359  26.602  0.00  0.00    +0.145 C 
ATOM     23  O   UNL     1       7.855  -0.523  26.612  0.00  0.00    -0.459 OA
BRANCH  22  24
ATOM     24  C   UNL     1       6.293   0.985  27.958  0.00  0.00    +0.106 C 
ATOM     25  O   UNL     1       5.114   0.697  28.313  0.00  0.00    -0.542 OA
ATOM     26  O   UNL     1       7.151   1.690  28.581  0.00  0.00    -0.542 OA
ENDBRANCH  22  24
BRANCH  20  27
ATOM     27  O   UNL     1       7.867   1.790  24.128  0.00  0.00    -0.385 OA
ATOM     28  H   UNL     1       7.766   2.233  24.999  0.00  0.00    +0.210 HD
ENDBRANCH  20  27
BRANCH  19  29
ATOM     29  O   UNL     1       9.122  -0.528  23.557  0.00  0.00    -0.242 OA
BRANCH  29  30
ATOM     30  S   UNL     1       9.474  -1.232  22.125  0.00  0.00    -0.000 S 
ATOM     31  O   UNL     1       9.382  -0.150  21.152  0.00  0.00    -0.345 OA
ATOM     32  O   UNL     1       8.465  -2.273  21.978  0.00  0.00    -0.345 OA
ATOM     33  O   UNL     1      10.828  -1.752  22.312  0.00  0.00    -0.268 OA
ENDBRANCH  29  30
ENDBRANCH  19  29
ENDBRANCH  17  18
ENDBRANCH   4  17
BRANCH   5  34
ATOM     34  C   UNL     1       5.933  -4.989  28.426  0.00  0.00    +0.226 C 
BRANCH  34  35
ATOM     35  O   UNL     1       4.674  -5.320  28.983  0.00  0.00    -0.252 OA
BRANCH  35  36
ATOM     36  S   UNL     1       4.300  -6.908  29.076  0.00  0.00    -0.001 S 
ATOM     37  O   UNL     1       3.983  -7.116  30.485  0.00  0.00    -0.345 OA
ATOM     38  O   UNL     1       5.519  -7.580  28.630  0.00  0.00    -0.345 OA
ATOM     39  O   UNL     1       3.166  -7.073  28.170  0.00  0.00    -0.268 OA
ENDBRANCH  35  36
ENDBRANCH  34  35
ENDBRANCH   5  34
TORSDOF 13
ENDMDL
MODEL 3
REMARK VINA RESULT:      -6.3      2.286      5.144
REMARK  Name = 
REMARK  13 active torsions:
REMARK  status: ('A' for Active; 'I' for Inactive)
REMARK    1  A    between atoms: O_1  and  C_2
REMARK    2  A    between atoms: C_5  and  C_7
REMARK    3  A    between atoms: C_7  and  O_8
REMARK    4  A    between atoms: O_8  and  S_9
REMARK    5  A    between atoms: C_13  and  O_15
REMARK    6  A    between atoms: O_15  and  C_16
REMARK    7  A    between atoms: C_19  and  C_31
REMARK    8  A    between atoms: C_21  and  O_23
REMARK    9  A    between atoms: C_24  and  O_26
REMARK   10  A    between atoms: O_26  and  S_27
REMARK   11  A    between atoms: C_34  and  O_36
REMARK   12  A    between atoms: C_37  and  N_39
REMARK   13  A    between atoms: N_39  and  S_40
REMARK                            x       y       z     vdW  Elec       q    Type
REMARK                         _______ _______ _______ _____ _____    ______ ____
ROOT
ATOM      1  C   UNL     1       5.965   0.169  24.732  0.00  0.00    +0.269 C 
ATOM      2  C   UNL     1       5.552  -0.447  26.097  0.00  0.00    +0.162 C 
ATOM      3  C   UNL     1       6.712  -1.291  26.665  0.00  0.00    +0.169 C 
ATOM      4  C   UNL     1       7.258  -2.282  25.603  0.00  0.00    +0.184 C 
ATOM      5  C   UNL     1       7.701  -1.506  24.345  0.00  0.00    +0.181 C 
ATOM      6  O   UNL     1       6.610  -0.716  23.837  0.00  0.00    -0.342 OA
ENDROOT
BRANCH   1   7
ATOM      7  O   UNL     1       6.786   1.312  24.916  0.00  0.00    -0.366 OA
ATOM      8  H   UNL     1       7.574   0.940  25.357  0.00  0.00    +0.213 HD
ENDBRANCH   1   7
BRANCH   2   9
ATOM      9  N   UNL     1       4.295  -1.237  25.905  0.00  0.00    -0.193 NA
ATOM     10  H   UNL     1       4.509  -2.165  25.515  0.00  0.00    +0.147 HD
BRANCH   9  11
ATOM     11  S   UNL     1       3.286  -1.458  27.240  0.00  0.00    -0.016 S 
ATOM     12  O   UNL     1       3.657  -0.367  28.137  0.00  0.00    -0.169 OA
ATOM     13  O   UNL     1       3.600  -2.790  27.736  0.00  0.00    -0.169 OA
ATOM     14  O   UNL     1       1.962  -1.329  26.652  0.00  0.00    -0.710 OA
ENDBRANCH   9  11
ENDBRANCH   2   9
BRANCH   3  15
ATOM     15  O   UNL     1       7.700  -0.458  27.283  0.00  0.00    -0.387 OA
ATOM     16  H   UNL     1       7.383  -0.141  28.149  0.00  0.00    +0.210 HD
ENDBRANCH   3  15
BRANCH   4  17
ATOM     17  O   UNL     1       6.140  -3.191  25.308  0.00  0.00    -0.331 OA
BRANCH  17  18
ATOM     18  C   UNL     1       6.465  -4.618  25.267  0.00  0.00    +0.342 C 
ATOM     19  C   UNL     1       5.272  -5.451  25.848  0.00  0.00    +0.248 C 
ATOM     20  C   UNL     1       4.342  -6.009  24.744  0.00  0.00    +0.178 C 
ATOM     21  C   UNL     1       4.577  -5.441  23.398  0.00  0.00    +0.054 C 
ATOM     22  C   UNL     1       5.817  -5.094  23.028  0.00  0.00    +0.145 C 
ATOM     23  O   UNL     1       6.854  -5.041  23.954  0.00  0.00    -0.459 OA
BRANCH  22  24
ATOM     24  C   UNL     1       6.154  -4.976  21.498  0.00  0.00    +0.106 C 
ATOM     25  O   UNL     1       5.685  -3.964  20.901  0.00  0.00    -0.542 OA
ATOM     26  O   UNL     1       6.897  -5.894  21.023  0.00  0.00    -0.542 OA
ENDBRANCH  22  24
BRANCH  20  27
ATOM     27  O   UNL     1       4.495  -7.418  24.511  0.00  0.00    -0.385 OA
ATOM     28  H   UNL     1       5.219  -7.709  25.108  0.00  0.00    +0.210 HD
ENDBRANCH  20  27
BRANCH  19  29
ATOM     29  O   UNL     1       5.752  -6.496  26.712  0.00  0.00    -0.242 OA
BRANCH  29  30
ATOM     30  S   UNL     1       5.497  -6.369  28.321  0.00  0.00    -0.000 S 
ATOM     31  O   UNL     1       4.046  -6.355  28.464  0.00  0.00    -0.345 OA
ATOM     32  O   UNL     1       6.159  -5.124  28.693  0.00  0.00    -0.345 OA
ATOM     33  O   UNL     1       6.138  -7.560  28.875  0.00  0.00    -0.268 OA
ENDBRANCH  29  30
ENDBRANCH  19  29
ENDBRANCH  17  18
ENDBRANCH   4  17
BRANCH   5  34
ATOM     34  C   UNL     1       9.012  -0.700  24.410  0.00  0.00    +0.226 C 
BRANCH  34  35
ATOM     35  O   UNL     1       9.045   0.353  23.465  0.00  0.00    -0.252 OA
BRANCH  35  36
ATOM     36  S   UNL     1      10.106   1.565  23.744  0.00  0.00    -0.001 S 
ATOM     37  O   UNL     1       9.380   2.478  24.620  0.00  0.00    -0.345 OA
ATOM     38  O   UNL     1      10.380   2.102  22.413  0.00  0.00    -0.345 OA
ATOM     39  O   UNL     1      11.254   0.913  24.369  0.00  0.00    -0.268 OA
ENDBRANCH  35  36
ENDBRANCH  34  35
ENDBRANCH   5  34
TORSDOF 13
ENDMDL
MODEL 4
REMARK VINA RESULT:      -6.3      2.352      4.908
REMARK  Name = 
REMARK  13 active torsions:
REMARK  status: ('A' for Active; 'I' for Inactive)
REMARK    1  A    between atoms: O_1  and  C_2
REMARK    2  A    between atoms: C_5  and  C_7
REMARK    3  A    between atoms: C_7  and  O_8
REMARK    4  A    between atoms: O_8  and  S_9
REMARK    5  A    between atoms: C_13  and  O_15
REMARK    6  A    between atoms: O_15  and  C_16
REMARK    7  A    between atoms: C_19  and  C_31
REMARK    8  A    between atoms: C_21  and  O_23
REMARK    9  A    between atoms: C_24  and  O_26
REMARK   10  A    between atoms: O_26  and  S_27
REMARK   11  A    between atoms: C_34  and  O_36
REMARK   12  A    between atoms: C_37  and  N_39
REMARK   13  A    between atoms: N_39  and  S_40
REMARK                            x       y       z     vdW  Elec       q    Type
REMARK                         _______ _______ _______ _____ _____    ______ ____
ROOT
ATOM      1  C   UNL     1       7.739  -1.115  26.484  0.00  0.00    +0.269 C 
ATOM      2  C   UNL     1       8.153  -2.468  25.844  0.00  0.00    +0.162 C 
ATOM      3  C   UNL     1       7.767  -2.484  24.349  0.00  0.00    +0.169 C 
ATOM      4  C   UNL     1       6.290  -2.054  24.147  0.00  0.00    +0.184 C 
ATOM      5  C   UNL     1       6.064  -0.658  24.764  0.00  0.00    +0.181 C 
ATOM      6  O   UNL     1       6.441  -0.660  26.154  0.00  0.00    -0.342 OA
ENDROOT
BRANCH   1   7
ATOM      7  O   UNL     1       8.674  -0.095  26.169  0.00  0.00    -0.366 OA
ATOM      8  H   UNL     1       8.755  -0.171  25.199  0.00  0.00    +0.213 HD
ENDBRANCH   1   7
BRANCH   2   9
ATOM      9  N   UNL     1       7.519  -3.580  26.621  0.00  0.00    -0.193 NA
ATOM     10  H   UNL     1       6.541  -3.711  26.330  0.00  0.00    +0.147 HD
BRANCH   9  11
ATOM     11  S   UNL     1       8.271  -5.091  26.599  0.00  0.00    -0.016 S 
ATOM     12  O   UNL     1       7.618  -5.818  27.684  0.00  0.00    -0.169 OA
ATOM     13  O   UNL     1       9.684  -4.814  26.814  0.00  0.00    -0.169 OA
ATOM     14  O   UNL     1       7.948  -5.579  25.268  0.00  0.00    -0.710 OA
ENDBRANCH   9  11
ENDBRANCH   2   9
BRANCH   3  15
ATOM     15  O   UNL     1       8.723  -1.762  23.564  0.00  0.00    -0.387 OA
ATOM     16  H   UNL     1       8.278  -1.300  22.829  0.00  0.00    +0.210 HD
ENDBRANCH   3  15
BRANCH   4  17
ATOM     17  O   UNL     1       5.489  -3.080  24.832  0.00  0.00    -0.331 OA
BRANCH  17  18
ATOM     18  C   UNL     1       4.575  -3.852  23.987  0.00  0.00    +0.342 C 
ATOM     19  C   UNL     1       5.248  -5.206  23.577  0.00  0.00    +0.248 C 
ATOM     20  C   UNL     1       4.814  -6.384  24.482  0.00  0.00    +0.178 C 
ATOM     21  C   UNL     1       4.086  -5.982  25.706  0.00  0.00    +0.054 C 
ATOM     22  C   UNL     1       3.285  -4.908  25.683  0.00  0.00    +0.145 C 
ATOM     23  O   UNL     1       3.294  -4.030  24.605  0.00  0.00    -0.459 OA
BRANCH  22  24
ATOM     24  C   UNL     1       2.159  -4.771  26.770  0.00  0.00    +0.106 C 
ATOM     25  O   UNL     1       2.242  -3.766  27.533  0.00  0.00    -0.542 OA
ATOM     26  O   UNL     1       1.256  -5.667  26.746  0.00  0.00    -0.542 OA
ENDBRANCH  22  24
BRANCH  20  27
ATOM     27  O   UNL     1       3.887  -7.287  23.859  0.00  0.00    -0.385 OA
ATOM     28  H   UNL     1       2.996  -6.916  24.035  0.00  0.00    +0.210 HD
ENDBRANCH  20  27
BRANCH  19  29
ATOM     29  O   UNL     1       5.012  -5.494  22.187  0.00  0.00    -0.242 OA
BRANCH  29  30
ATOM     30  S   UNL     1       6.081  -4.954  21.076  0.00  0.00    -0.000 S 
ATOM     31  O   UNL     1       5.627  -3.606  20.753  0.00  0.00    -0.345 OA
ATOM     32  O   UNL     1       5.978  -5.911  19.982  0.00  0.00    -0.345 OA
ATOM     33  O   UNL     1       7.366  -4.998  21.773  0.00  0.00    -0.268 OA
ENDBRANCH  29  30
ENDBRANCH  19  29
ENDBRANCH  17  18
ENDBRANCH   4  17
BRANCH   5  34
ATOM     34  C   UNL     1       6.626   0.567  24.019  0.00  0.00    +0.226 C 
BRANCH  34  35
ATOM     35  O   UNL     1       7.080   0.246  22.718  0.00  0.00    -0.252 OA
BRANCH  35  36
ATOM     36  S   UNL     1       8.422   1.016  22.190  0.00  0.00    -0.001 S 
ATOM     37  O   UNL     1       9.058   0.052  21.299  0.00  0.00    -0.345 OA
ATOM     38  O   UNL     1       9.173   1.285  23.415  0.00  0.00    -0.345 OA
ATOM     39  O   UNL     1       7.920   2.216  21.526  0.00  0.00    -0.268 OA
ENDBRANCH  35  36
ENDBRANCH  34  35
ENDBRANCH   5  34
TORSDOF 13
ENDMDL
MODEL 5
REMARK VINA RESULT:      -6.0      2.662      5.794
REMARK  Name = 
REMARK  13 active torsions:
REMARK  status: ('A' for Active; 'I' for Inactive)
REMARK    1  A    between atoms: O_1  and  C_2
REMARK    2  A    between atoms: C_5  and  C_7
REMARK    3  A    between atoms: C_7  and  O_8
REMARK    4  A    between atoms: O_8  and  S_9
REMARK    5  A    between atoms: C_13  and  O_15
REMARK    6  A    between atoms: O_15  and  C_16
REMARK    7  A    between atoms: C_19  and  C_31
REMARK    8  A    between atoms: C_21  and  O_23
REMARK    9  A    between atoms: C_24  and  O_26
REMARK   10  A    between atoms: O_26  and  S_27
REMARK   11  A    between atoms: C_34  and  O_36
REMARK   12  A    between atoms: C_37  and  N_39
REMARK   13  A    between atoms: N_39  and  S_40
REMARK                            x       y       z     vdW  Elec       q    Type
REMARK                         _______ _______ _______ _____ _____    ______ ____
ROOT
ATOM      1  C   UNL     1       5.659  -0.224  26.232  0.00  0.00    +0.269 C 
ATOM      2  C   UNL     1       5.563  -1.548  27.038  0.00  0.00    +0.162 C 
ATOM      3  C   UNL     1       6.235  -2.694  26.251  0.00  0.00    +0.169 C 
ATOM      4  C   UNL     1       5.723  -2.744  24.787  0.00  0.00    +0.184 C 
ATOM      5  C   UNL     1       5.966  -1.383  24.102  0.00  0.00    +0.181 C 
ATOM      6  O   UNL     1       5.342  -0.327  24.857  0.00  0.00    -0.342 OA
ENDROOT
BRANCH   1   7
ATOM      7  O   UNL     1       6.946   0.360  26.362  0.00  0.00    -0.366 OA
ATOM      8  H   UNL     1       7.173   0.171  27.292  0.00  0.00    +0.213 HD
ENDBRANCH   1   7
BRANCH   2   9
ATOM      9  N   UNL     1       4.123  -1.819  27.345  0.00  0.00    -0.193 NA
ATOM     10  H   UNL     1       3.756  -2.559  26.731  0.00  0.00    +0.147 HD
BRANCH   9  11
ATOM     11  S   UNL     1       3.713  -2.216  28.934  0.00  0.00    -0.016 S 
ATOM     12  O   UNL     1       4.358  -3.509  29.144  0.00  0.00    -0.169 OA
ATOM     13  O   UNL     1       2.258  -2.249  28.952  0.00  0.00    -0.169 OA
ATOM     14  O   UNL     1       4.301  -1.121  29.688  0.00  0.00    -0.710 OA
ENDBRANCH   9  11
ENDBRANCH   2   9
BRANCH   3  15
ATOM     15  O   UNL     1       7.659  -2.649  26.395  0.00  0.00    -0.387 OA
ATOM     16  H   UNL     1       7.922  -1.881  26.935  0.00  0.00    +0.210 HD
ENDBRANCH   3  15
BRANCH   4  17
ATOM     17  O   UNL     1       4.287  -3.047  24.887  0.00  0.00    -0.331 OA
BRANCH  17  18
ATOM     18  C   UNL     1       3.794  -4.120  24.021  0.00  0.00    +0.342 C 
ATOM     19  C   UNL     1       4.956  -5.123  23.707  0.00  0.00    +0.248 C 
ATOM     20  C   UNL     1       4.936  -6.364  24.632  0.00  0.00    +0.178 C 
ATOM     21  C   UNL     1       4.026  -6.250  25.792  0.00  0.00    +0.054 C 
ATOM     22  C   UNL     1       2.882  -5.562  25.678  0.00  0.00    +0.145 C 
ATOM     23  O   UNL     1       2.635  -4.761  24.568  0.00  0.00    -0.459 OA
BRANCH  22  24
ATOM     24  C   UNL     1       1.714  -5.846  26.689  0.00  0.00    +0.106 C 
ATOM     25  O   UNL     1       1.522  -7.060  26.990  0.00  0.00    -0.542 OA
ATOM     26  O   UNL     1       1.103  -4.821  27.131  0.00  0.00    -0.542 OA
ENDBRANCH  22  24
BRANCH  20  27
ATOM     27  O   UNL     1       4.466  -7.561  23.992  0.00  0.00    -0.385 OA
ATOM     28  H   UNL     1       4.997  -7.647  23.170  0.00  0.00    +0.210 HD
ENDBRANCH  20  27
BRANCH  19  29
ATOM     29  O   UNL     1       4.945  -5.499  22.319  0.00  0.00    -0.242 OA
BRANCH  29  30
ATOM     30  S   UNL     1       6.108  -4.913  21.333  0.00  0.00    -0.000 S 
ATOM     31  O   UNL     1       5.783  -3.499  21.182  0.00  0.00    -0.345 OA
ATOM     32  O   UNL     1       5.978  -5.702  20.114  0.00  0.00    -0.345 OA
ATOM     33  O   UNL     1       7.349  -5.164  22.063  0.00  0.00    -0.268 OA
ENDBRANCH  29  30
ENDBRANCH  19  29
ENDBRANCH  17  18
ENDBRANCH   4  17
BRANCH   5  34
ATOM     34  C   UNL     1       7.405  -1.021  23.690  0.00  0.00    +0.226 C 
BRANCH  34  35
ATOM     35  O   UNL     1       8.144  -2.151  23.264  0.00  0.00    -0.252 OA
BRANCH  35  36
ATOM     36  S   UNL     1       9.707  -2.236  23.737  0.00  0.00    -0.001 S 
ATOM     37  O   UNL     1      10.462  -2.007  22.510  0.00  0.00    -0.345 OA
ATOM     38  O   UNL     1       9.835  -3.588  24.276  0.00  0.00    -0.345 OA
ATOM     39  O   UNL     1       9.845  -1.182  24.738  0.00  0.00    -0.268 OA
ENDBRANCH  35  36
ENDBRANCH  34  35
ENDBRANCH   5  34
TORSDOF 13
ENDMDL
MODEL 6
REMARK VINA RESULT:      -6.0      2.255      6.153
REMARK  Name = 
REMARK  13 active torsions:
REMARK  status: ('A' for Active; 'I' for Inactive)
REMARK    1  A    between atoms: O_1  and  C_2
REMARK    2  A    between atoms: C_5  and  C_7
REMARK    3  A    between atoms: C_7  and  O_8
REMARK    4  A    between atoms: O_8  and  S_9
REMARK    5  A    between atoms: C_13  and  O_15
REMARK    6  A    between atoms: O_15  and  C_16
REMARK    7  A    between atoms: C_19  and  C_31
REMARK    8  A    between atoms: C_21  and  O_23
REMARK    9  A    between atoms: C_24  and  O_26
REMARK   10  A    between atoms: O_26  and  S_27
REMARK   11  A    between atoms: C_34  and  O_36
REMARK   12  A    between atoms: C_37  and  N_39
REMARK   13  A    between atoms: N_39  and  S_40
REMARK                            x       y       z     vdW  Elec       q    Type
REMARK                         _______ _______ _______ _____ _____    ______ ____
ROOT
ATOM      1  C   UNL     1       3.756  -5.505  24.612  0.00  0.00    +0.269 C 
ATOM      2  C   UNL     1       5.178  -5.629  23.998  0.00  0.00    +0.162 C 
ATOM      3  C   UNL     1       6.224  -5.050  24.974  0.00  0.00    +0.169 C 
ATOM      4  C   UNL     1       5.812  -3.638  25.467  0.00  0.00    +0.184 C 
ATOM      5  C   UNL     1       4.416  -3.701  26.123  0.00  0.00    +0.181 C 
ATOM      6  O   UNL     1       3.457  -4.254  25.202  0.00  0.00    -0.342 OA
ENDROOT
BRANCH   1   7
ATOM      7  O   UNL     1       3.521  -6.528  25.566  0.00  0.00    -0.366 OA
ATOM      8  H   UNL     1       3.809  -7.332  25.092  0.00  0.00    +0.213 HD
ENDBRANCH   1   7
BRANCH   2   9
ATOM      9  N   UNL     1       5.185  -4.948  22.665  0.00  0.00    -0.193 NA
ATOM     10  H   UNL     1       5.151  -3.927  22.781  0.00  0.00    +0.147 HD
BRANCH   9  11
ATOM     11  S   UNL     1       6.446  -5.305  21.600  0.00  0.00    -0.016 S 
ATOM     12  O   UNL     1       6.801  -6.682  21.935  0.00  0.00    -0.169 OA
ATOM     13  O   UNL     1       7.477  -4.321  21.891  0.00  0.00    -0.169 OA
ATOM     14  O   UNL     1       5.809  -5.147  20.302  0.00  0.00    -0.710 OA
ENDBRANCH   9  11
ENDBRANCH   2   9
BRANCH   3  15
ATOM     15  O   UNL     1       6.534  -5.988  26.011  0.00  0.00    -0.387 OA
ATOM     16  H   UNL     1       6.157  -5.691  26.860  0.00  0.00    +0.210 HD
ENDBRANCH   3  15
BRANCH   4  17
ATOM     17  O   UNL     1       5.801  -2.794  24.262  0.00  0.00    -0.331 OA
BRANCH  17  18
ATOM     18  C   UNL     1       6.214  -1.401  24.450  0.00  0.00    +0.342 C 
ATOM     19  C   UNL     1       6.621  -1.166  25.945  0.00  0.00    +0.248 C 
ATOM     20  C   UNL     1       8.150  -1.262  26.167  0.00  0.00    +0.178 C 
ATOM     21  C   UNL     1       8.903  -1.818  25.022  0.00  0.00    +0.054 C 
ATOM     22  C   UNL     1       8.487  -1.581  23.771  0.00  0.00    +0.145 C 
ATOM     23  O   UNL     1       7.240  -1.017  23.525  0.00  0.00    -0.459 OA
BRANCH  22  24
ATOM     24  C   UNL     1       9.508  -1.720  22.585  0.00  0.00    +0.106 C 
ATOM     25  O   UNL     1      10.571  -2.358  22.839  0.00  0.00    -0.542 OA
ATOM     26  O   UNL     1       9.144  -1.209  21.478  0.00  0.00    -0.542 OA
ENDBRANCH  22  24
BRANCH  20  27
ATOM     27  O   UNL     1       8.791   0.008  26.365  0.00  0.00    -0.385 OA
ATOM     28  H   UNL     1       8.828   0.427  25.478  0.00  0.00    +0.210 HD
ENDBRANCH  20  27
BRANCH  19  29
ATOM     29  O   UNL     1       6.095   0.082  26.427  0.00  0.00    -0.242 OA
BRANCH  29  30
ATOM     30  S   UNL     1       4.739   0.068  27.338  0.00  0.00    -0.000 S 
ATOM     31  O   UNL     1       4.658   1.412  27.898  0.00  0.00    -0.345 OA
ATOM     32  O   UNL     1       4.973  -0.987  28.316  0.00  0.00    -0.345 OA
ATOM     33  O   UNL     1       3.677  -0.244  26.383  0.00  0.00    -0.268 OA
ENDBRANCH  29  30
ENDBRANCH  19  29
ENDBRANCH  17  18
ENDBRANCH   4  17
BRANCH   5  34
ATOM     34  C   UNL     1       4.298  -4.331  27.523  0.00  0.00    +0.226 C 
BRANCH  34  35
ATOM     35  O   UNL     1       5.557  -4.498  28.148  0.00  0.00    -0.252 OA
BRANCH  35  36
ATOM     36  S   UNL     1       5.784  -5.872  29.003  0.00  0.00    -0.001 S 
ATOM     37  O   UNL     1       4.706  -6.749  28.558  0.00  0.00    -0.345 OA
ATOM     38  O   UNL     1       5.669  -5.440  30.395  0.00  0.00    -0.345 OA
ATOM     39  O   UNL     1       7.122  -6.321  28.630  0.00  0.00    -0.268 OA
ENDBRANCH  35  36
ENDBRANCH  34  35
ENDBRANCH   5  34
TORSDOF 13
ENDMDL
MODEL 7
REMARK VINA RESULT:      -5.9      2.209      5.877
REMARK  Name = 
REMARK  13 active torsions:
REMARK  status: ('A' for Active; 'I' for Inactive)
REMARK    1  A    between atoms: O_1  and  C_2
REMARK    2  A    between atoms: C_5  and  C_7
REMARK    3  A    between atoms: C_7  and  O_8
REMARK    4  A    between atoms: O_8  and  S_9
REMARK    5  A    between atoms: C_13  and  O_15
REMARK    6  A    between atoms: O_15  and  C_16
REMARK    7  A    between atoms: C_19  and  C_31
REMARK    8  A    between atoms: C_21  and  O_23
REMARK    9  A    between atoms: C_24  and  O_26
REMARK   10  A    between atoms: O_26  and  S_27
REMARK   11  A    between atoms: C_34  and  O_36
REMARK   12  A    between atoms: C_37  and  N_39
REMARK   13  A    between atoms: N_39  and  S_40
REMARK                            x       y       z     vdW  Elec       q    Type
REMARK                         _______ _______ _______ _____ _____    ______ ____
ROOT
ATOM      1  C   UNL     1       7.996  -0.151  26.036  0.00  0.00    +0.269 C 
ATOM      2  C   UNL     1       7.768  -0.629  24.576  0.00  0.00    +0.162 C 
ATOM      3  C   UNL     1       6.510  -1.521  24.504  0.00  0.00    +0.169 C 
ATOM      4  C   UNL     1       6.546  -2.628  25.590  0.00  0.00    +0.184 C 
ATOM      5  C   UNL     1       6.692  -1.986  26.986  0.00  0.00    +0.181 C 
ATOM      6  O   UNL     1       7.863  -1.149  27.029  0.00  0.00    -0.342 OA
ENDROOT
BRANCH   1   7
ATOM      7  O   UNL     1       7.136   0.932  26.358  0.00  0.00    -0.366 OA
ATOM      8  H   UNL     1       6.750   0.650  27.210  0.00  0.00    +0.213 HD
ENDBRANCH   1   7
BRANCH   2   9
ATOM      9  N   UNL     1       9.005  -1.326  24.101  0.00  0.00    -0.193 NA
ATOM     10  H   UNL     1       8.814  -2.323  23.931  0.00  0.00    +0.147 HD
BRANCH   9  11
ATOM     11  S   UNL     1       9.789  -0.710  22.739  0.00  0.00    -0.016 S 
ATOM     12  O   UNL     1       8.693  -0.288  21.871  0.00  0.00    -0.169 OA
ATOM     13  O   UNL     1      10.583  -1.816  22.226  0.00  0.00    -0.169 OA
ATOM     14  O   UNL     1      10.568   0.383  23.299  0.00  0.00    -0.710 OA
ENDBRANCH   9  11
ENDBRANCH   2   9
BRANCH   3  15
ATOM     15  O   UNL     1       5.318  -0.728  24.485  0.00  0.00    -0.387 OA
ATOM     16  H   UNL     1       4.546  -1.271  24.730  0.00  0.00    +0.210 HD
ENDBRANCH   3  15
BRANCH   4  17
ATOM     17  O   UNL     1       7.711  -3.463  25.258  0.00  0.00    -0.331 OA
BRANCH  17  18
ATOM     18  C   UNL     1       7.486  -4.910  25.256  0.00  0.00    +0.342 C 
ATOM     19  C   UNL     1       6.189  -5.245  26.069  0.00  0.00    +0.248 C 
ATOM     20  C   UNL     1       4.948  -5.424  25.163  0.00  0.00    +0.178 C 
ATOM     21  C   UNL     1       5.141  -4.984  23.764  0.00  0.00    +0.054 C 
ATOM     22  C   UNL     1       6.341  -5.117  23.182  0.00  0.00    +0.145 C 
ATOM     23  O   UNL     1       7.467  -5.448  23.928  0.00  0.00    -0.459 OA
BRANCH  22  24
ATOM     24  C   UNL     1       6.433  -5.134  21.614  0.00  0.00    +0.106 C 
ATOM     25  O   UNL     1       7.193  -6.011  21.110  0.00  0.00    -0.542 OA
ATOM     26  O   UNL     1       5.703  -4.285  21.008  0.00  0.00    -0.542 OA
ENDBRANCH  22  24
BRANCH  20  27
ATOM     27  O   UNL     1       4.539  -6.792  24.998  0.00  0.00    -0.385 OA
ATOM     28  H   UNL     1       3.964  -6.990  25.770  0.00  0.00    +0.210 HD
ENDBRANCH  20  27
BRANCH  19  29
ATOM     29  O   UNL     1       6.397  -6.392  26.912  0.00  0.00    -0.242 OA
BRANCH  29  30
ATOM     30  S   UNL     1       5.763  -6.391  28.418  0.00  0.00    -0.000 S 
ATOM     31  O   UNL     1       6.068  -5.066  28.944  0.00  0.00    -0.345 OA
ATOM     32  O   UNL     1       6.443  -7.488  29.095  0.00  0.00    -0.345 OA
ATOM     33  O   UNL     1       4.338  -6.632  28.200  0.00  0.00    -0.268 OA
ENDBRANCH  29  30
ENDBRANCH  19  29
ENDBRANCH  17  18
ENDBRANCH   4  17
BRANCH   5  34
ATOM     34  C   UNL     1       5.464  -1.288  27.599  0.00  0.00    +0.226 C 
BRANCH  34  35
ATOM     35  O   UNL     1       4.344  -2.149  27.690  0.00  0.00    -0.252 OA
BRANCH  35  36
ATOM     36  S   UNL     1       2.991  -1.690  26.896  0.00  0.00    -0.001 S 
ATOM     37  O   UNL     1       3.161  -0.253  26.707  0.00  0.00    -0.345 OA
ATOM     38  O   UNL     1       1.910  -2.050  27.813  0.00  0.00    -0.345 OA
ATOM     39  O   UNL     1       3.006  -2.469  25.662  0.00  0.00    -0.268 OA
ENDBRANCH  35  36
ENDBRANCH  34  35
ENDBRANCH   5  34
TORSDOF 13
ENDMDL
MODEL 8
REMARK VINA RESULT:      -5.9      2.368      6.215
REMARK  Name = 
REMARK  13 active torsions:
REMARK  status: ('A' for Active; 'I' for Inactive)
REMARK    1  A    between atoms: O_1  and  C_2
REMARK    2  A    between atoms: C_5  and  C_7
REMARK    3  A    between atoms: C_7  and  O_8
REMARK    4  A    between atoms: O_8  and  S_9
REMARK    5  A    between atoms: C_13  and  O_15
REMARK    6  A    between atoms: O_15  and  C_16
REMARK    7  A    between atoms: C_19  and  C_31
REMARK    8  A    between atoms: C_21  and  O_23
REMARK    9  A    between atoms: C_24  and  O_26
REMARK   10  A    between atoms: O_26  and  S_27
REMARK   11  A    between atoms: C_34  and  O_36
REMARK   12  A    between atoms: C_37  and  N_39
REMARK   13  A    between atoms: N_39  and  S_40
REMARK                            x       y       z     vdW  Elec       q    Type
REMARK                         _______ _______ _______ _____ _____    ______ ____
ROOT
ATOM      1  C   UNL     1       7.067  -3.253  23.090  0.00  0.00    +0.269 C 
ATOM      2  C   UNL     1       8.378  -2.581  23.581  0.00  0.00    +0.162 C 
ATOM      3  C   UNL     1       8.376  -2.489  25.122  0.00  0.00    +0.169 C 
ATOM      4  C   UNL     1       7.053  -1.873  25.646  0.00  0.00    +0.184 C 
ATOM      5  C   UNL     1       5.854  -2.701  25.138  0.00  0.00    +0.181 C 
ATOM      6  O   UNL     1       5.880  -2.786  23.701  0.00  0.00    -0.342 OA
ENDROOT
BRANCH   1   7
ATOM      7  O   UNL     1       7.131  -4.663  23.234  0.00  0.00    -0.366 OA
ATOM      8  H   UNL     1       8.080  -4.817  23.403  0.00  0.00    +0.213 HD
ENDBRANCH   1   7
BRANCH   2   9
ATOM      9  N   UNL     1       8.511  -1.245  22.918  0.00  0.00    -0.193 NA
ATOM     10  H   UNL     1       8.031  -0.520  23.469  0.00  0.00    +0.147 HD
BRANCH   9  11
ATOM     11  S   UNL     1      10.064  -0.685  22.568  0.00  0.00    -0.016 S 
ATOM     12  O   UNL     1      10.784  -1.892  22.168  0.00  0.00    -0.169 OA
ATOM     13  O   UNL     1      10.534  -0.074  23.802  0.00  0.00    -0.169 OA
ATOM     14  O   UNL     1       9.817   0.254  21.485  0.00  0.00    -0.710 OA
ENDBRANCH   9  11
ENDBRANCH   2   9
BRANCH   3  15
ATOM     15  O   UNL     1       8.737  -3.743  25.712  0.00  0.00    -0.387 OA
ATOM     16  H   UNL     1       9.610  -4.032  25.387  0.00  0.00    +0.210 HD
ENDBRANCH   3  15
BRANCH   4  17
ATOM     17  O   UNL     1       7.023  -0.502  25.111  0.00  0.00    -0.331 OA
BRANCH  17  18
ATOM     18  C   UNL     1       7.866   0.476  25.803  0.00  0.00    +0.342 C 
ATOM     19  C   UNL     1       7.758   1.867  25.089  0.00  0.00    +0.248 C 
ATOM     20  C   UNL     1       6.741   2.810  25.775  0.00  0.00    +0.178 C 
ATOM     21  C   UNL     1       5.874   2.154  26.778  0.00  0.00    +0.054 C 
ATOM     22  C   UNL     1       6.354   1.142  27.514  0.00  0.00    +0.145 C 
ATOM     23  O   UNL     1       7.570   0.543  27.204  0.00  0.00    -0.459 OA
BRANCH  22  24
ATOM     24  C   UNL     1       5.653   0.787  28.875  0.00  0.00    +0.106 C 
ATOM     25  O   UNL     1       5.990   1.488  29.873  0.00  0.00    -0.542 OA
ATOM     26  O   UNL     1       4.790  -0.146  28.826  0.00  0.00    -0.542 OA
ENDBRANCH  22  24
BRANCH  20  27
ATOM     27  O   UNL     1       7.347   3.864  26.540  0.00  0.00    -0.385 OA
ATOM     28  H   UNL     1       7.309   4.662  25.968  0.00  0.00    +0.210 HD
ENDBRANCH  20  27
BRANCH  19  29
ATOM     29  O   UNL     1       9.053   2.482  24.973  0.00  0.00    -0.242 OA
BRANCH  29  30
ATOM     30  S   UNL     1       9.359   3.438  23.684  0.00  0.00    -0.000 S 
ATOM     31  O   UNL     1       9.125   4.794  24.168  0.00  0.00    -0.345 OA
ATOM     32  O   UNL     1       8.420   2.983  22.667  0.00  0.00    -0.345 OA
ATOM     33  O   UNL     1      10.756   3.155  23.359  0.00  0.00    -0.268 OA
ENDBRANCH  29  30
ENDBRANCH  19  29
ENDBRANCH  17  18
ENDBRANCH   4  17
BRANCH   5  34
ATOM     34  C   UNL     1       5.588  -4.071  25.789  0.00  0.00    +0.226 C 
BRANCH  34  35
ATOM     35  O   UNL     1       6.023  -4.122  27.135  0.00  0.00    -0.252 OA
BRANCH  35  36
ATOM     36  S   UNL     1       6.469  -5.584  27.714  0.00  0.00    -0.001 S 
ATOM     37  O   UNL     1       5.690  -6.532  26.924  0.00  0.00    -0.345 OA
ATOM     38  O   UNL     1       6.094  -5.530  29.126  0.00  0.00    -0.345 OA
ATOM     39  O   UNL     1       7.910  -5.647  27.485  0.00  0.00    -0.268 OA
ENDBRANCH  35  36
ENDBRANCH  34  35
ENDBRANCH   5  34
TORSDOF 13
ENDMDL
MODEL 9
REMARK VINA RESULT:      -5.9      2.139      4.103
REMARK  Name = 
REMARK  13 active torsions:
REMARK  status: ('A' for Active; 'I' for Inactive)
REMARK    1  A    between atoms: O_1  and  C_2
REMARK    2  A    between atoms: C_5  and  C_7
REMARK    3  A    between atoms: C_7  and  O_8
REMARK    4  A    between atoms: O_8  and  S_9
REMARK    5  A    between atoms: C_13  and  O_15
REMARK    6  A    between atoms: O_15  and  C_16
REMARK    7  A    between atoms: C_19  and  C_31
REMARK    8  A    between atoms: C_21  and  O_23
REMARK    9  A    between atoms: C_24  and  O_26
REMARK   10  A    between atoms: O_26  and  S_27
REMARK   11  A    between atoms: C_34  and  O_36
REMARK   12  A    between atoms: C_37  and  N_39
REMARK   13  A    between atoms: N_39  and  S_40
REMARK                            x       y       z     vdW  Elec       q    Type
REMARK                         _______ _______ _______ _____ _____    ______ ____
ROOT
ATOM      1  C   UNL     1       9.525  -1.457  24.626  0.00  0.00    +0.269 C 
ATOM      2  C   UNL     1       8.743  -2.698  24.114  0.00  0.00    +0.162 C 
ATOM      3  C   UNL     1       7.530  -2.246  23.274  0.00  0.00    +0.169 C 
ATOM      4  C   UNL     1       6.697  -1.173  24.024  0.00  0.00    +0.184 C 
ATOM      5  C   UNL     1       7.598   0.026  24.389  0.00  0.00    +0.181 C 
ATOM      6  O   UNL     1       8.729  -0.417  25.161  0.00  0.00    -0.342 OA
ENDROOT
BRANCH   1   7
ATOM      7  O   UNL     1      10.354  -0.920  23.607  0.00  0.00    -0.366 OA
ATOM      8  H   UNL     1      10.103   0.023  23.603  0.00  0.00    +0.213 HD
ENDBRANCH   1   7
BRANCH   2   9
ATOM      9  N   UNL     1       8.357  -3.540  25.290  0.00  0.00    -0.193 NA
ATOM     10  H   UNL     1       7.339  -3.506  25.439  0.00  0.00    +0.147 HD
BRANCH   9  11
ATOM     11  S   UNL     1       8.825  -5.161  25.292  0.00  0.00    -0.016 S 
ATOM     12  O   UNL     1      10.200  -5.123  25.783  0.00  0.00    -0.169 OA
ATOM     13  O   UNL     1       8.682  -5.599  23.912  0.00  0.00    -0.169 OA
ATOM     14  O   UNL     1       7.874  -5.758  26.216  0.00  0.00    -0.710 OA
ENDBRANCH   9  11
ENDBRANCH   2   9
BRANCH   3  15
ATOM     15  O   UNL     1       7.929  -1.886  21.947  0.00  0.00    -0.387 OA
ATOM     16  H   UNL     1       8.586  -2.521  21.606  0.00  0.00    +0.210 HD
ENDBRANCH   3  15
BRANCH   4  17
ATOM     17  O   UNL     1       6.187  -1.848  25.228  0.00  0.00    -0.331 OA
BRANCH  17  18
ATOM     18  C   UNL     1       4.791  -2.286  25.176  0.00  0.00    +0.342 C 
ATOM     19  C   UNL     1       4.715  -3.837  25.387  0.00  0.00    +0.248 C 
ATOM     20  C   UNL     1       4.395  -4.223  26.851  0.00  0.00    +0.178 C 
ATOM     21  C   UNL     1       4.494  -3.107  27.816  0.00  0.00    +0.054 C 
ATOM     22  C   UNL     1       4.172  -1.863  27.434  0.00  0.00    +0.145 C 
ATOM     23  O   UNL     1       3.966  -1.557  26.093  0.00  0.00    -0.459 OA
BRANCH  22  24
ATOM     24  C   UNL     1       3.794  -0.800  28.527  0.00  0.00    +0.106 C 
ATOM     25  O   UNL     1       3.010   0.121  28.158  0.00  0.00    -0.542 OA
ATOM     26  O   UNL     1       4.287  -0.997  29.683  0.00  0.00    -0.542 OA
ENDBRANCH  22  24
BRANCH  20  27
ATOM     27  O   UNL     1       3.048  -4.681  27.052  0.00  0.00    -0.385 OA
ATOM     28  H   UNL     1       2.858  -5.283  26.300  0.00  0.00    +0.210 HD
ENDBRANCH  20  27
BRANCH  19  29
ATOM     29  O   UNL     1       3.781  -4.432  24.468  0.00  0.00    -0.242 OA
BRANCH  29  30
ATOM     30  S   UNL     1       4.358  -5.278  23.195  0.00  0.00    -0.000 S 
ATOM     31  O   UNL     1       5.390  -6.138  23.761  0.00  0.00    -0.345 OA
ATOM     32  O   UNL     1       4.849  -4.256  22.278  0.00  0.00    -0.345 OA
ATOM     33  O   UNL     1       3.190  -6.000  22.694  0.00  0.00    -0.268 OA
ENDBRANCH  29  30
ENDBRANCH  19  29
ENDBRANCH  17  18
ENDBRANCH   4  17
BRANCH   5  34
ATOM     34  C   UNL     1       8.013   0.993  23.265  0.00  0.00    +0.226 C 
BRANCH  34  35
ATOM     35  O   UNL     1       8.636   2.163  23.763  0.00  0.00    -0.252 OA
BRANCH  35  36
ATOM     36  S   UNL     1      10.177   2.439  23.293  0.00  0.00    -0.001 S 
ATOM     37  O   UNL     1      10.241   1.887  21.943  0.00  0.00    -0.345 OA
ATOM     38  O   UNL     1      10.977   1.711  24.276  0.00  0.00    -0.345 OA
ATOM     39  O   UNL     1      10.329   3.889  23.361  0.00  0.00    -0.268 OA
ENDBRANCH  35  36
ENDBRANCH  34  35
ENDBRANCH   5  34
TORSDOF 13
ENDMDL
