MODEL 1
REMARK VINA RESULT:      -6.5      0.000      0.000
REMARK  Name = 
REMARK  6 active torsions:
REMARK  status: ('A' for Active; 'I' for Inactive)
REMARK    1  A    between atoms: O_1  and  C_2
REMARK    2  A    between atoms: C_2  and  C_3
REMARK    3  A    between atoms: C_2  and  C_9
REMARK    4  A    between atoms: C_2  and  C_15
REMARK    5  A    between atoms: C_3  and  N_4
REMARK    6  A    between atoms: C_9  and  N_10
REMARK                            x       y       z     vdW  Elec       q    Type
REMARK                         _______ _______ _______ _____ _____    ______ ____
ROOT
ATOM      1  C   UNL     1       8.293  -2.674  23.743  0.00  0.00    +0.132 C 
ENDROOT
BRANCH   1   2
ATOM      2  C   UNL     1       9.033  -1.328  23.789  0.00  0.00    +0.023 A 
ATOM      3  C   UNL     1       9.286  -0.594  22.613  0.00  0.00    +0.012 A 
ATOM      4  C   UNL     1      10.032   0.588  22.646  0.00  0.00    +0.039 A 
ATOM      5  C   UNL     1      10.541   1.047  23.855  0.00  0.00    +0.126 A 
ATOM      6  F   UNL     1      11.288   2.158  23.878  0.00  0.00    -0.205 F 
ATOM      7  C   UNL     1      10.270   0.378  25.036  0.00  0.00    +0.077 A 
ATOM      8  C   UNL     1       9.495  -0.777  24.997  0.00  0.00    +0.132 A 
ATOM      9  F   UNL     1       9.168  -1.349  26.161  0.00  0.00    -0.205 F 
ENDBRANCH   1   2
BRANCH   1  10
ATOM     10  O   UNL     1       9.264  -3.701  24.064  0.00  0.00    -0.380 OA
ATOM     11  H   UNL     1      10.042  -3.553  23.477  0.00  0.00    +0.211 HD
ENDBRANCH   1  10
BRANCH   1  12
ATOM     12  C   UNL     1       7.117  -2.800  24.753  0.00  0.00    +0.186 C 
BRANCH  12  13
ATOM     13  N   UNL     1       7.146  -4.001  25.562  0.00  0.00    -0.249 N 
ATOM     14  N   UNL     1       8.033  -4.135  26.565  0.00  0.00    -0.158 NA
ATOM     15  C   UNL     1       7.665  -5.309  27.084  0.00  0.00    +0.244 A 
ATOM     16  N   UNL     1       6.588  -5.899  26.486  0.00  0.00    -0.223 NA
ATOM     17  C   UNL     1       6.277  -5.044  25.538  0.00  0.00    +0.219 A 
ENDBRANCH  12  13
ENDBRANCH   1  12
BRANCH   1  18
ATOM     18  C   UNL     1       7.803  -2.917  22.287  0.00  0.00    +0.186 C 
BRANCH  18  19
ATOM     19  N   UNL     1       7.009  -4.120  22.113  0.00  0.00    -0.249 N 
ATOM     20  N   UNL     1       7.585  -5.342  22.105  0.00  0.00    -0.158 NA
ATOM     21  C   UNL     1       6.514  -6.137  21.985  0.00  0.00    +0.244 A 
ATOM     22  N   UNL     1       5.321  -5.483  21.885  0.00  0.00    -0.223 NA
ATOM     23  C   UNL     1       5.663  -4.216  21.950  0.00  0.00    +0.219 A 
ENDBRANCH  18  19
ENDBRANCH   1  18
TORSDOF 6
ENDMDL
MODEL 2
REMARK VINA RESULT:      -6.4      1.375      3.271
REMARK  Name = 
REMARK  6 active torsions:
REMARK  status: ('A' for Active; 'I' for Inactive)
REMARK    1  A    between atoms: O_1  and  C_2
REMARK    2  A    between atoms: C_2  and  C_3
REMARK    3  A    between atoms: C_2  and  C_9
REMARK    4  A    between atoms: C_2  and  C_15
REMARK    5  A    between atoms: C_3  and  N_4
REMARK    6  A    between atoms: C_9  and  N_10
REMARK                            x       y       z     vdW  Elec       q    Type
REMARK                         _______ _______ _______ _____ _____    ______ ____
ROOT
ATOM      1  C   UNL     1       8.586  -1.905  23.511  0.00  0.00    +0.132 C 
ENDROOT
BRANCH   1   2
ATOM      2  C   UNL     1       9.209  -0.503  23.408  0.00  0.00    +0.023 A 
ATOM      3  C   UNL     1       9.263   0.182  22.177  0.00  0.00    +0.012 A 
ATOM      4  C   UNL     1       9.905   1.420  22.068  0.00  0.00    +0.039 A 
ATOM      5  C   UNL     1      10.508   1.982  23.186  0.00  0.00    +0.126 A 
ATOM      6  F   UNL     1      11.156   3.149  23.070  0.00  0.00    -0.205 F 
ATOM      7  C   UNL     1      10.431   1.361  24.420  0.00  0.00    +0.077 A 
ATOM      8  C   UNL     1       9.757   0.148  24.526  0.00  0.00    +0.132 A 
ATOM      9  F   UNL     1       9.615  -0.383  25.746  0.00  0.00    -0.205 F 
ENDBRANCH   1   2
BRANCH   1  10
ATOM     10  O   UNL     1       7.477  -1.807  24.440  0.00  0.00    -0.380 OA
ATOM     11  H   UNL     1       7.625  -0.995  24.977  0.00  0.00    +0.211 HD
ENDBRANCH   1  10
BRANCH   1  12
ATOM     12  C   UNL     1       8.034  -2.466  22.169  0.00  0.00    +0.186 C 
BRANCH  12  13
ATOM     13  N   UNL     1       6.923  -3.385  22.314  0.00  0.00    -0.249 N 
ATOM     14  N   UNL     1       5.690  -2.933  22.608  0.00  0.00    -0.158 NA
ATOM     15  C   UNL     1       4.981  -4.063  22.561  0.00  0.00    +0.244 A 
ATOM     16  N   UNL     1       5.689  -5.183  22.231  0.00  0.00    -0.223 NA
ATOM     17  C   UNL     1       6.908  -4.720  22.069  0.00  0.00    +0.219 A 
ENDBRANCH  12  13
ENDBRANCH   1  12
BRANCH   1  18
ATOM     18  C   UNL     1       9.641  -2.868  24.125  0.00  0.00    +0.186 C 
BRANCH  18  19
ATOM     19  N   UNL     1       9.098  -3.836  25.062  0.00  0.00    -0.249 N 
ATOM     20  N   UNL     1       8.728  -3.469  26.309  0.00  0.00    -0.158 NA
ATOM     21  C   UNL     1       8.243  -4.620  26.789  0.00  0.00    +0.244 A 
ATOM     22  N   UNL     1       8.321  -5.679  25.933  0.00  0.00    -0.223 NA
ATOM     23  C   UNL     1       8.879  -5.162  24.861  0.00  0.00    +0.219 A 
ENDBRANCH  18  19
ENDBRANCH   1  18
TORSDOF 6
ENDMDL
MODEL 3
REMARK VINA RESULT:      -6.4      1.735      3.734
REMARK  Name = 
REMARK  6 active torsions:
REMARK  status: ('A' for Active; 'I' for Inactive)
REMARK    1  A    between atoms: O_1  and  C_2
REMARK    2  A    between atoms: C_2  and  C_3
REMARK    3  A    between atoms: C_2  and  C_9
REMARK    4  A    between atoms: C_2  and  C_15
REMARK    5  A    between atoms: C_3  and  N_4
REMARK    6  A    between atoms: C_9  and  N_10
REMARK                            x       y       z     vdW  Elec       q    Type
REMARK                         _______ _______ _______ _____ _____    ______ ____
ROOT
ATOM      1  C   UNL     1       7.782  -2.969  24.284  0.00  0.00    +0.132 C 
ENDROOT
BRANCH   1   2
ATOM      2  C   UNL     1       8.391  -1.748  23.576  0.00  0.00    +0.023 A 
ATOM      3  C   UNL     1       7.607  -0.619  23.265  0.00  0.00    +0.012 A 
ATOM      4  C   UNL     1       8.141   0.455  22.546  0.00  0.00    +0.039 A 
ATOM      5  C   UNL     1       9.463   0.409  22.123  0.00  0.00    +0.126 A 
ATOM      6  F   UNL     1       9.961   1.421  21.400  0.00  0.00    -0.205 F 
ATOM      7  C   UNL     1      10.276  -0.661  22.452  0.00  0.00    +0.077 A 
ATOM      8  C   UNL     1       9.745  -1.708  23.201  0.00  0.00    +0.132 A 
ATOM      9  F   UNL     1      10.576  -2.683  23.588  0.00  0.00    -0.205 F 
ENDBRANCH   1   2
BRANCH   1  10
ATOM     10  O   UNL     1       6.348  -2.764  24.322  0.00  0.00    -0.380 OA
ATOM     11  H   UNL     1       6.151  -2.006  23.724  0.00  0.00    +0.211 HD
ENDBRANCH   1  10
BRANCH   1  12
ATOM     12  C   UNL     1       8.049  -4.327  23.575  0.00  0.00    +0.186 C 
BRANCH  12  13
ATOM     13  N   UNL     1       6.862  -4.986  23.072  0.00  0.00    -0.249 N 
ATOM     14  N   UNL     1       5.968  -5.533  23.917  0.00  0.00    -0.158 NA
ATOM     15  C   UNL     1       5.021  -5.939  23.068  0.00  0.00    +0.244 A 
ATOM     16  N   UNL     1       5.257  -5.655  21.752  0.00  0.00    -0.223 NA
ATOM     17  C   UNL     1       6.419  -5.044  21.790  0.00  0.00    +0.219 A 
ENDBRANCH  12  13
ENDBRANCH   1  12
BRANCH   1  18
ATOM     18  C   UNL     1       8.301  -2.996  25.751  0.00  0.00    +0.186 C 
BRANCH  18  19
ATOM     19  N   UNL     1       7.638  -3.967  26.604  0.00  0.00    -0.249 N 
ATOM     20  N   UNL     1       6.428  -3.709  27.147  0.00  0.00    -0.158 NA
ATOM     21  C   UNL     1       6.176  -4.858  27.785  0.00  0.00    +0.244 A 
ATOM     22  N   UNL     1       7.166  -5.792  27.701  0.00  0.00    -0.223 NA
ATOM     23  C   UNL     1       8.081  -5.199  26.967  0.00  0.00    +0.219 A 
ENDBRANCH  18  19
ENDBRANCH   1  18
TORSDOF 6
ENDMDL
MODEL 4
REMARK VINA RESULT:      -6.2      2.936      5.654
REMARK  Name = 
REMARK  6 active torsions:
REMARK  status: ('A' for Active; 'I' for Inactive)
REMARK    1  A    between atoms: O_1  and  C_2
REMARK    2  A    between atoms: C_2  and  C_3
REMARK    3  A    between atoms: C_2  and  C_9
REMARK    4  A    between atoms: C_2  and  C_15
REMARK    5  A    between atoms: C_3  and  N_4
REMARK    6  A    between atoms: C_9  and  N_10
REMARK                            x       y       z     vdW  Elec       q    Type
REMARK                         _______ _______ _______ _____ _____    ______ ____
ROOT
ATOM      1  C   UNL     1       7.398  -3.497  24.970  0.00  0.00    +0.132 C 
ENDROOT
BRANCH   1   2
ATOM      2  C   UNL     1       6.973  -4.179  23.660  0.00  0.00    +0.023 A 
ATOM      3  C   UNL     1       7.570  -5.384  23.238  0.00  0.00    +0.012 A 
ATOM      4  C   UNL     1       7.243  -5.959  22.006  0.00  0.00    +0.039 A 
ATOM      5  C   UNL     1       6.321  -5.331  21.177  0.00  0.00    +0.126 A 
ATOM      6  F   UNL     1       6.039  -5.863  19.980  0.00  0.00    -0.205 F 
ATOM      7  C   UNL     1       5.679  -4.173  21.581  0.00  0.00    +0.077 A 
ATOM      8  C   UNL     1       5.984  -3.630  22.825  0.00  0.00    +0.132 A 
ATOM      9  F   UNL     1       5.281  -2.567  23.231  0.00  0.00    -0.205 F 
ENDBRANCH   1   2
BRANCH   1  10
ATOM     10  O   UNL     1       8.483  -4.282  25.523  0.00  0.00    -0.380 OA
ATOM     11  H   UNL     1       8.676  -5.000  24.876  0.00  0.00    +0.211 HD
ENDBRANCH   1  10
BRANCH   1  12
ATOM     12  C   UNL     1       7.906  -2.036  24.803  0.00  0.00    +0.186 C 
BRANCH  12  13
ATOM     13  N   UNL     1       8.768  -1.828  23.657  0.00  0.00    -0.249 N 
ATOM     14  N   UNL     1       8.375  -1.049  22.632  0.00  0.00    -0.158 NA
ATOM     15  C   UNL     1       9.466  -1.059  21.864  0.00  0.00    +0.244 A 
ATOM     16  N   UNL     1      10.522  -1.772  22.358  0.00  0.00    -0.223 NA
ATOM     17  C   UNL     1      10.054  -2.233  23.496  0.00  0.00    +0.219 A 
ENDBRANCH  12  13
ENDBRANCH   1  12
BRANCH   1  18
ATOM     18  C   UNL     1       6.205  -3.560  25.967  0.00  0.00    +0.186 C 
BRANCH  18  19
ATOM     19  N   UNL     1       6.132  -4.788  26.739  0.00  0.00    -0.249 N 
ATOM     20  N   UNL     1       6.805  -4.921  27.904  0.00  0.00    -0.158 NA
ATOM     21  C   UNL     1       6.416  -6.141  28.293  0.00  0.00    +0.244 A 
ATOM     22  N   UNL     1       5.577  -6.781  27.429  0.00  0.00    -0.223 NA
ATOM     23  C   UNL     1       5.429  -5.915  26.452  0.00  0.00    +0.219 A 
ENDBRANCH  18  19
ENDBRANCH   1  18
TORSDOF 6
ENDMDL
MODEL 5
REMARK VINA RESULT:      -6.0      3.007      5.109
REMARK  Name = 
REMARK  6 active torsions:
REMARK  status: ('A' for Active; 'I' for Inactive)
REMARK    1  A    between atoms: O_1  and  C_2
REMARK    2  A    between atoms: C_2  and  C_3
REMARK    3  A    between atoms: C_2  and  C_9
REMARK    4  A    between atoms: C_2  and  C_15
REMARK    5  A    between atoms: C_3  and  N_4
REMARK    6  A    between atoms: C_9  and  N_10
REMARK                            x       y       z     vdW  Elec       q    Type
REMARK                         _______ _______ _______ _____ _____    ______ ____
ROOT
ATOM      1  C   UNL     1       8.331  -3.013  24.564  0.00  0.00    +0.132 C 
ENDROOT
BRANCH   1   2
ATOM      2  C   UNL     1       7.655  -3.849  23.465  0.00  0.00    +0.023 A 
ATOM      3  C   UNL     1       6.719  -3.272  22.583  0.00  0.00    +0.012 A 
ATOM      4  C   UNL     1       6.042  -4.052  21.639  0.00  0.00    +0.039 A 
ATOM      5  C   UNL     1       6.287  -5.418  21.573  0.00  0.00    +0.126 A 
ATOM      6  F   UNL     1       5.608  -6.169  20.695  0.00  0.00    -0.205 F 
ATOM      7  C   UNL     1       7.234  -6.008  22.390  0.00  0.00    +0.077 A 
ATOM      8  C   UNL     1       7.930  -5.217  23.299  0.00  0.00    +0.132 A 
ATOM      9  F   UNL     1       8.907  -5.793  24.009  0.00  0.00    -0.205 F 
ENDBRANCH   1   2
BRANCH   1  10
ATOM     10  O   UNL     1       7.571  -1.786  24.690  0.00  0.00    -0.380 OA
ATOM     11  H   UNL     1       7.106  -1.647  23.832  0.00  0.00    +0.211 HD
ENDBRANCH   1  10
BRANCH   1  12
ATOM     12  C   UNL     1       8.370  -3.694  25.962  0.00  0.00    +0.186 C 
BRANCH  12  13
ATOM     13  N   UNL     1       7.067  -3.957  26.538  0.00  0.00    -0.249 N 
ATOM     14  N   UNL     1       6.241  -2.946  26.865  0.00  0.00    -0.158 NA
ATOM     15  C   UNL     1       5.157  -3.614  27.263  0.00  0.00    +0.244 A 
ATOM     16  N   UNL     1       5.245  -4.974  27.179  0.00  0.00    -0.223 NA
ATOM     17  C   UNL     1       6.457  -5.159  26.706  0.00  0.00    +0.219 A 
ENDBRANCH  12  13
ENDBRANCH   1  12
BRANCH   1  18
ATOM     18  C   UNL     1       9.764  -2.641  24.086  0.00  0.00    +0.186 C 
BRANCH  18  19
ATOM     19  N   UNL     1       9.851  -1.379  23.373  0.00  0.00    -0.249 N 
ATOM     20  N   UNL     1      10.048  -0.216  24.033  0.00  0.00    -0.158 NA
ATOM     21  C   UNL     1      10.123   0.653  23.018  0.00  0.00    +0.244 A 
ATOM     22  N   UNL     1       9.952   0.107  21.780  0.00  0.00    -0.223 NA
ATOM     23  C   UNL     1       9.765  -1.169  22.034  0.00  0.00    +0.219 A 
ENDBRANCH  18  19
ENDBRANCH   1  18
TORSDOF 6
ENDMDL
MODEL 6
REMARK VINA RESULT:      -5.8      2.310      3.802
REMARK  Name = 
REMARK  6 active torsions:
REMARK  status: ('A' for Active; 'I' for Inactive)
REMARK    1  A    between atoms: O_1  and  C_2
REMARK    2  A    between atoms: C_2  and  C_3
REMARK    3  A    between atoms: C_2  and  C_9
REMARK    4  A    between atoms: C_2  and  C_15
REMARK    5  A    between atoms: C_3  and  N_4
REMARK    6  A    between atoms: C_9  and  N_10
REMARK                            x       y       z     vdW  Elec       q    Type
REMARK                         _______ _______ _______ _____ _____    ______ ____
ROOT
ATOM      1  C   UNL     1       7.877  -1.363  23.384  0.00  0.00    +0.132 C 
ENDROOT
BRANCH   1   2
ATOM      2  C   UNL     1       8.784  -0.124  23.311  0.00  0.00    +0.023 A 
ATOM      3  C   UNL     1       9.154   0.578  24.475  0.00  0.00    +0.012 A 
ATOM      4  C   UNL     1       9.909   1.753  24.400  0.00  0.00    +0.039 A 
ATOM      5  C   UNL     1      10.296   2.244  23.159  0.00  0.00    +0.126 A 
ATOM      6  F   UNL     1      10.985   3.391  23.087  0.00  0.00    -0.205 F 
ATOM      7  C   UNL     1       9.992   1.554  21.999  0.00  0.00    +0.077 A 
ATOM      8  C   UNL     1       9.273   0.366  22.088  0.00  0.00    +0.132 A 
ATOM      9  F   UNL     1       9.077  -0.330  20.962  0.00  0.00    -0.205 F 
ENDBRANCH   1   2
BRANCH   1  10
ATOM     10  O   UNL     1       6.608  -0.993  22.790  0.00  0.00    -0.380 OA
ATOM     11  H   UNL     1       6.748  -0.137  22.324  0.00  0.00    +0.211 HD
ENDBRANCH   1  10
BRANCH   1  12
ATOM     12  C   UNL     1       8.417  -2.604  22.617  0.00  0.00    +0.186 C 
BRANCH  12  13
ATOM     13  N   UNL     1       7.496  -3.720  22.556  0.00  0.00    -0.249 N 
ATOM     14  N   UNL     1       6.412  -3.675  21.759  0.00  0.00    -0.158 NA
ATOM     15  C   UNL     1       5.908  -4.899  21.936  0.00  0.00    +0.244 A 
ATOM     16  N   UNL     1       6.624  -5.710  22.770  0.00  0.00    -0.223 NA
ATOM     17  C   UNL     1       7.625  -4.942  23.134  0.00  0.00    +0.219 A 
ENDBRANCH  12  13
ENDBRANCH   1  12
BRANCH   1  18
ATOM     18  C   UNL     1       7.625  -1.700  24.881  0.00  0.00    +0.186 C 
BRANCH  18  19
ATOM     19  N   UNL     1       6.227  -1.687  25.273  0.00  0.00    -0.249 N 
ATOM     20  N   UNL     1       5.430  -2.757  25.055  0.00  0.00    -0.158 NA
ATOM     21  C   UNL     1       4.283  -2.347  25.608  0.00  0.00    +0.244 A 
ATOM     22  N   UNL     1       4.310  -1.083  26.121  0.00  0.00    -0.223 NA
ATOM     23  C   UNL     1       5.539  -0.685  25.881  0.00  0.00    +0.219 A 
ENDBRANCH  18  19
ENDBRANCH   1  18
TORSDOF 6
ENDMDL
MODEL 7
REMARK VINA RESULT:      -5.8      3.252      5.984
REMARK  Name = 
REMARK  6 active torsions:
REMARK  status: ('A' for Active; 'I' for Inactive)
REMARK    1  A    between atoms: O_1  and  C_2
REMARK    2  A    between atoms: C_2  and  C_3
REMARK    3  A    between atoms: C_2  and  C_9
REMARK    4  A    between atoms: C_2  and  C_15
REMARK    5  A    between atoms: C_3  and  N_4
REMARK    6  A    between atoms: C_9  and  N_10
REMARK                            x       y       z     vdW  Elec       q    Type
REMARK                         _______ _______ _______ _____ _____    ______ ____
ROOT
ATOM      1  C   UNL     1       7.888  -1.853  23.216  0.00  0.00    +0.132 C 
ENDROOT
BRANCH   1   2
ATOM      2  C   UNL     1       6.808  -2.945  23.148  0.00  0.00    +0.023 A 
ATOM      3  C   UNL     1       6.998  -4.111  22.380  0.00  0.00    +0.012 A 
ATOM      4  C   UNL     1       5.982  -5.064  22.251  0.00  0.00    +0.039 A 
ATOM      5  C   UNL     1       4.762  -4.858  22.883  0.00  0.00    +0.126 A 
ATOM      6  F   UNL     1       3.778  -5.753  22.726  0.00  0.00    -0.205 F 
ATOM      7  C   UNL     1       4.558  -3.749  23.685  0.00  0.00    +0.077 A 
ATOM      8  C   UNL     1       5.589  -2.826  23.837  0.00  0.00    +0.132 A 
ATOM      9  F   UNL     1       5.400  -1.815  24.693  0.00  0.00    -0.205 F 
ENDBRANCH   1   2
BRANCH   1  10
ATOM     10  O   UNL     1       8.946  -2.248  22.308  0.00  0.00    -0.380 OA
ATOM     11  H   UNL     1       8.566  -2.228  21.400  0.00  0.00    +0.211 HD
ENDBRANCH   1  10
BRANCH   1  12
ATOM     12  C   UNL     1       7.402  -0.437  22.792  0.00  0.00    +0.186 C 
BRANCH  12  13
ATOM     13  N   UNL     1       8.447   0.563  22.731  0.00  0.00    -0.249 N 
ATOM     14  N   UNL     1       9.313   0.592  21.700  0.00  0.00    -0.158 NA
ATOM     15  C   UNL     1      10.023   1.685  21.988  0.00  0.00    +0.244 A 
ATOM     16  N   UNL     1       9.637   2.353  23.116  0.00  0.00    -0.223 NA
ATOM     17  C   UNL     1       8.634   1.627  23.554  0.00  0.00    +0.219 A 
ENDBRANCH  12  13
ENDBRANCH   1  12
BRANCH   1  18
ATOM     18  C   UNL     1       8.475  -1.831  24.656  0.00  0.00    +0.186 C 
BRANCH  18  19
ATOM     19  N   UNL     1       8.821  -3.139  25.184  0.00  0.00    -0.249 N 
ATOM     20  N   UNL     1       9.746  -3.915  24.577  0.00  0.00    -0.158 NA
ATOM     21  C   UNL     1       9.792  -4.966  25.406  0.00  0.00    +0.244 A 
ATOM     22  N   UNL     1       8.931  -4.904  26.462  0.00  0.00    -0.223 NA
ATOM     23  C   UNL     1       8.320  -3.753  26.288  0.00  0.00    +0.219 A 
ENDBRANCH  18  19
ENDBRANCH   1  18
TORSDOF 6
ENDMDL
MODEL 8
REMARK VINA RESULT:      -5.7      2.385      4.013
REMARK  Name = 
REMARK  6 active torsions:
REMARK  status: ('A' for Active; 'I' for Inactive)
REMARK    1  A    between atoms: O_1  and  C_2
REMARK    2  A    between atoms: C_2  and  C_3
REMARK    3  A    between atoms: C_2  and  C_9
REMARK    4  A    between atoms: C_2  and  C_15
REMARK    5  A    between atoms: C_3  and  N_4
REMARK    6  A    between atoms: C_9  and  N_10
REMARK                            x       y       z     vdW  Elec       q    Type
REMARK                         _______ _______ _______ _____ _____    ______ ____
ROOT
ATOM      1  C   UNL     1       8.264  -1.759  24.859  0.00  0.00    +0.132 C 
ENDROOT
BRANCH   1   2
ATOM      2  C   UNL     1       8.987  -0.716  23.991  0.00  0.00    +0.023 A 
ATOM      3  C   UNL     1       9.710   0.343  24.575  0.00  0.00    +0.012 A 
ATOM      4  C   UNL     1      10.296   1.337  23.785  0.00  0.00    +0.039 A 
ATOM      5  C   UNL     1      10.159   1.289  22.404  0.00  0.00    +0.126 A 
ATOM      6  F   UNL     1      10.688   2.264  21.653  0.00  0.00    -0.205 F 
ATOM      7  C   UNL     1       9.498   0.237  21.795  0.00  0.00    +0.077 A 
ATOM      8  C   UNL     1       8.951  -0.767  22.587  0.00  0.00    +0.132 A 
ATOM      9  F   UNL     1       8.401  -1.820  21.970  0.00  0.00    -0.205 F 
ENDBRANCH   1   2
BRANCH   1  10
ATOM     10  O   UNL     1       6.872  -1.754  24.455  0.00  0.00    -0.380 OA
ATOM     11  H   UNL     1       6.844  -2.066  23.521  0.00  0.00    +0.211 HD
ENDBRANCH   1  10
BRANCH   1  12
ATOM     12  C   UNL     1       8.798  -3.211  24.703  0.00  0.00    +0.186 C 
BRANCH  12  13
ATOM     13  N   UNL     1       8.058  -4.207  25.451  0.00  0.00    -0.249 N 
ATOM     14  N   UNL     1       6.860  -4.642  25.019  0.00  0.00    -0.158 NA
ATOM     15  C   UNL     1       6.584  -5.584  25.924  0.00  0.00    +0.244 A 
ATOM     16  N   UNL     1       7.546  -5.781  26.874  0.00  0.00    -0.223 NA
ATOM     17  C   UNL     1       8.467  -4.907  26.541  0.00  0.00    +0.219 A 
ENDBRANCH  12  13
ENDBRANCH   1  12
BRANCH   1  18
ATOM     18  C   UNL     1       8.333  -1.297  26.343  0.00  0.00    +0.186 C 
BRANCH  18  19
ATOM     19  N   UNL     1       7.066  -0.849  26.893  0.00  0.00    -0.249 N 
ATOM     20  N   UNL     1       6.065  -1.723  27.143  0.00  0.00    -0.158 NA
ATOM     21  C   UNL     1       5.142  -0.918  27.681  0.00  0.00    +0.244 A 
ATOM     22  N   UNL     1       5.494   0.398  27.747  0.00  0.00    -0.223 NA
ATOM     23  C   UNL     1       6.701   0.416  27.228  0.00  0.00    +0.219 A 
ENDBRANCH  18  19
ENDBRANCH   1  18
TORSDOF 6
ENDMDL
MODEL 9
REMARK VINA RESULT:      -5.7      3.251      5.887
REMARK  Name = 
REMARK  6 active torsions:
REMARK  status: ('A' for Active; 'I' for Inactive)
REMARK    1  A    between atoms: O_1  and  C_2
REMARK    2  A    between atoms: C_2  and  C_3
REMARK    3  A    between atoms: C_2  and  C_9
REMARK    4  A    between atoms: C_2  and  C_15
REMARK    5  A    between atoms: C_3  and  N_4
REMARK    6  A    between atoms: C_9  and  N_10
REMARK                            x       y       z     vdW  Elec       q    Type
REMARK                         _______ _______ _______ _____ _____    ______ ____
ROOT
ATOM      1  C   UNL     1       7.425  -4.650  26.154  0.00  0.00    +0.132 C 
ENDROOT
BRANCH   1   2
ATOM      2  C   UNL     1       6.999  -4.900  24.698  0.00  0.00    +0.023 A 
ATOM      3  C   UNL     1       5.700  -4.581  24.254  0.00  0.00    +0.012 A 
ATOM      4  C   UNL     1       5.288  -4.886  22.952  0.00  0.00    +0.039 A 
ATOM      5  C   UNL     1       6.166  -5.521  22.083  0.00  0.00    +0.126 A 
ATOM      6  F   UNL     1       5.756  -5.847  20.851  0.00  0.00    -0.205 F 
ATOM      7  C   UNL     1       7.464  -5.803  22.470  0.00  0.00    +0.077 A 
ATOM      8  C   UNL     1       7.877  -5.461  23.754  0.00  0.00    +0.132 A 
ATOM      9  F   UNL     1       9.162  -5.657  24.071  0.00  0.00    -0.205 F 
ENDBRANCH   1   2
BRANCH   1  10
ATOM     10  O   UNL     1       8.042  -5.872  26.629  0.00  0.00    -0.380 OA
ATOM     11  H   UNL     1       8.454  -5.665  27.500  0.00  0.00    +0.211 HD
ENDBRANCH   1  10
BRANCH   1  12
ATOM     12  C   UNL     1       8.453  -3.497  26.337  0.00  0.00    +0.186 C 
BRANCH  12  13
ATOM     13  N   UNL     1       8.389  -2.468  25.319  0.00  0.00    -0.249 N 
ATOM     14  N   UNL     1       7.414  -1.540  25.339  0.00  0.00    -0.158 NA
ATOM     15  C   UNL     1       7.772  -0.765  24.313  0.00  0.00    +0.244 A 
ATOM     16  N   UNL     1       8.922  -1.135  23.675  0.00  0.00    -0.223 NA
ATOM     17  C   UNL     1       9.293  -2.205  24.341  0.00  0.00    +0.219 A 
ENDBRANCH  12  13
ENDBRANCH   1  12
BRANCH   1  18
ATOM     18  C   UNL     1       6.147  -4.396  27.003  0.00  0.00    +0.186 C 
BRANCH  18  19
ATOM     19  N   UNL     1       5.825  -5.462  27.936  0.00  0.00    -0.249 N 
ATOM     20  N   UNL     1       6.472  -5.577  29.117  0.00  0.00    -0.158 NA
ATOM     21  C   UNL     1       5.837  -6.620  29.664  0.00  0.00    +0.244 A 
ATOM     22  N   UNL     1       4.865  -7.176  28.885  0.00  0.00    -0.223 NA
ATOM     23  C   UNL     1       4.891  -6.440  27.797  0.00  0.00    +0.219 A 
ENDBRANCH  18  19
ENDBRANCH   1  18
TORSDOF 6
ENDMDL
