MODEL 1
REMARK VINA RESULT:      -7.4      0.000      0.000
REMARK  Name = 
REMARK  2 active torsions:
REMARK  status: ('A' for Active; 'I' for Inactive)
REMARK    1  A    between atoms: C_1  and  C_2
REMARK    2  A    between atoms: C_8  and  C_9
REMARK                            x       y       z     vdW  Elec       q    Type
REMARK                         _______ _______ _______ _____ _____    ______ ____
ROOT
ATOM      1  C   UNL     1       3.553  -4.969  26.745  0.00  0.00    +0.088 C 
ATOM      2  C   UNL     1       4.973  -5.160  27.117  0.00  0.00    +0.135 A 
ATOM      3  N   UNL     1       6.059  -5.163  26.252  0.00  0.00    -0.281 N 
ATOM      4  C   UNL     1       7.155  -5.139  27.087  0.00  0.00    +0.159 A 
ATOM      5  C   UNL     1       8.542  -5.133  26.582  0.00  0.00    +0.218 C 
ATOM      6  N   UNL     1       8.776  -3.936  25.791  0.00  0.00    -0.275 NA
ATOM      7  C   UNL     1       8.189  -3.755  24.660  0.00  0.00    +0.077 C 
ATOM      8  C   UNL     1       7.159  -4.697  24.082  0.00  0.00    +0.026 A 
ATOM      9  C   UNL     1       7.200  -4.911  22.690  0.00  0.00    +0.032 A 
ATOM     10  C   UNL     1       6.179  -5.609  22.050  0.00  0.00    +0.042 A 
ATOM     11 CL   UNL     1       6.201  -5.779  20.340  0.00  0.00    -0.084 Cl
ATOM     12  C   UNL     1       5.131  -6.147  22.785  0.00  0.00    +0.022 A 
ATOM     13  C   UNL     1       5.101  -5.988  24.172  0.00  0.00    +0.028 A 
ATOM     14  N   UNL     1       6.769  -5.212  28.342  0.00  0.00    -0.132 NA
ATOM     15  C   UNL     1       6.103  -5.256  24.834  0.00  0.00    +0.059 A 
ATOM     16  N   UNL     1       5.406  -5.226  28.361  0.00  0.00    -0.134 NA
ENDROOT
BRANCH   7  17
ATOM     17  C   UNL     1       8.538  -2.511  23.883  0.00  0.00    +0.019 A 
ATOM     18  C   UNL     1       7.619  -1.470  23.652  0.00  0.00    +0.050 A 
ATOM     19 CL   UNL     1       5.991  -1.465  24.235  0.00  0.00    -0.083 Cl
ATOM     20  C   UNL     1       8.025  -0.316  22.965  0.00  0.00    +0.020 A 
ATOM     21  C   UNL     1       9.339  -0.177  22.520  0.00  0.00    +0.001 A 
ATOM     22  C   UNL     1      10.250  -1.206  22.725  0.00  0.00    +0.001 A 
ATOM     23  C   UNL     1       9.848  -2.374  23.377  0.00  0.00    +0.011 A 
ENDBRANCH   7  17
TORSDOF 1
ENDMDL
MODEL 2
REMARK VINA RESULT:      -6.8      3.355      6.303
REMARK  Name = 
REMARK  2 active torsions:
REMARK  status: ('A' for Active; 'I' for Inactive)
REMARK    1  A    between atoms: C_1  and  C_2
REMARK    2  A    between atoms: C_8  and  C_9
REMARK                            x       y       z     vdW  Elec       q    Type
REMARK                         _______ _______ _______ _____ _____    ______ ____
ROOT
ATOM      1  C   UNL     1       6.841   2.528  22.061  0.00  0.00    +0.088 C 
ATOM      2  C   UNL     1       8.091   1.808  22.394  0.00  0.00    +0.135 A 
ATOM      3  N   UNL     1       8.195   0.631  23.121  0.00  0.00    -0.281 N 
ATOM      4  C   UNL     1       9.509   0.248  22.957  0.00  0.00    +0.159 A 
ATOM      5  C   UNL     1      10.066  -0.973  23.570  0.00  0.00    +0.218 C 
ATOM      6  N   UNL     1       9.376  -2.145  23.057  0.00  0.00    -0.275 NA
ATOM      7  C   UNL     1       8.140  -2.370  23.337  0.00  0.00    +0.077 C 
ATOM      8  C   UNL     1       7.270  -1.430  24.138  0.00  0.00    +0.026 A 
ATOM      9  C   UNL     1       6.358  -2.016  25.039  0.00  0.00    +0.032 A 
ATOM     10  C   UNL     1       5.392  -1.239  25.675  0.00  0.00    +0.042 A 
ATOM     11 CL   UNL     1       4.231  -1.987  26.697  0.00  0.00    -0.084 Cl
ATOM     12  C   UNL     1       5.348   0.133  25.466  0.00  0.00    +0.022 A 
ATOM     13  C   UNL     1       6.278   0.737  24.616  0.00  0.00    +0.028 A 
ATOM     14  N   UNL     1      10.164   1.161  22.272  0.00  0.00    -0.132 NA
ATOM     15  C   UNL     1       7.238  -0.033  23.936  0.00  0.00    +0.059 A 
ATOM     16  N   UNL     1       9.277   2.136  21.921  0.00  0.00    -0.134 NA
ENDROOT
BRANCH   7  17
ATOM     17  C   UNL     1       7.524  -3.641  22.810  0.00  0.00    +0.019 A 
ATOM     18  C   UNL     1       7.801  -4.909  23.355  0.00  0.00    +0.050 A 
ATOM     19 CL   UNL     1       8.856  -5.179  24.698  0.00  0.00    -0.083 Cl
ATOM     20  C   UNL     1       7.153  -6.046  22.850  0.00  0.00    +0.020 A 
ATOM     21  C   UNL     1       6.219  -5.936  21.820  0.00  0.00    +0.001 A 
ATOM     22  C   UNL     1       5.952  -4.692  21.261  0.00  0.00    +0.001 A 
ATOM     23  C   UNL     1       6.617  -3.558  21.732  0.00  0.00    +0.011 A 
ENDBRANCH   7  17
TORSDOF 1
ENDMDL
MODEL 3
REMARK VINA RESULT:      -6.6      2.934      4.495
REMARK  Name = 
REMARK  2 active torsions:
REMARK  status: ('A' for Active; 'I' for Inactive)
REMARK    1  A    between atoms: C_1  and  C_2
REMARK    2  A    between atoms: C_8  and  C_9
REMARK                            x       y       z     vdW  Elec       q    Type
REMARK                         _______ _______ _______ _____ _____    ______ ____
ROOT
ATOM      1  C   UNL     1       7.513  -4.601  26.960  0.00  0.00    +0.088 C 
ATOM      2  C   UNL     1       7.456  -4.612  25.481  0.00  0.00    +0.135 A 
ATOM      3  N   UNL     1       7.152  -3.535  24.660  0.00  0.00    -0.281 N 
ATOM      4  C   UNL     1       7.457  -3.980  23.392  0.00  0.00    +0.159 A 
ATOM      5  C   UNL     1       7.284  -3.142  22.190  0.00  0.00    +0.218 C 
ATOM      6  N   UNL     1       8.135  -1.967  22.278  0.00  0.00    -0.275 NA
ATOM      7  C   UNL     1       7.918  -1.047  23.151  0.00  0.00    +0.077 C 
ATOM      8  C   UNL     1       6.839  -1.119  24.206  0.00  0.00    +0.026 A 
ATOM      9  C   UNL     1       6.159   0.077  24.506  0.00  0.00    +0.032 A 
ATOM     10  C   UNL     1       5.287   0.144  25.590  0.00  0.00    +0.042 A 
ATOM     11 CL   UNL     1       4.539   1.637  25.996  0.00  0.00    -0.084 Cl
ATOM     12  C   UNL     1       5.039  -0.985  26.360  0.00  0.00    +0.022 A 
ATOM     13  C   UNL     1       5.666  -2.193  26.044  0.00  0.00    +0.028 A 
ATOM     14  N   UNL     1       7.822  -5.243  23.432  0.00  0.00    -0.132 NA
ATOM     15  C   UNL     1       6.577  -2.273  24.977  0.00  0.00    +0.059 A 
ATOM     16  N   UNL     1       7.821  -5.638  24.737  0.00  0.00    -0.134 NA
ENDROOT
BRANCH   7  17
ATOM     17  C   UNL     1       8.817   0.163  23.129  0.00  0.00    +0.019 A 
ATOM     18  C   UNL     1       9.590   0.563  24.236  0.00  0.00    +0.050 A 
ATOM     19 CL   UNL     1       9.629  -0.278  25.747  0.00  0.00    -0.083 Cl
ATOM     20  C   UNL     1      10.446   1.669  24.132  0.00  0.00    +0.020 A 
ATOM     21  C   UNL     1      10.556   2.374  22.934  0.00  0.00    +0.001 A 
ATOM     22  C   UNL     1       9.784   2.001  21.840  0.00  0.00    +0.001 A 
ATOM     23  C   UNL     1       8.903   0.922  21.943  0.00  0.00    +0.011 A 
ENDBRANCH   7  17
TORSDOF 1
ENDMDL
MODEL 4
REMARK VINA RESULT:      -6.6      2.520      6.198
REMARK  Name = 
REMARK  2 active torsions:
REMARK  status: ('A' for Active; 'I' for Inactive)
REMARK    1  A    between atoms: C_1  and  C_2
REMARK    2  A    between atoms: C_8  and  C_9
REMARK                            x       y       z     vdW  Elec       q    Type
REMARK                         _______ _______ _______ _____ _____    ______ ____
ROOT
ATOM      1  C   UNL     1       8.117   1.066  22.022  0.00  0.00    +0.088 C 
ATOM      2  C   UNL     1       8.984  -0.062  22.431  0.00  0.00    +0.135 A 
ATOM      3  N   UNL     1       8.736  -0.963  23.458  0.00  0.00    -0.281 N 
ATOM      4  C   UNL     1       9.694  -1.939  23.288  0.00  0.00    +0.159 A 
ATOM      5  C   UNL     1       9.801  -3.113  24.176  0.00  0.00    +0.218 C 
ATOM      6  N   UNL     1       8.586  -3.907  24.097  0.00  0.00    -0.275 NA
ATOM      7  C   UNL     1       7.465  -3.463  24.547  0.00  0.00    +0.077 C 
ATOM      8  C   UNL     1       7.273  -2.077  25.117  0.00  0.00    +0.026 A 
ATOM      9  C   UNL     1       6.420  -1.958  26.232  0.00  0.00    +0.032 A 
ATOM     10  C   UNL     1       6.038  -0.703  26.702  0.00  0.00    +0.042 A 
ATOM     11 CL   UNL     1       4.923  -0.581  28.004  0.00  0.00    -0.084 Cl
ATOM     12  C   UNL     1       6.534   0.448  26.106  0.00  0.00    +0.022 A 
ATOM     13  C   UNL     1       7.421   0.348  25.031  0.00  0.00    +0.028 A 
ATOM     14  N   UNL     1      10.506  -1.611  22.307  0.00  0.00    -0.132 NA
ATOM     15  C   UNL     1       7.791  -0.907  24.518  0.00  0.00    +0.059 A 
ATOM     16  N   UNL     1      10.063  -0.437  21.772  0.00  0.00    -0.134 NA
ENDROOT
BRANCH   7  17
ATOM     17  C   UNL     1       6.270  -4.379  24.476  0.00  0.00    +0.019 A 
ATOM     18  C   UNL     1       5.295  -4.288  23.464  0.00  0.00    +0.050 A 
ATOM     19 CL   UNL     1       5.342  -3.139  22.172  0.00  0.00    -0.083 Cl
ATOM     20  C   UNL     1       4.236  -5.206  23.427  0.00  0.00    +0.020 A 
ATOM     21  C   UNL     1       4.143  -6.227  24.372  0.00  0.00    +0.001 A 
ATOM     22  C   UNL     1       5.089  -6.316  25.387  0.00  0.00    +0.001 A 
ATOM     23  C   UNL     1       6.129  -5.385  25.455  0.00  0.00    +0.011 A 
ENDBRANCH   7  17
TORSDOF 1
ENDMDL
MODEL 5
REMARK VINA RESULT:      -6.5      3.278      6.830
REMARK  Name = 
REMARK  2 active torsions:
REMARK  status: ('A' for Active; 'I' for Inactive)
REMARK    1  A    between atoms: C_1  and  C_2
REMARK    2  A    between atoms: C_8  and  C_9
REMARK                            x       y       z     vdW  Elec       q    Type
REMARK                         _______ _______ _______ _____ _____    ______ ____
ROOT
ATOM      1  C   UNL     1       6.695   2.225  22.237  0.00  0.00    +0.088 C 
ATOM      2  C   UNL     1       7.991   1.512  22.323  0.00  0.00    +0.135 A 
ATOM      3  N   UNL     1       8.461   0.785  23.408  0.00  0.00    -0.281 N 
ATOM      4  C   UNL     1       9.575   0.136  22.921  0.00  0.00    +0.159 A 
ATOM      5  C   UNL     1      10.399  -0.763  23.751  0.00  0.00    +0.218 C 
ATOM      6  N   UNL     1       9.602  -1.892  24.202  0.00  0.00    -0.275 NA
ATOM      7  C   UNL     1       8.635  -1.738  25.038  0.00  0.00    +0.077 C 
ATOM      8  C   UNL     1       8.180  -0.398  25.566  0.00  0.00    +0.026 A 
ATOM      9  C   UNL     1       7.798  -0.342  26.921  0.00  0.00    +0.032 A 
ATOM     10  C   UNL     1       7.190   0.799  27.440  0.00  0.00    +0.042 A 
ATOM     11 CL   UNL     1       6.646   0.811  29.070  0.00  0.00    -0.084 Cl
ATOM     12  C   UNL     1       6.999   1.916  26.639  0.00  0.00    +0.022 A 
ATOM     13  C   UNL     1       7.419   1.896  25.306  0.00  0.00    +0.028 A 
ATOM     14  N   UNL     1       9.811   0.511  21.683  0.00  0.00    -0.132 NA
ATOM     15  C   UNL     1       8.002   0.743  24.753  0.00  0.00    +0.059 A 
ATOM     16  N   UNL     1       8.822   1.371  21.310  0.00  0.00    -0.134 NA
ENDROOT
BRANCH   7  17
ATOM     17  C   UNL     1       7.902  -2.974  25.494  0.00  0.00    +0.019 A 
ATOM     18  C   UNL     1       6.621  -3.321  25.022  0.00  0.00    +0.050 A 
ATOM     19 CL   UNL     1       5.733  -2.400  23.858  0.00  0.00    -0.083 Cl
ATOM     20  C   UNL     1       6.016  -4.512  25.448  0.00  0.00    +0.020 A 
ATOM     21  C   UNL     1       6.677  -5.373  26.324  0.00  0.00    +0.001 A 
ATOM     22  C   UNL     1       7.933  -5.032  26.811  0.00  0.00    +0.001 A 
ATOM     23  C   UNL     1       8.530  -3.831  26.421  0.00  0.00    +0.011 A 
ENDBRANCH   7  17
TORSDOF 1
ENDMDL
MODEL 6
REMARK VINA RESULT:      -6.4      2.396      3.910
REMARK  Name = 
REMARK  2 active torsions:
REMARK  status: ('A' for Active; 'I' for Inactive)
REMARK    1  A    between atoms: C_1  and  C_2
REMARK    2  A    between atoms: C_8  and  C_9
REMARK                            x       y       z     vdW  Elec       q    Type
REMARK                         _______ _______ _______ _____ _____    ______ ____
ROOT
ATOM      1  C   UNL     1       5.056  -6.390  27.615  0.00  0.00    +0.088 C 
ATOM      2  C   UNL     1       4.777  -6.398  26.161  0.00  0.00    +0.135 A 
ATOM      3  N   UNL     1       4.869  -5.315  25.298  0.00  0.00    -0.281 N 
ATOM      4  C   UNL     1       4.746  -5.871  24.043  0.00  0.00    +0.159 A 
ATOM      5  C   UNL     1       4.787  -5.067  22.807  0.00  0.00    +0.218 C 
ATOM      6  N   UNL     1       6.077  -4.410  22.686  0.00  0.00    -0.275 NA
ATOM      7  C   UNL     1       6.433  -3.478  23.500  0.00  0.00    +0.077 C 
ATOM      8  C   UNL     1       5.610  -3.032  24.686  0.00  0.00    +0.026 A 
ATOM      9  C   UNL     1       5.594  -1.651  24.969  0.00  0.00    +0.032 A 
ATOM     10  C   UNL     1       5.021  -1.176  26.146  0.00  0.00    +0.042 A 
ATOM     11 CL   UNL     1       5.095   0.501  26.516  0.00  0.00    -0.084 Cl
ATOM     12  C   UNL     1       4.412  -2.053  27.032  0.00  0.00    +0.022 A 
ATOM     13  C   UNL     1       4.373  -3.420  26.742  0.00  0.00    +0.028 A 
ATOM     14  N   UNL     1       4.505  -7.161  24.143  0.00  0.00    -0.132 NA
ATOM     15  C   UNL     1       4.977  -3.925  25.578  0.00  0.00    +0.059 A 
ATOM     16  N   UNL     1       4.524  -7.489  25.466  0.00  0.00    -0.134 NA
ENDROOT
BRANCH   7  17
ATOM     17  C   UNL     1       7.765  -2.812  23.262  0.00  0.00    +0.019 A 
ATOM     18  C   UNL     1       8.889  -3.037  24.079  0.00  0.00    +0.050 A 
ATOM     19 CL   UNL     1       8.903  -4.106  25.439  0.00  0.00    -0.083 Cl
ATOM     20  C   UNL     1      10.113  -2.426  23.771  0.00  0.00    +0.020 A 
ATOM     21  C   UNL     1      10.239  -1.607  22.649  0.00  0.00    +0.001 A 
ATOM     22  C   UNL     1       9.131  -1.363  21.846  0.00  0.00    +0.001 A 
ATOM     23  C   UNL     1       7.898  -1.938  22.163  0.00  0.00    +0.011 A 
ENDBRANCH   7  17
TORSDOF 1
ENDMDL
MODEL 7
REMARK VINA RESULT:      -6.2      2.531      5.993
REMARK  Name = 
REMARK  2 active torsions:
REMARK  status: ('A' for Active; 'I' for Inactive)
REMARK    1  A    between atoms: C_1  and  C_2
REMARK    2  A    between atoms: C_8  and  C_9
REMARK                            x       y       z     vdW  Elec       q    Type
REMARK                         _______ _______ _______ _____ _____    ______ ____
ROOT
ATOM      1  C   UNL     1       8.392   0.112  22.508  0.00  0.00    +0.088 C 
ATOM      2  C   UNL     1       9.110  -1.039  23.103  0.00  0.00    +0.135 A 
ATOM      3  N   UNL     1       8.617  -1.910  24.064  0.00  0.00    -0.281 N 
ATOM      4  C   UNL     1       9.550  -2.923  24.111  0.00  0.00    +0.159 A 
ATOM      5  C   UNL     1       9.422  -4.082  25.015  0.00  0.00    +0.218 C 
ATOM      6  N   UNL     1       8.221  -4.834  24.691  0.00  0.00    -0.275 NA
ATOM      7  C   UNL     1       7.049  -4.342  24.889  0.00  0.00    +0.077 C 
ATOM      8  C   UNL     1       6.795  -2.939  25.390  0.00  0.00    +0.026 A 
ATOM      9  C   UNL     1       5.732  -2.768  26.299  0.00  0.00    +0.032 A 
ATOM     10  C   UNL     1       5.309  -1.492  26.664  0.00  0.00    +0.042 A 
ATOM     11 CL   UNL     1       3.951  -1.305  27.700  0.00  0.00    -0.084 Cl
ATOM     12  C   UNL     1       5.963  -0.371  26.173  0.00  0.00    +0.022 A 
ATOM     13  C   UNL     1       7.052  -0.523  25.310  0.00  0.00    +0.028 A 
ATOM     14  N   UNL     1      10.562  -2.642  23.320  0.00  0.00    -0.132 NA
ATOM     15  C   UNL     1       7.473  -1.801  24.901  0.00  0.00    +0.059 A 
ATOM     16  N   UNL     1      10.287  -1.465  22.690  0.00  0.00    -0.134 NA
ENDROOT
BRANCH   7  17
ATOM     17  C   UNL     1       5.861  -5.216  24.578  0.00  0.00    +0.019 A 
ATOM     18  C   UNL     1       5.296  -6.102  25.516  0.00  0.00    +0.050 A 
ATOM     19 CL   UNL     1       5.868  -6.293  27.137  0.00  0.00    -0.083 Cl
ATOM     20  C   UNL     1       4.158  -6.849  25.178  0.00  0.00    +0.020 A 
ATOM     21  C   UNL     1       3.564  -6.714  23.924  0.00  0.00    +0.001 A 
ATOM     22  C   UNL     1       4.123  -5.857  22.984  0.00  0.00    +0.001 A 
ATOM     23  C   UNL     1       5.276  -5.135  23.297  0.00  0.00    +0.011 A 
ENDBRANCH   7  17
TORSDOF 1
ENDMDL
MODEL 8
REMARK VINA RESULT:      -6.1      2.444      3.454
REMARK  Name = 
REMARK  2 active torsions:
REMARK  status: ('A' for Active; 'I' for Inactive)
REMARK    1  A    between atoms: C_1  and  C_2
REMARK    2  A    between atoms: C_8  and  C_9
REMARK                            x       y       z     vdW  Elec       q    Type
REMARK                         _______ _______ _______ _____ _____    ______ ____
ROOT
ATOM      1  C   UNL     1       1.381  -6.542  27.391  0.00  0.00    +0.088 C 
ATOM      2  C   UNL     1       2.615  -6.805  28.165  0.00  0.00    +0.135 A 
ATOM      3  N   UNL     1       3.919  -6.630  27.722  0.00  0.00    -0.281 N 
ATOM      4  C   UNL     1       4.684  -6.778  28.858  0.00  0.00    +0.159 A 
ATOM      5  C   UNL     1       6.156  -6.668  28.848  0.00  0.00    +0.218 C 
ATOM      6  N   UNL     1       6.550  -5.334  28.427  0.00  0.00    -0.275 NA
ATOM      7  C   UNL     1       6.347  -4.924  27.224  0.00  0.00    +0.077 C 
ATOM      8  C   UNL     1       5.624  -5.727  26.168  0.00  0.00    +0.026 A 
ATOM      9  C   UNL     1       6.125  -5.650  24.853  0.00  0.00    +0.032 A 
ATOM     10  C   UNL     1       5.413  -6.202  23.791  0.00  0.00    +0.042 A 
ATOM     11 CL   UNL     1       5.996  -6.015  22.184  0.00  0.00    -0.084 Cl
ATOM     12  C   UNL     1       4.224  -6.879  24.021  0.00  0.00    +0.022 A 
ATOM     13  C   UNL     1       3.739  -7.009  25.325  0.00  0.00    +0.028 A 
ATOM     14  N   UNL     1       3.921  -7.108  29.878  0.00  0.00    -0.132 NA
ATOM     15  C   UNL     1       4.422  -6.429  26.408  0.00  0.00    +0.059 A 
ATOM     16  N   UNL     1       2.628  -7.126  29.444  0.00  0.00    -0.134 NA
ENDROOT
BRANCH   7  17
ATOM     17  C   UNL     1       6.843  -3.547  26.862  0.00  0.00    +0.019 A 
ATOM     18  C   UNL     1       8.173  -3.289  26.478  0.00  0.00    +0.050 A 
ATOM     19 CL   UNL     1       9.400  -4.502  26.355  0.00  0.00    -0.083 Cl
ATOM     20  C   UNL     1       8.555  -1.993  26.104  0.00  0.00    +0.020 A 
ATOM     21  C   UNL     1       7.628  -0.952  26.088  0.00  0.00    +0.001 A 
ATOM     22  C   UNL     1       6.316  -1.191  26.482  0.00  0.00    +0.001 A 
ATOM     23  C   UNL     1       5.932  -2.470  26.892  0.00  0.00    +0.011 A 
ENDBRANCH   7  17
TORSDOF 1
ENDMDL
MODEL 9
REMARK VINA RESULT:      -6.1      2.750      3.584
REMARK  Name = 
REMARK  2 active torsions:
REMARK  status: ('A' for Active; 'I' for Inactive)
REMARK    1  A    between atoms: C_1  and  C_2
REMARK    2  A    between atoms: C_8  and  C_9
REMARK                            x       y       z     vdW  Elec       q    Type
REMARK                         _______ _______ _______ _____ _____    ______ ____
ROOT
ATOM      1  C   UNL     1       3.323  -4.376  24.854  0.00  0.00    +0.088 C 
ATOM      2  C   UNL     1       3.626  -3.128  25.592  0.00  0.00    +0.135 A 
ATOM      3  N   UNL     1       4.887  -2.612  25.855  0.00  0.00    -0.281 N 
ATOM      4  C   UNL     1       4.639  -1.349  26.346  0.00  0.00    +0.159 A 
ATOM      5  C   UNL     1       5.716  -0.430  26.761  0.00  0.00    +0.218 C 
ATOM      6  N   UNL     1       6.566  -0.117  25.625  0.00  0.00    -0.275 NA
ATOM      7  C   UNL     1       7.315  -1.012  25.083  0.00  0.00    +0.077 C 
ATOM      8  C   UNL     1       7.334  -2.464  25.500  0.00  0.00    +0.026 A 
ATOM      9  C   UNL     1       8.587  -3.109  25.509  0.00  0.00    +0.032 A 
ATOM     10  C   UNL     1       8.673  -4.487  25.696  0.00  0.00    +0.042 A 
ATOM     11 CL   UNL     1      10.202  -5.267  25.610  0.00  0.00    -0.084 Cl
ATOM     12  C   UNL     1       7.527  -5.236  25.925  0.00  0.00    +0.022 A 
ATOM     13  C   UNL     1       6.282  -4.604  25.971  0.00  0.00    +0.028 A 
ATOM     14  N   UNL     1       3.343  -1.155  26.459  0.00  0.00    -0.132 NA
ATOM     15  C   UNL     1       6.168  -3.220  25.749  0.00  0.00    +0.059 A 
ATOM     16  N   UNL     1       2.710  -2.267  25.988  0.00  0.00    -0.134 NA
ENDROOT
BRANCH   7  17
ATOM     17  C   UNL     1       8.208  -0.582  23.946  0.00  0.00    +0.019 A 
ATOM     18  C   UNL     1       8.168  -1.183  22.673  0.00  0.00    +0.050 A 
ATOM     19 CL   UNL     1       7.093  -2.465  22.238  0.00  0.00    -0.083 Cl
ATOM     20  C   UNL     1       8.990  -0.699  21.644  0.00  0.00    +0.020 A 
ATOM     21  C   UNL     1       9.838   0.386  21.860  0.00  0.00    +0.001 A 
ATOM     22  C   UNL     1       9.900   0.974  23.118  0.00  0.00    +0.001 A 
ATOM     23  C   UNL     1       9.113   0.479  24.159  0.00  0.00    +0.011 A 
ENDBRANCH   7  17
TORSDOF 1
ENDMDL
