MODEL 1
REMARK VINA RESULT:      -4.8      0.000      0.000
REMARK  Name = 
REMARK  11 active torsions:
REMARK  status: ('A' for Active; 'I' for Inactive)
REMARK    1  A    between atoms: O_1  and  C_2
REMARK    2  A    between atoms: C_2  and  C_4
REMARK    3  A    between atoms: C_4  and  C_5
REMARK    4  A    between atoms: C_5  and  C_6
REMARK    5  A    between atoms: C_6  and  C_7
REMARK    6  A    between atoms: C_7  and  C_8
REMARK    7  A    between atoms: C_8  and  C_9
REMARK    8  A    between atoms: C_9  and  C_11
REMARK    9  A    between atoms: C_11  and  C_12
REMARK   10  A    between atoms: C_12  and  C_13
REMARK   11  A    between atoms: C_13  and  O_14
REMARK                            x       y       z     vdW  Elec       q    Type
REMARK                         _______ _______ _______ _____ _____    ______ ____
ROOT
ATOM      1  C   UNL     1       8.710  -1.941  22.259  0.00  0.00    +0.074 C 
ENDROOT
BRANCH   1   2
ATOM      2  C   UNL     1       9.129  -2.597  23.562  0.00  0.00    +0.134 C 
ATOM      3  O   UNL     1      10.287  -2.952  23.794  0.00  0.00    -0.297 OA
BRANCH   2   4
ATOM      4  C   UNL     1       8.058  -2.981  24.551  0.00  0.00    +0.085 C 
BRANCH   4   5
ATOM      5  C   UNL     1       8.675  -3.489  25.840  0.00  0.00    +0.128 C 
BRANCH   5   6
ATOM      6  C   UNL     1       8.902  -4.980  25.999  0.00  0.00    +0.305 C 
ATOM      7  O   UNL     1       7.990  -5.715  26.360  0.00  0.00    -0.251 OA
BRANCH   6   8
ATOM      8  O   UNL     1      10.115  -5.477  25.715  0.00  0.00    -0.481 OA
ATOM      9  H   UNL     1      10.227  -6.450  25.617  0.00  0.00    +0.295 HD
ENDBRANCH   6   8
ENDBRANCH   5   6
ENDBRANCH   4   5
ENDBRANCH   2   4
ENDBRANCH   1   2
BRANCH   1  10
ATOM     10  C   UNL     1       9.760  -0.941  21.789  0.00  0.00    +0.007 C 
BRANCH  10  11
ATOM     11  C   UNL     1       9.167   0.447  21.543  0.00  0.00    +0.001 C 
BRANCH  11  12
ATOM     12  C   UNL     1      10.037   1.523  22.196  0.00  0.00    +0.011 C 
BRANCH  12  13
ATOM     13  C   UNL     1      10.591   1.078  23.548  0.00  0.00    +0.120 C 
BRANCH  13  14
ATOM     14  C   UNL     1       9.615   1.369  24.667  0.00  0.00    +0.305 C 
ATOM     15  O   UNL     1       8.949   2.386  24.779  0.00  0.00    -0.251 OA
BRANCH  14  16
ATOM     16  O   UNL     1       9.550   0.362  25.568  0.00  0.00    -0.481 OA
ATOM     17  H   UNL     1       9.306  -0.499  25.181  0.00  0.00    +0.295 HD
ENDBRANCH  14  16
ENDBRANCH  13  14
ENDBRANCH  12  13
ENDBRANCH  11  12
ENDBRANCH  10  11
ENDBRANCH   1  10
TORSDOF 11
ENDMDL
MODEL 2
REMARK VINA RESULT:      -4.7      1.842      5.962
REMARK  Name = 
REMARK  11 active torsions:
REMARK  status: ('A' for Active; 'I' for Inactive)
REMARK    1  A    between atoms: O_1  and  C_2
REMARK    2  A    between atoms: C_2  and  C_4
REMARK    3  A    between atoms: C_4  and  C_5
REMARK    4  A    between atoms: C_5  and  C_6
REMARK    5  A    between atoms: C_6  and  C_7
REMARK    6  A    between atoms: C_7  and  C_8
REMARK    7  A    between atoms: C_8  and  C_9
REMARK    8  A    between atoms: C_9  and  C_11
REMARK    9  A    between atoms: C_11  and  C_12
REMARK   10  A    between atoms: C_12  and  C_13
REMARK   11  A    between atoms: C_13  and  O_14
REMARK                            x       y       z     vdW  Elec       q    Type
REMARK                         _______ _______ _______ _____ _____    ______ ____
ROOT
ATOM      1  C   UNL     1       8.211  -2.359  22.458  0.00  0.00    +0.074 C 
ENDROOT
BRANCH   1   2
ATOM      2  C   UNL     1       9.626  -2.064  22.918  0.00  0.00    +0.134 C 
ATOM      3  O   UNL     1      10.252  -2.800  23.684  0.00  0.00    -0.297 OA
BRANCH   2   4
ATOM      4  C   UNL     1      10.238  -0.735  22.555  0.00  0.00    +0.085 C 
BRANCH   4   5
ATOM      5  C   UNL     1       9.474  -0.084  21.418  0.00  0.00    +0.128 C 
BRANCH   5   6
ATOM      6  C   UNL     1       9.094   1.378  21.540  0.00  0.00    +0.305 C 
ATOM      7  O   UNL     1       7.917   1.712  21.620  0.00  0.00    -0.251 OA
BRANCH   6   8
ATOM      8  O   UNL     1      10.073   2.294  21.579  0.00  0.00    -0.481 OA
ATOM      9  H   UNL     1      10.432   2.653  20.736  0.00  0.00    +0.295 HD
ENDBRANCH   6   8
ENDBRANCH   5   6
ENDBRANCH   4   5
ENDBRANCH   2   4
ENDBRANCH   1   2
BRANCH   1  10
ATOM     10  C   UNL     1       7.223  -2.230  23.612  0.00  0.00    +0.007 C 
BRANCH  10  11
ATOM     11  C   UNL     1       6.400  -3.503  23.815  0.00  0.00    +0.001 C 
BRANCH  11  12
ATOM     12  C   UNL     1       6.838  -4.224  25.092  0.00  0.00    +0.011 C 
BRANCH  12  13
ATOM     13  C   UNL     1       7.960  -5.228  24.833  0.00  0.00    +0.120 C 
BRANCH  13  14
ATOM     14  C   UNL     1       9.094  -5.054  25.820  0.00  0.00    +0.305 C 
ATOM     15  O   UNL     1       8.992  -4.579  26.940  0.00  0.00    -0.251 OA
BRANCH  14  16
ATOM     16  O   UNL     1      10.277  -5.485  25.325  0.00  0.00    -0.481 OA
ATOM     17  H   UNL     1      10.273  -6.422  25.054  0.00  0.00    +0.295 HD
ENDBRANCH  14  16
ENDBRANCH  13  14
ENDBRANCH  12  13
ENDBRANCH  11  12
ENDBRANCH  10  11
ENDBRANCH   1  10
TORSDOF 11
ENDMDL
MODEL 3
REMARK VINA RESULT:      -4.6      2.642      3.495
REMARK  Name = 
REMARK  11 active torsions:
REMARK  status: ('A' for Active; 'I' for Inactive)
REMARK    1  A    between atoms: O_1  and  C_2
REMARK    2  A    between atoms: C_2  and  C_4
REMARK    3  A    between atoms: C_4  and  C_5
REMARK    4  A    between atoms: C_5  and  C_6
REMARK    5  A    between atoms: C_6  and  C_7
REMARK    6  A    between atoms: C_7  and  C_8
REMARK    7  A    between atoms: C_8  and  C_9
REMARK    8  A    between atoms: C_9  and  C_11
REMARK    9  A    between atoms: C_11  and  C_12
REMARK   10  A    between atoms: C_12  and  C_13
REMARK   11  A    between atoms: C_13  and  O_14
REMARK                            x       y       z     vdW  Elec       q    Type
REMARK                         _______ _______ _______ _____ _____    ______ ____
ROOT
ATOM      1  C   UNL     1       8.912  -2.810  24.631  0.00  0.00    +0.074 C 
ENDROOT
BRANCH   1   2
ATOM      2  C   UNL     1       8.708  -4.309  24.516  0.00  0.00    +0.134 C 
ATOM      3  O   UNL     1       9.637  -5.119  24.560  0.00  0.00    -0.297 OA
BRANCH   2   4
ATOM      4  C   UNL     1       7.334  -4.824  24.171  0.00  0.00    +0.085 C 
BRANCH   4   5
ATOM      5  C   UNL     1       7.239  -5.152  22.694  0.00  0.00    +0.128 C 
BRANCH   5   6
ATOM      6  C   UNL     1       5.928  -4.897  21.975  0.00  0.00    +0.305 C 
ATOM      7  O   UNL     1       4.989  -5.676  22.095  0.00  0.00    -0.251 OA
BRANCH   6   8
ATOM      8  O   UNL     1       5.814  -3.792  21.224  0.00  0.00    -0.481 OA
ATOM      9  H   UNL     1       6.041  -3.833  20.267  0.00  0.00    +0.295 HD
ENDBRANCH   6   8
ENDBRANCH   5   6
ENDBRANCH   4   5
ENDBRANCH   2   4
ENDBRANCH   1   2
BRANCH   1  10
ATOM     10  C   UNL     1       9.740  -2.280  23.465  0.00  0.00    +0.007 C 
BRANCH  10  11
ATOM     11  C   UNL     1       8.871  -1.894  22.268  0.00  0.00    +0.001 C 
BRANCH  11  12
ATOM     12  C   UNL     1       9.582  -0.846  21.408  0.00  0.00    +0.011 C 
BRANCH  12  13
ATOM     13  C   UNL     1       9.023   0.558  21.626  0.00  0.00    +0.120 C 
BRANCH  13  14
ATOM     14  C   UNL     1      10.004   1.431  22.379  0.00  0.00    +0.305 C 
ATOM     15  O   UNL     1      10.367   1.257  23.531  0.00  0.00    -0.251 OA
BRANCH  14  16
ATOM     16  O   UNL     1      10.453   2.464  21.629  0.00  0.00    -0.481 OA
ATOM     17  H   UNL     1      11.050   3.069  22.108  0.00  0.00    +0.295 HD
ENDBRANCH  14  16
ENDBRANCH  13  14
ENDBRANCH  12  13
ENDBRANCH  11  12
ENDBRANCH  10  11
ENDBRANCH   1  10
TORSDOF 11
ENDMDL
MODEL 4
REMARK VINA RESULT:      -4.6      1.718      2.361
REMARK  Name = 
REMARK  11 active torsions:
REMARK  status: ('A' for Active; 'I' for Inactive)
REMARK    1  A    between atoms: O_1  and  C_2
REMARK    2  A    between atoms: C_2  and  C_4
REMARK    3  A    between atoms: C_4  and  C_5
REMARK    4  A    between atoms: C_5  and  C_6
REMARK    5  A    between atoms: C_6  and  C_7
REMARK    6  A    between atoms: C_7  and  C_8
REMARK    7  A    between atoms: C_8  and  C_9
REMARK    8  A    between atoms: C_9  and  C_11
REMARK    9  A    between atoms: C_11  and  C_12
REMARK   10  A    between atoms: C_12  and  C_13
REMARK   11  A    between atoms: C_13  and  O_14
REMARK                            x       y       z     vdW  Elec       q    Type
REMARK                         _______ _______ _______ _____ _____    ______ ____
ROOT
ATOM      1  C   UNL     1       9.809  -0.221  25.024  0.00  0.00    +0.074 C 
ENDROOT
BRANCH   1   2
ATOM      2  C   UNL     1       9.631  -1.520  24.260  0.00  0.00    +0.134 C 
ATOM      3  O   UNL     1      10.248  -1.780  23.224  0.00  0.00    -0.297 OA
BRANCH   2   4
ATOM      4  C   UNL     1       8.539  -2.465  24.690  0.00  0.00    +0.085 C 
BRANCH   4   5
ATOM      5  C   UNL     1       8.913  -3.900  24.373  0.00  0.00    +0.128 C 
BRANCH   5   6
ATOM      6  C   UNL     1       9.372  -4.798  25.505  0.00  0.00    +0.305 C 
ATOM      7  O   UNL     1       9.207  -4.464  26.673  0.00  0.00    -0.251 OA
BRANCH   6   8
ATOM      8  O   UNL     1       9.941  -5.973  25.200  0.00  0.00    -0.481 OA
ATOM      9  H   UNL     1      10.897  -6.000  24.965  0.00  0.00    +0.295 HD
ENDBRANCH   6   8
ENDBRANCH   5   6
ENDBRANCH   4   5
ENDBRANCH   2   4
ENDBRANCH   1   2
BRANCH   1  10
ATOM     10  C   UNL     1      10.808   0.693  24.323  0.00  0.00    +0.007 C 
BRANCH  10  11
ATOM     11  C   UNL     1      10.135   1.922  23.710  0.00  0.00    +0.001 C 
BRANCH  11  12
ATOM     12  C   UNL     1      10.199   1.859  22.182  0.00  0.00    +0.011 C 
BRANCH  12  13
ATOM     13  C   UNL     1       9.072   1.016  21.590  0.00  0.00    +0.120 C 
BRANCH  13  14
ATOM     14  C   UNL     1       7.715   1.521  22.031  0.00  0.00    +0.305 C 
ATOM     15  O   UNL     1       7.268   2.635  21.811  0.00  0.00    -0.251 OA
BRANCH  14  16
ATOM     16  O   UNL     1       7.018   0.588  22.721  0.00  0.00    -0.481 OA
ATOM     17  H   UNL     1       6.227   0.261  22.254  0.00  0.00    +0.295 HD
ENDBRANCH  14  16
ENDBRANCH  13  14
ENDBRANCH  12  13
ENDBRANCH  11  12
ENDBRANCH  10  11
ENDBRANCH   1  10
TORSDOF 11
ENDMDL
MODEL 5
REMARK VINA RESULT:      -4.6      2.744      5.647
REMARK  Name = 
REMARK  11 active torsions:
REMARK  status: ('A' for Active; 'I' for Inactive)
REMARK    1  A    between atoms: O_1  and  C_2
REMARK    2  A    between atoms: C_2  and  C_4
REMARK    3  A    between atoms: C_4  and  C_5
REMARK    4  A    between atoms: C_5  and  C_6
REMARK    5  A    between atoms: C_6  and  C_7
REMARK    6  A    between atoms: C_7  and  C_8
REMARK    7  A    between atoms: C_8  and  C_9
REMARK    8  A    between atoms: C_9  and  C_11
REMARK    9  A    between atoms: C_11  and  C_12
REMARK   10  A    between atoms: C_12  and  C_13
REMARK   11  A    between atoms: C_13  and  O_14
REMARK                            x       y       z     vdW  Elec       q    Type
REMARK                         _______ _______ _______ _____ _____    ______ ____
ROOT
ATOM      1  C   UNL     1       8.048  -2.717  22.369  0.00  0.00    +0.074 C 
ENDROOT
BRANCH   1   2
ATOM      2  C   UNL     1       8.792  -2.569  23.684  0.00  0.00    +0.134 C 
ATOM      3  O   UNL     1      10.013  -2.415  23.752  0.00  0.00    -0.297 OA
BRANCH   2   4
ATOM      4  C   UNL     1       8.032  -2.782  24.968  0.00  0.00    +0.085 C 
BRANCH   4   5
ATOM      5  C   UNL     1       8.802  -3.696  25.902  0.00  0.00    +0.128 C 
BRANCH   5   6
ATOM      6  C   UNL     1       8.742  -5.193  25.669  0.00  0.00    +0.305 C 
ATOM      7  O   UNL     1       9.291  -5.695  24.695  0.00  0.00    -0.251 OA
BRANCH   6   8
ATOM      8  O   UNL     1       8.093  -5.954  26.562  0.00  0.00    -0.481 OA
ATOM      9  H   UNL     1       7.277  -6.431  26.287  0.00  0.00    +0.295 HD
ENDBRANCH   6   8
ENDBRANCH   5   6
ENDBRANCH   4   5
ENDBRANCH   2   4
ENDBRANCH   1   2
BRANCH   1  10
ATOM     10  C   UNL     1       6.851  -3.650  22.521  0.00  0.00    +0.007 C 
BRANCH  10  11
ATOM     11  C   UNL     1       7.121  -5.037  21.935  0.00  0.00    +0.001 C 
BRANCH  11  12
ATOM     12  C   UNL     1       6.197  -6.075  22.573  0.00  0.00    +0.011 C 
BRANCH  12  13
ATOM     13  C   UNL     1       5.397  -5.499  23.740  0.00  0.00    +0.120 C 
BRANCH  13  14
ATOM     14  C   UNL     1       4.983  -6.581  24.713  0.00  0.00    +0.305 C 
ATOM     15  O   UNL     1       5.221  -6.586  25.910  0.00  0.00    -0.251 OA
BRANCH  14  16
ATOM     16  O   UNL     1       4.304  -7.584  24.110  0.00  0.00    -0.481 OA
ATOM     17  H   UNL     1       3.335  -7.509  24.191  0.00  0.00    +0.295 HD
ENDBRANCH  14  16
ENDBRANCH  13  14
ENDBRANCH  12  13
ENDBRANCH  11  12
ENDBRANCH  10  11
ENDBRANCH   1  10
TORSDOF 11
ENDMDL
MODEL 6
REMARK VINA RESULT:      -4.6      3.088      6.600
REMARK  Name = 
REMARK  11 active torsions:
REMARK  status: ('A' for Active; 'I' for Inactive)
REMARK    1  A    between atoms: O_1  and  C_2
REMARK    2  A    between atoms: C_2  and  C_4
REMARK    3  A    between atoms: C_4  and  C_5
REMARK    4  A    between atoms: C_5  and  C_6
REMARK    5  A    between atoms: C_6  and  C_7
REMARK    6  A    between atoms: C_7  and  C_8
REMARK    7  A    between atoms: C_8  and  C_9
REMARK    8  A    between atoms: C_9  and  C_11
REMARK    9  A    between atoms: C_11  and  C_12
REMARK   10  A    between atoms: C_12  and  C_13
REMARK   11  A    between atoms: C_13  and  O_14
REMARK                            x       y       z     vdW  Elec       q    Type
REMARK                         _______ _______ _______ _____ _____    ______ ____
ROOT
ATOM      1  C   UNL     1       9.122  -3.129  23.969  0.00  0.00    +0.074 C 
ENDROOT
BRANCH   1   2
ATOM      2  C   UNL     1       9.759  -1.923  23.303  0.00  0.00    +0.134 C 
ATOM      3  O   UNL     1      10.715  -2.010  22.529  0.00  0.00    -0.297 OA
BRANCH   2   4
ATOM      4  C   UNL     1       9.314  -0.547  23.728  0.00  0.00    +0.085 C 
BRANCH   4   5
ATOM      5  C   UNL     1      10.235   0.514  23.159  0.00  0.00    +0.128 C 
BRANCH   5   6
ATOM      6  C   UNL     1       9.778   1.301  21.946  0.00  0.00    +0.305 C 
ATOM      7  O   UNL     1       8.838   0.906  21.265  0.00  0.00    -0.251 OA
BRANCH   6   8
ATOM      8  O   UNL     1      10.409   2.445  21.649  0.00  0.00    -0.481 OA
ATOM      9  H   UNL     1      11.272   2.412  21.176  0.00  0.00    +0.295 HD
ENDBRANCH   6   8
ENDBRANCH   5   6
ENDBRANCH   4   5
ENDBRANCH   2   4
ENDBRANCH   1   2
BRANCH   1  10
ATOM     10  C   UNL     1       7.615  -3.147  23.738  0.00  0.00    +0.007 C 
BRANCH  10  11
ATOM     11  C   UNL     1       7.246  -3.723  22.370  0.00  0.00    +0.001 C 
BRANCH  11  12
ATOM     12  C   UNL     1       7.302  -5.252  22.403  0.00  0.00    +0.011 C 
BRANCH  12  13
ATOM     13  C   UNL     1       6.081  -5.890  21.744  0.00  0.00    +0.120 C 
BRANCH  13  14
ATOM     14  C   UNL     1       4.901  -5.929  22.691  0.00  0.00    +0.305 C 
ATOM     15  O   UNL     1       4.054  -5.058  22.804  0.00  0.00    -0.251 OA
BRANCH  14  16
ATOM     16  O   UNL     1       4.873  -7.062  23.431  0.00  0.00    -0.481 OA
ATOM     17  H   UNL     1       5.197  -7.851  22.958  0.00  0.00    +0.295 HD
ENDBRANCH  14  16
ENDBRANCH  13  14
ENDBRANCH  12  13
ENDBRANCH  11  12
ENDBRANCH  10  11
ENDBRANCH   1  10
TORSDOF 11
ENDMDL
MODEL 7
REMARK VINA RESULT:      -4.6      2.914      6.465
REMARK  Name = 
REMARK  11 active torsions:
REMARK  status: ('A' for Active; 'I' for Inactive)
REMARK    1  A    between atoms: O_1  and  C_2
REMARK    2  A    between atoms: C_2  and  C_4
REMARK    3  A    between atoms: C_4  and  C_5
REMARK    4  A    between atoms: C_5  and  C_6
REMARK    5  A    between atoms: C_6  and  C_7
REMARK    6  A    between atoms: C_7  and  C_8
REMARK    7  A    between atoms: C_8  and  C_9
REMARK    8  A    between atoms: C_9  and  C_11
REMARK    9  A    between atoms: C_11  and  C_12
REMARK   10  A    between atoms: C_12  and  C_13
REMARK   11  A    between atoms: C_13  and  O_14
REMARK                            x       y       z     vdW  Elec       q    Type
REMARK                         _______ _______ _______ _____ _____    ______ ____
ROOT
ATOM      1  C   UNL     1       9.280  -1.624  24.719  0.00  0.00    +0.074 C 
ENDROOT
BRANCH   1   2
ATOM      2  C   UNL     1      10.107  -0.557  24.025  0.00  0.00    +0.134 C 
ATOM      3  O   UNL     1      10.480   0.475  24.588  0.00  0.00    -0.297 OA
BRANCH   2   4
ATOM      4  C   UNL     1      10.345  -0.682  22.542  0.00  0.00    +0.085 C 
BRANCH   4   5
ATOM      5  C   UNL     1       9.165  -0.138  21.761  0.00  0.00    +0.128 C 
BRANCH   5   6
ATOM      6  C   UNL     1       9.037   1.362  21.587  0.00  0.00    +0.305 C 
ATOM      7  O   UNL     1       7.934   1.884  21.458  0.00  0.00    -0.251 OA
BRANCH   6   8
ATOM      8  O   UNL     1      10.152   2.106  21.598  0.00  0.00    -0.481 OA
ATOM      9  H   UNL     1      10.304   2.737  22.338  0.00  0.00    +0.295 HD
ENDBRANCH   6   8
ENDBRANCH   5   6
ENDBRANCH   4   5
ENDBRANCH   2   4
ENDBRANCH   1   2
BRANCH   1  10
ATOM     10  C   UNL     1       9.520  -2.993  24.092  0.00  0.00    +0.007 C 
BRANCH  10  11
ATOM     11  C   UNL     1       8.400  -3.983  24.417  0.00  0.00    +0.001 C 
BRANCH  11  12
ATOM     12  C   UNL     1       7.334  -3.962  23.320  0.00  0.00    +0.011 C 
BRANCH  12  13
ATOM     13  C   UNL     1       7.338  -5.241  22.485  0.00  0.00    +0.120 C 
BRANCH  13  14
ATOM     14  C   UNL     1       6.182  -5.266  21.509  0.00  0.00    +0.305 C 
ATOM     15  O   UNL     1       5.795  -4.318  20.845  0.00  0.00    -0.251 OA
BRANCH  14  16
ATOM     16  O   UNL     1       5.591  -6.482  21.442  0.00  0.00    -0.481 OA
ATOM     17  H   UNL     1       5.562  -6.858  20.543  0.00  0.00    +0.295 HD
ENDBRANCH  14  16
ENDBRANCH  13  14
ENDBRANCH  12  13
ENDBRANCH  11  12
ENDBRANCH  10  11
ENDBRANCH   1  10
TORSDOF 11
ENDMDL
MODEL 8
REMARK VINA RESULT:      -4.5      2.100      3.840
REMARK  Name = 
REMARK  11 active torsions:
REMARK  status: ('A' for Active; 'I' for Inactive)
REMARK    1  A    between atoms: O_1  and  C_2
REMARK    2  A    between atoms: C_2  and  C_4
REMARK    3  A    between atoms: C_4  and  C_5
REMARK    4  A    between atoms: C_5  and  C_6
REMARK    5  A    between atoms: C_6  and  C_7
REMARK    6  A    between atoms: C_7  and  C_8
REMARK    7  A    between atoms: C_8  and  C_9
REMARK    8  A    between atoms: C_9  and  C_11
REMARK    9  A    between atoms: C_11  and  C_12
REMARK   10  A    between atoms: C_12  and  C_13
REMARK   11  A    between atoms: C_13  and  O_14
REMARK                            x       y       z     vdW  Elec       q    Type
REMARK                         _______ _______ _______ _____ _____    ______ ____
ROOT
ATOM      1  C   UNL     1       7.765  -0.609  24.829  0.00  0.00    +0.074 C 
ENDROOT
BRANCH   1   2
ATOM      2  C   UNL     1       8.183  -2.043  25.092  0.00  0.00    +0.134 C 
ATOM      3  O   UNL     1       8.320  -2.506  26.226  0.00  0.00    -0.297 OA
BRANCH   2   4
ATOM      4  C   UNL     1       8.608  -2.895  23.923  0.00  0.00    +0.085 C 
BRANCH   4   5
ATOM      5  C   UNL     1       8.422  -2.146  22.617  0.00  0.00    +0.128 C 
BRANCH   5   6
ATOM      6  C   UNL     1       9.643  -1.562  21.934  0.00  0.00    +0.305 C 
ATOM      7  O   UNL     1      10.771  -1.854  22.316  0.00  0.00    -0.251 OA
BRANCH   6   8
ATOM      8  O   UNL     1       9.462  -0.736  20.893  0.00  0.00    -0.481 OA
ATOM      9  H   UNL     1      10.240  -0.289  20.490  0.00  0.00    +0.295 HD
ENDBRANCH   6   8
ENDBRANCH   5   6
ENDBRANCH   4   5
ENDBRANCH   2   4
ENDBRANCH   1   2
BRANCH   1  10
ATOM     10  C   UNL     1       8.708   0.370  25.519  0.00  0.00    +0.007 C 
BRANCH  10  11
ATOM     11  C   UNL     1      10.163   0.171  25.091  0.00  0.00    +0.001 C 
BRANCH  11  12
ATOM     12  C   UNL     1      10.604   1.298  24.155  0.00  0.00    +0.011 C 
BRANCH  12  13
ATOM     13  C   UNL     1       9.484   2.302  23.891  0.00  0.00    +0.120 C 
BRANCH  13  14
ATOM     14  C   UNL     1       9.066   2.293  22.436  0.00  0.00    +0.305 C 
ATOM     15  O   UNL     1       7.921   2.390  22.027  0.00  0.00    -0.251 OA
BRANCH  14  16
ATOM     16  O   UNL     1      10.121   2.157  21.599  0.00  0.00    -0.481 OA
ATOM     17  H   UNL     1      10.856   2.770  21.787  0.00  0.00    +0.295 HD
ENDBRANCH  14  16
ENDBRANCH  13  14
ENDBRANCH  12  13
ENDBRANCH  11  12
ENDBRANCH  10  11
ENDBRANCH   1  10
TORSDOF 11
ENDMDL
MODEL 9
REMARK VINA RESULT:      -4.5      1.710      2.301
REMARK  Name = 
REMARK  11 active torsions:
REMARK  status: ('A' for Active; 'I' for Inactive)
REMARK    1  A    between atoms: O_1  and  C_2
REMARK    2  A    between atoms: C_2  and  C_4
REMARK    3  A    between atoms: C_4  and  C_5
REMARK    4  A    between atoms: C_5  and  C_6
REMARK    5  A    between atoms: C_6  and  C_7
REMARK    6  A    between atoms: C_7  and  C_8
REMARK    7  A    between atoms: C_8  and  C_9
REMARK    8  A    between atoms: C_9  and  C_11
REMARK    9  A    between atoms: C_11  and  C_12
REMARK   10  A    between atoms: C_12  and  C_13
REMARK   11  A    between atoms: C_13  and  O_14
REMARK                            x       y       z     vdW  Elec       q    Type
REMARK                         _______ _______ _______ _____ _____    ______ ____
ROOT
ATOM      1  C   UNL     1       8.804  -2.642  24.098  0.00  0.00    +0.074 C 
ENDROOT
BRANCH   1   2
ATOM      2  C   UNL     1       8.787  -4.099  24.520  0.00  0.00    +0.134 C 
ATOM      3  O   UNL     1       9.813  -4.761  24.695  0.00  0.00    -0.297 OA
BRANCH   2   4
ATOM      4  C   UNL     1       7.463  -4.819  24.571  0.00  0.00    +0.085 C 
BRANCH   4   5
ATOM      5  C   UNL     1       6.719  -4.484  25.849  0.00  0.00    +0.128 C 
BRANCH   5   6
ATOM      6  C   UNL     1       7.151  -5.152  27.139  0.00  0.00    +0.305 C 
ATOM      7  O   UNL     1       6.538  -4.951  28.182  0.00  0.00    -0.251 OA
BRANCH   6   8
ATOM      8  O   UNL     1       8.204  -5.982  27.109  0.00  0.00    -0.481 OA
ATOM      9  H   UNL     1       8.055  -6.947  26.980  0.00  0.00    +0.295 HD
ENDBRANCH   6   8
ENDBRANCH   5   6
ENDBRANCH   4   5
ENDBRANCH   2   4
ENDBRANCH   1   2
BRANCH   1  10
ATOM     10  C   UNL     1      10.158  -2.259  23.512  0.00  0.00    +0.007 C 
BRANCH  10  11
ATOM     11  C   UNL     1      10.206  -0.794  23.073  0.00  0.00    +0.001 C 
BRANCH  11  12
ATOM     12  C   UNL     1      10.346   0.123  24.290  0.00  0.00    +0.011 C 
BRANCH  12  13
ATOM     13  C   UNL     1      10.660   1.564  23.895  0.00  0.00    +0.120 C 
BRANCH  13  14
ATOM     14  C   UNL     1       9.678   2.081  22.866  0.00  0.00    +0.305 C 
ATOM     15  O   UNL     1       8.489   2.274  23.057  0.00  0.00    -0.251 OA
BRANCH  14  16
ATOM     16  O   UNL     1      10.263   2.313  21.668  0.00  0.00    -0.481 OA
ATOM     17  H   UNL     1       9.886   3.071  21.185  0.00  0.00    +0.295 HD
ENDBRANCH  14  16
ENDBRANCH  13  14
ENDBRANCH  12  13
ENDBRANCH  11  12
ENDBRANCH  10  11
ENDBRANCH   1  10
TORSDOF 11
ENDMDL
