MODEL 1
REMARK VINA RESULT:      -7.5      0.000      0.000
REMARK  Name = 
REMARK  6 active torsions:
REMARK  status: ('A' for Active; 'I' for Inactive)
REMARK    1  A    between atoms: C_2  and  C_11
REMARK    2  A    between atoms: N_3  and  C_4
REMARK    3  A    between atoms: C_4  and  C_5
REMARK    4  A    between atoms: C_13  and  C_17
REMARK    5  A    between atoms: N_19  and  C_20
REMARK    6  A    between atoms: C_20  and  C_21
REMARK                            x       y       z     vdW  Elec       q    Type
REMARK                         _______ _______ _______ _____ _____    ______ ____
ROOT
ATOM      1  C   UNL     1       6.623  -5.630  25.901  0.00  0.00    +0.129 A 
ATOM      2  N   UNL     1       7.569  -5.588  26.872  0.00  0.00    -0.231 NA
ATOM      3  C   UNL     1       8.649  -4.846  26.587  0.00  0.00    +0.222 A 
ATOM      4  N   UNL     1       8.864  -4.164  25.452  0.00  0.00    -0.231 NA
ATOM      5  C   UNL     1       7.875  -4.245  24.528  0.00  0.00    +0.129 A 
ATOM      6  C   UNL     1       6.720  -4.967  24.700  0.00  0.00    +0.066 A 
ENDROOT
BRANCH   1   8
ATOM      7  O   UNL     1       5.257  -7.008  27.259  0.00  0.00    -0.269 OA
ATOM      8  C   UNL     1       5.414  -6.472  26.166  0.00  0.00    +0.263 C 
ATOM      9  N   UNL     1       4.517  -6.598  25.125  0.00  0.00    -0.306 N 
ATOM     10  H   UNL     1       4.800  -6.242  24.216  0.00  0.00    +0.149 HD
BRANCH   9  11
ATOM     11  C   UNL     1       3.373  -7.475  25.238  0.00  0.00    +0.141 C 
BRANCH  11  12
ATOM     12  C   UNL     1       2.352  -7.257  24.162  0.00  0.00    -0.012 A 
ATOM     13  C   UNL     1       2.169  -5.998  23.594  0.00  0.00    +0.115 A 
ATOM     14  N   UNL     1       1.331  -5.741  22.562  0.00  0.00    -0.263 NA
ATOM     15  C   UNL     1       0.650  -6.790  22.058  0.00  0.00    +0.111 A 
ATOM     16  C   UNL     1       0.757  -8.081  22.545  0.00  0.00    +0.020 A 
ATOM     17  C   UNL     1       1.620  -8.315  23.612  0.00  0.00    +0.008 A 
ENDBRANCH  11  12
ENDBRANCH   9  11
ENDBRANCH   1   8
BRANCH   5  18
ATOM     18  C   UNL     1       8.091  -3.503  23.241  0.00  0.00    +0.263 C 
ATOM     19  N   UNL     1       9.024  -2.492  23.300  0.00  0.00    -0.306 N 
ATOM     20  H   UNL     1       9.459  -2.314  24.196  0.00  0.00    +0.149 HD
ATOM     21  O   UNL     1       7.470  -3.804  22.229  0.00  0.00    -0.269 OA
BRANCH  19  22
ATOM     22  C   UNL     1       9.356  -1.666  22.160  0.00  0.00    +0.141 C 
BRANCH  22  23
ATOM     23  C   UNL     1       9.816  -0.307  22.597  0.00  0.00    -0.012 A 
ATOM     24  C   UNL     1       9.690   0.807  21.762  0.00  0.00    +0.008 A 
ATOM     25  C   UNL     1      10.095   2.059  22.215  0.00  0.00    +0.020 A 
ATOM     26  C   UNL     1      10.609   2.158  23.496  0.00  0.00    +0.111 A 
ATOM     27  N   UNL     1      10.747   1.107  24.333  0.00  0.00    -0.263 NA
ATOM     28  C   UNL     1      10.349  -0.097  23.864  0.00  0.00    +0.115 A 
ENDBRANCH  22  23
ENDBRANCH  19  22
ENDBRANCH   5  18
TORSDOF 6
ENDMDL
MODEL 2
REMARK VINA RESULT:      -7.3      1.424      8.889
REMARK  Name = 
REMARK  6 active torsions:
REMARK  status: ('A' for Active; 'I' for Inactive)
REMARK    1  A    between atoms: C_2  and  C_11
REMARK    2  A    between atoms: N_3  and  C_4
REMARK    3  A    between atoms: C_4  and  C_5
REMARK    4  A    between atoms: C_13  and  C_17
REMARK    5  A    between atoms: N_19  and  C_20
REMARK    6  A    between atoms: C_20  and  C_21
REMARK                            x       y       z     vdW  Elec       q    Type
REMARK                         _______ _______ _______ _____ _____    ______ ____
ROOT
ATOM      1  C   UNL     1       8.607  -3.753  24.107  0.00  0.00    +0.129 A 
ATOM      2  N   UNL     1       9.760  -4.271  24.598  0.00  0.00    -0.231 NA
ATOM      3  C   UNL     1       9.609  -5.200  25.552  0.00  0.00    +0.222 A 
ATOM      4  N   UNL     1       8.445  -5.644  26.048  0.00  0.00    -0.231 NA
ATOM      5  C   UNL     1       7.332  -5.088  25.507  0.00  0.00    +0.129 A 
ATOM      6  C   UNL     1       7.352  -4.132  24.522  0.00  0.00    +0.066 A 
ENDROOT
BRANCH   1   8
ATOM      7  O   UNL     1       7.822  -2.492  22.262  0.00  0.00    -0.269 OA
ATOM      8  C   UNL     1       8.732  -2.689  23.060  0.00  0.00    +0.263 C 
ATOM      9  N   UNL     1       9.909  -1.968  23.061  0.00  0.00    -0.306 N 
ATOM     10  H   UNL     1      10.660  -2.297  23.660  0.00  0.00    +0.149 HD
BRANCH   9  11
ATOM     11  C   UNL     1      10.177  -0.993  22.028  0.00  0.00    +0.141 C 
BRANCH  11  12
ATOM     12  C   UNL     1       9.839   0.410  22.436  0.00  0.00    -0.012 A 
ATOM     13  C   UNL     1       8.919   1.164  21.711  0.00  0.00    +0.115 A 
ATOM     14  N   UNL     1       8.499   2.401  22.065  0.00  0.00    -0.263 NA
ATOM     15  C   UNL     1       9.006   2.911  23.205  0.00  0.00    +0.111 A 
ATOM     16  C   UNL     1       9.924   2.248  24.002  0.00  0.00    +0.020 A 
ATOM     17  C   UNL     1      10.345   0.980  23.609  0.00  0.00    +0.008 A 
ENDBRANCH  11  12
ENDBRANCH   9  11
ENDBRANCH   1   8
BRANCH   5  18
ATOM     18  C   UNL     1       6.012  -5.555  26.049  0.00  0.00    +0.263 C 
ATOM     19  N   UNL     1       4.909  -4.910  25.534  0.00  0.00    -0.306 N 
ATOM     20  H   UNL     1       5.075  -4.165  24.869  0.00  0.00    +0.149 HD
ATOM     21  O   UNL     1       5.955  -6.451  26.881  0.00  0.00    -0.269 OA
BRANCH  19  22
ATOM     22  C   UNL     1       3.558  -5.222  25.944  0.00  0.00    +0.141 C 
BRANCH  22  23
ATOM     23  C   UNL     1       2.919  -6.193  24.998  0.00  0.00    -0.012 A 
ATOM     24  C   UNL     1       2.295  -5.762  23.823  0.00  0.00    +0.008 A 
ATOM     25  C   UNL     1       1.745  -6.697  22.951  0.00  0.00    +0.020 A 
ATOM     26  C   UNL     1       1.843  -8.037  23.278  0.00  0.00    +0.111 A 
ATOM     27  N   UNL     1       2.438  -8.494  24.401  0.00  0.00    -0.263 NA
ATOM     28  C   UNL     1       2.960  -7.563  25.232  0.00  0.00    +0.115 A 
ENDBRANCH  22  23
ENDBRANCH  19  22
ENDBRANCH   5  18
TORSDOF 6
ENDMDL
MODEL 3
REMARK VINA RESULT:      -7.3      2.134      2.816
REMARK  Name = 
REMARK  6 active torsions:
REMARK  status: ('A' for Active; 'I' for Inactive)
REMARK    1  A    between atoms: C_2  and  C_11
REMARK    2  A    between atoms: N_3  and  C_4
REMARK    3  A    between atoms: C_4  and  C_5
REMARK    4  A    between atoms: C_13  and  C_17
REMARK    5  A    between atoms: N_19  and  C_20
REMARK    6  A    between atoms: C_20  and  C_21
REMARK                            x       y       z     vdW  Elec       q    Type
REMARK                         _______ _______ _______ _____ _____    ______ ____
ROOT
ATOM      1  C   UNL     1       6.986  -4.080  23.526  0.00  0.00    +0.129 A 
ATOM      2  N   UNL     1       7.413  -5.078  24.340  0.00  0.00    -0.231 NA
ATOM      3  C   UNL     1       8.676  -4.961  24.774  0.00  0.00    +0.222 A 
ATOM      4  N   UNL     1       9.527  -3.969  24.475  0.00  0.00    -0.231 NA
ATOM      5  C   UNL     1       9.033  -3.003  23.662  0.00  0.00    +0.129 A 
ATOM      6  C   UNL     1       7.757  -3.004  23.154  0.00  0.00    +0.066 A 
ENDROOT
BRANCH   1   8
ATOM      7  O   UNL     1       5.331  -3.825  21.851  0.00  0.00    -0.269 OA
ATOM      8  C   UNL     1       5.591  -4.188  22.994  0.00  0.00    +0.263 C 
ATOM      9  N   UNL     1       4.648  -4.710  23.855  0.00  0.00    -0.306 N 
ATOM     10  H   UNL     1       4.921  -4.846  24.824  0.00  0.00    +0.149 HD
BRANCH   9  11
ATOM     11  C   UNL     1       3.252  -4.758  23.481  0.00  0.00    +0.141 C 
BRANCH  11  12
ATOM     12  C   UNL     1       2.681  -6.144  23.498  0.00  0.00    -0.012 A 
ATOM     13  C   UNL     1       3.195  -7.119  24.350  0.00  0.00    +0.115 A 
ATOM     14  N   UNL     1       2.679  -8.363  24.486  0.00  0.00    -0.263 NA
ATOM     15  C   UNL     1       1.587  -8.650  23.749  0.00  0.00    +0.111 A 
ATOM     16  C   UNL     1       0.995  -7.758  22.872  0.00  0.00    +0.020 A 
ATOM     17  C   UNL     1       1.552  -6.488  22.747  0.00  0.00    +0.008 A 
ENDBRANCH  11  12
ENDBRANCH   9  11
ENDBRANCH   1   8
BRANCH   5  18
ATOM     18  C   UNL     1       9.965  -1.884  23.299  0.00  0.00    +0.263 C 
ATOM     19  N   UNL     1      10.076  -0.886  24.243  0.00  0.00    -0.306 N 
ATOM     20  H   UNL     1       9.507  -0.971  25.076  0.00  0.00    +0.149 HD
ATOM     21  O   UNL     1      10.573  -1.891  22.235  0.00  0.00    -0.269 OA
BRANCH  19  22
ATOM     22  C   UNL     1      10.921   0.273  24.061  0.00  0.00    +0.141 C 
BRANCH  22  23
ATOM     23  C   UNL     1      10.131   1.540  24.195  0.00  0.00    -0.012 A 
ATOM     24  C   UNL     1      10.570   2.736  23.620  0.00  0.00    +0.008 A 
ATOM     25  C   UNL     1       9.792   3.885  23.734  0.00  0.00    +0.020 A 
ATOM     26  C   UNL     1       8.591   3.798  24.416  0.00  0.00    +0.111 A 
ATOM     27  N   UNL     1       8.131   2.662  24.985  0.00  0.00    -0.263 NA
ATOM     28  C   UNL     1       8.910   1.564  24.861  0.00  0.00    +0.115 A 
ENDBRANCH  22  23
ENDBRANCH  19  22
ENDBRANCH   5  18
TORSDOF 6
ENDMDL
MODEL 4
REMARK VINA RESULT:      -7.2      3.116     10.511
REMARK  Name = 
REMARK  6 active torsions:
REMARK  status: ('A' for Active; 'I' for Inactive)
REMARK    1  A    between atoms: C_2  and  C_11
REMARK    2  A    between atoms: N_3  and  C_4
REMARK    3  A    between atoms: C_4  and  C_5
REMARK    4  A    between atoms: C_13  and  C_17
REMARK    5  A    between atoms: N_19  and  C_20
REMARK    6  A    between atoms: C_20  and  C_21
REMARK                            x       y       z     vdW  Elec       q    Type
REMARK                         _______ _______ _______ _____ _____    ______ ____
ROOT
ATOM      1  C   UNL     1       9.064   1.175  23.228  0.00  0.00    +0.129 A 
ATOM      2  N   UNL     1       9.266   1.193  21.887  0.00  0.00    -0.231 NA
ATOM      3  C   UNL     1       9.465  -0.006  21.323  0.00  0.00    +0.222 A 
ATOM      4  N   UNL     1       9.483  -1.187  21.957  0.00  0.00    -0.231 NA
ATOM      5  C   UNL     1       9.268  -1.132  23.296  0.00  0.00    +0.129 A 
ATOM      6  C   UNL     1       9.047   0.031  23.991  0.00  0.00    +0.066 A 
ENDROOT
BRANCH   1   8
ATOM      7  O   UNL     1       8.567   2.551  25.090  0.00  0.00    -0.269 OA
ATOM      8  C   UNL     1       8.868   2.498  23.903  0.00  0.00    +0.263 C 
ATOM      9  N   UNL     1       9.047   3.617  23.115  0.00  0.00    -0.306 N 
ATOM     10  H   UNL     1       9.151   3.475  22.115  0.00  0.00    +0.149 HD
BRANCH   9  11
ATOM     11  C   UNL     1       8.777   4.938  23.638  0.00  0.00    +0.141 C 
BRANCH  11  12
ATOM     12  C   UNL     1      10.008   5.648  24.117  0.00  0.00    -0.012 A 
ATOM     13  C   UNL     1       9.960   6.501  25.217  0.00  0.00    +0.115 A 
ATOM     14  N   UNL     1      11.041   7.108  25.760  0.00  0.00    -0.263 NA
ATOM     15  C   UNL     1      12.235   6.843  25.191  0.00  0.00    +0.111 A 
ATOM     16  C   UNL     1      12.397   6.011  24.097  0.00  0.00    +0.020 A 
ATOM     17  C   UNL     1      11.266   5.406  23.554  0.00  0.00    +0.008 A 
ENDBRANCH  11  12
ENDBRANCH   9  11
ENDBRANCH   1   8
BRANCH   5  18
ATOM     18  C   UNL     1       9.293  -2.436  24.038  0.00  0.00    +0.263 C 
ATOM     19  N   UNL     1       8.187  -2.684  24.821  0.00  0.00    -0.306 N 
ATOM     20  H   UNL     1       7.473  -1.967  24.855  0.00  0.00    +0.149 HD
ATOM     21  O   UNL     1      10.241  -3.204  23.930  0.00  0.00    -0.269 OA
BRANCH  19  22
ATOM     22  C   UNL     1       8.041  -3.885  25.613  0.00  0.00    +0.141 C 
BRANCH  22  23
ATOM     23  C   UNL     1       6.962  -4.766  25.059  0.00  0.00    -0.012 A 
ATOM     24  C   UNL     1       6.806  -4.950  23.682  0.00  0.00    +0.008 A 
ATOM     25  C   UNL     1       5.816  -5.804  23.206  0.00  0.00    +0.020 A 
ATOM     26  C   UNL     1       5.014  -6.455  24.127  0.00  0.00    +0.111 A 
ATOM     27  N   UNL     1       5.132  -6.305  25.464  0.00  0.00    -0.263 NA
ATOM     28  C   UNL     1       6.100  -5.466  25.897  0.00  0.00    +0.115 A 
ENDBRANCH  22  23
ENDBRANCH  19  22
ENDBRANCH   5  18
TORSDOF 6
ENDMDL
MODEL 5
REMARK VINA RESULT:      -7.0      2.120      9.153
REMARK  Name = 
REMARK  6 active torsions:
REMARK  status: ('A' for Active; 'I' for Inactive)
REMARK    1  A    between atoms: C_2  and  C_11
REMARK    2  A    between atoms: N_3  and  C_4
REMARK    3  A    between atoms: C_4  and  C_5
REMARK    4  A    between atoms: C_13  and  C_17
REMARK    5  A    between atoms: N_19  and  C_20
REMARK    6  A    between atoms: C_20  and  C_21
REMARK                            x       y       z     vdW  Elec       q    Type
REMARK                         _______ _______ _______ _____ _____    ______ ____
ROOT
ATOM      1  C   UNL     1       8.673  -2.924  23.281  0.00  0.00    +0.129 A 
ATOM      2  N   UNL     1       9.303  -3.736  24.165  0.00  0.00    -0.231 NA
ATOM      3  C   UNL     1       8.517  -4.630  24.782  0.00  0.00    +0.222 A 
ATOM      4  N   UNL     1       7.196  -4.780  24.603  0.00  0.00    -0.231 NA
ATOM      5  C   UNL     1       6.632  -3.939  23.700  0.00  0.00    +0.129 A 
ATOM      6  C   UNL     1       7.328  -2.985  23.000  0.00  0.00    +0.066 A 
ENDROOT
BRANCH   1   8
ATOM      7  O   UNL     1      10.733  -1.969  22.608  0.00  0.00    -0.269 OA
ATOM      8  C   UNL     1       9.509  -1.891  22.592  0.00  0.00    +0.263 C 
ATOM      9  N   UNL     1       8.824  -0.876  21.956  0.00  0.00    -0.306 N 
ATOM     10  H   UNL     1       7.823  -0.812  22.118  0.00  0.00    +0.149 HD
BRANCH   9  11
ATOM     11  C   UNL     1       9.534   0.230  21.354  0.00  0.00    +0.141 C 
BRANCH  11  12
ATOM     12  C   UNL     1       9.287   1.538  22.045  0.00  0.00    -0.012 A 
ATOM     13  C   UNL     1       8.079   2.213  21.889  0.00  0.00    +0.115 A 
ATOM     14  N   UNL     1       7.749   3.350  22.545  0.00  0.00    -0.263 NA
ATOM     15  C   UNL     1       8.660   3.835  23.413  0.00  0.00    +0.111 A 
ATOM     16  C   UNL     1       9.890   3.245  23.645  0.00  0.00    +0.020 A 
ATOM     17  C   UNL     1      10.206   2.081  22.950  0.00  0.00    +0.008 A 
ENDBRANCH  11  12
ENDBRANCH   9  11
ENDBRANCH   1   8
BRANCH   5  18
ATOM     18  C   UNL     1       5.153  -4.074  23.485  0.00  0.00    +0.263 C 
ATOM     19  N   UNL     1       4.404  -4.202  24.634  0.00  0.00    -0.306 N 
ATOM     20  H   UNL     1       4.905  -4.226  25.514  0.00  0.00    +0.149 HD
ATOM     21  O   UNL     1       4.678  -4.060  22.356  0.00  0.00    -0.269 OA
BRANCH  19  22
ATOM     22  C   UNL     1       2.966  -4.349  24.620  0.00  0.00    +0.141 C 
BRANCH  22  23
ATOM     23  C   UNL     1       2.574  -5.764  24.319  0.00  0.00    -0.012 A 
ATOM     24  C   UNL     1       1.716  -6.073  23.259  0.00  0.00    +0.008 A 
ATOM     25  C   UNL     1       1.403  -7.401  22.987  0.00  0.00    +0.020 A 
ATOM     26  C   UNL     1       1.965  -8.383  23.784  0.00  0.00    +0.111 A 
ATOM     27  N   UNL     1       2.797  -8.128  24.816  0.00  0.00    -0.263 NA
ATOM     28  C   UNL     1       3.081  -6.828  25.059  0.00  0.00    +0.115 A 
ENDBRANCH  22  23
ENDBRANCH  19  22
ENDBRANCH   5  18
TORSDOF 6
ENDMDL
MODEL 6
REMARK VINA RESULT:      -7.0      3.180      5.360
REMARK  Name = 
REMARK  6 active torsions:
REMARK  status: ('A' for Active; 'I' for Inactive)
REMARK    1  A    between atoms: C_2  and  C_11
REMARK    2  A    between atoms: N_3  and  C_4
REMARK    3  A    between atoms: C_4  and  C_5
REMARK    4  A    between atoms: C_13  and  C_17
REMARK    5  A    between atoms: N_19  and  C_20
REMARK    6  A    between atoms: C_20  and  C_21
REMARK                            x       y       z     vdW  Elec       q    Type
REMARK                         _______ _______ _______ _____ _____    ______ ____
ROOT
ATOM      1  C   UNL     1       9.306  -2.339  23.772  0.00  0.00    +0.129 A 
ATOM      2  N   UNL     1      10.216  -2.361  22.768  0.00  0.00    -0.231 NA
ATOM      3  C   UNL     1      10.134  -1.344  21.898  0.00  0.00    +0.222 A 
ATOM      4  N   UNL     1       9.248  -0.338  21.937  0.00  0.00    -0.231 NA
ATOM      5  C   UNL     1       8.370  -0.376  22.971  0.00  0.00    +0.129 A 
ATOM      6  C   UNL     1       8.353  -1.359  23.929  0.00  0.00    +0.066 A 
ENDROOT
BRANCH   1   8
ATOM      7  O   UNL     1      10.119  -4.410  24.585  0.00  0.00    -0.269 OA
ATOM      8  C   UNL     1       9.343  -3.473  24.748  0.00  0.00    +0.263 C 
ATOM      9  N   UNL     1       8.470  -3.391  25.813  0.00  0.00    -0.306 N 
ATOM     10  H   UNL     1       7.767  -2.658  25.789  0.00  0.00    +0.149 HD
BRANCH   9  11
ATOM     11  C   UNL     1       8.348  -4.482  26.754  0.00  0.00    +0.141 C 
BRANCH  11  12
ATOM     12  C   UNL     1       7.115  -5.310  26.544  0.00  0.00    -0.012 A 
ATOM     13  C   UNL     1       6.541  -6.017  27.598  0.00  0.00    +0.115 A 
ATOM     14  N   UNL     1       5.384  -6.714  27.508  0.00  0.00    -0.263 NA
ATOM     15  C   UNL     1       4.755  -6.695  26.315  0.00  0.00    +0.111 A 
ATOM     16  C   UNL     1       5.236  -6.025  25.204  0.00  0.00    +0.020 A 
ATOM     17  C   UNL     1       6.433  -5.323  25.323  0.00  0.00    +0.008 A 
ENDBRANCH  11  12
ENDBRANCH   9  11
ENDBRANCH   1   8
BRANCH   5  18
ATOM     18  C   UNL     1       7.357   0.730  23.037  0.00  0.00    +0.263 C 
ATOM     19  N   UNL     1       7.634   1.824  22.247  0.00  0.00    -0.306 N 
ATOM     20  H   UNL     1       8.497   1.808  21.719  0.00  0.00    +0.149 HD
ATOM     21  O   UNL     1       6.364   0.631  23.748  0.00  0.00    -0.269 OA
BRANCH  19  22
ATOM     22  C   UNL     1       6.774   2.985  22.190  0.00  0.00    +0.141 C 
BRANCH  22  23
ATOM     23  C   UNL     1       7.509   4.219  22.619  0.00  0.00    -0.012 A 
ATOM     24  C   UNL     1       8.585   4.154  23.510  0.00  0.00    +0.008 A 
ATOM     25  C   UNL     1       9.266   5.316  23.858  0.00  0.00    +0.020 A 
ATOM     26  C   UNL     1       8.853   6.511  23.296  0.00  0.00    +0.111 A 
ATOM     27  N   UNL     1       7.820   6.617  22.432  0.00  0.00    -0.263 NA
ATOM     28  C   UNL     1       7.175   5.472  22.116  0.00  0.00    +0.115 A 
ENDBRANCH  22  23
ENDBRANCH  19  22
ENDBRANCH   5  18
TORSDOF 6
ENDMDL
MODEL 7
REMARK VINA RESULT:      -6.9      2.962      9.472
REMARK  Name = 
REMARK  6 active torsions:
REMARK  status: ('A' for Active; 'I' for Inactive)
REMARK    1  A    between atoms: C_2  and  C_11
REMARK    2  A    between atoms: N_3  and  C_4
REMARK    3  A    between atoms: C_4  and  C_5
REMARK    4  A    between atoms: C_13  and  C_17
REMARK    5  A    between atoms: N_19  and  C_20
REMARK    6  A    between atoms: C_20  and  C_21
REMARK                            x       y       z     vdW  Elec       q    Type
REMARK                         _______ _______ _______ _____ _____    ______ ____
ROOT
ATOM      1  C   UNL     1       9.665   0.038  23.555  0.00  0.00    +0.129 A 
ATOM      2  N   UNL     1       9.772  -0.111  22.212  0.00  0.00    -0.231 NA
ATOM      3  C   UNL     1       9.773  -1.379  21.775  0.00  0.00    +0.222 A 
ATOM      4  N   UNL     1       9.681  -2.479  22.536  0.00  0.00    -0.231 NA
ATOM      5  C   UNL     1       9.570  -2.257  23.870  0.00  0.00    +0.129 A 
ATOM      6  C   UNL     1       9.553  -1.008  24.442  0.00  0.00    +0.066 A 
ENDROOT
BRANCH   1   8
ATOM      7  O   UNL     1      10.741   2.070  24.120  0.00  0.00    -0.269 OA
ATOM      8  C   UNL     1       9.691   1.437  24.088  0.00  0.00    +0.263 C 
ATOM      9  N   UNL     1       8.486   1.946  24.525  0.00  0.00    -0.306 N 
ATOM     10  H   UNL     1       7.703   1.303  24.596  0.00  0.00    +0.149 HD
BRANCH   9  11
ATOM     11  C   UNL     1       8.419   3.245  25.157  0.00  0.00    +0.141 C 
BRANCH  11  12
ATOM     12  C   UNL     1       8.147   4.360  24.191  0.00  0.00    -0.012 A 
ATOM     13  C   UNL     1       9.013   5.445  24.089  0.00  0.00    +0.115 A 
ATOM     14  N   UNL     1       8.883   6.444  23.184  0.00  0.00    -0.263 NA
ATOM     15  C   UNL     1       7.847   6.352  22.326  0.00  0.00    +0.111 A 
ATOM     16  C   UNL     1       6.928   5.318  22.338  0.00  0.00    +0.020 A 
ATOM     17  C   UNL     1       7.082   4.309  23.285  0.00  0.00    +0.008 A 
ENDBRANCH  11  12
ENDBRANCH   9  11
ENDBRANCH   1   8
BRANCH   5  18
ATOM     18  C   UNL     1       9.477  -3.468  24.751  0.00  0.00    +0.263 C 
ATOM     19  N   UNL     1       8.520  -3.399  25.740  0.00  0.00    -0.306 N 
ATOM     20  H   UNL     1       7.987  -2.541  25.810  0.00  0.00    +0.149 HD
ATOM     21  O   UNL     1      10.210  -4.433  24.574  0.00  0.00    -0.269 OA
BRANCH  19  22
ATOM     22  C   UNL     1       8.294  -4.468  26.686  0.00  0.00    +0.141 C 
BRANCH  22  23
ATOM     23  C   UNL     1       7.033  -5.212  26.365  0.00  0.00    -0.012 A 
ATOM     24  C   UNL     1       6.467  -5.170  25.087  0.00  0.00    +0.008 A 
ATOM     25  C   UNL     1       5.316  -5.903  24.817  0.00  0.00    +0.020 A 
ATOM     26  C   UNL     1       4.768  -6.663  25.835  0.00  0.00    +0.111 A 
ATOM     27  N   UNL     1       5.283  -6.731  27.082  0.00  0.00    -0.263 NA
ATOM     28  C   UNL     1       6.400  -6.005  27.316  0.00  0.00    +0.115 A 
ENDBRANCH  22  23
ENDBRANCH  19  22
ENDBRANCH   5  18
TORSDOF 6
ENDMDL
MODEL 8
REMARK VINA RESULT:      -6.9      3.114      9.336
REMARK  Name = 
REMARK  6 active torsions:
REMARK  status: ('A' for Active; 'I' for Inactive)
REMARK    1  A    between atoms: C_2  and  C_11
REMARK    2  A    between atoms: N_3  and  C_4
REMARK    3  A    between atoms: C_4  and  C_5
REMARK    4  A    between atoms: C_13  and  C_17
REMARK    5  A    between atoms: N_19  and  C_20
REMARK    6  A    between atoms: C_20  and  C_21
REMARK                            x       y       z     vdW  Elec       q    Type
REMARK                         _______ _______ _______ _____ _____    ______ ____
ROOT
ATOM      1  C   UNL     1       8.169  -0.669  23.297  0.00  0.00    +0.129 A 
ATOM      2  N   UNL     1       9.505  -0.494  23.141  0.00  0.00    -0.231 NA
ATOM      3  C   UNL     1      10.243  -1.609  23.242  0.00  0.00    +0.222 A 
ATOM      4  N   UNL     1       9.783  -2.845  23.481  0.00  0.00    -0.231 NA
ATOM      5  C   UNL     1       8.438  -2.948  23.621  0.00  0.00    +0.129 A 
ATOM      6  C   UNL     1       7.572  -1.886  23.534  0.00  0.00    +0.066 A 
ENDROOT
BRANCH   1   8
ATOM      7  O   UNL     1       6.268   0.624  23.865  0.00  0.00    -0.269 OA
ATOM      8  C   UNL     1       7.310   0.555  23.221  0.00  0.00    +0.263 C 
ATOM      9  N   UNL     1       7.763   1.568  22.401  0.00  0.00    -0.306 N 
ATOM     10  H   UNL     1       8.555   1.365  21.798  0.00  0.00    +0.149 HD
BRANCH   9  11
ATOM     11  C   UNL     1       6.958   2.747  22.172  0.00  0.00    +0.141 C 
BRANCH  11  12
ATOM     12  C   UNL     1       7.619   4.013  22.629  0.00  0.00    -0.012 A 
ATOM     13  C   UNL     1       8.726   3.978  23.475  0.00  0.00    +0.115 A 
ATOM     14  N   UNL     1       9.428   5.069  23.859  0.00  0.00    -0.263 NA
ATOM     15  C   UNL     1       9.019   6.257  23.368  0.00  0.00    +0.111 A 
ATOM     16  C   UNL     1       7.935   6.407  22.522  0.00  0.00    +0.020 A 
ATOM     17  C   UNL     1       7.226   5.267  22.149  0.00  0.00    +0.008 A 
ENDBRANCH  11  12
ENDBRANCH   9  11
ENDBRANCH   1   8
BRANCH   5  18
ATOM     18  C   UNL     1       7.891  -4.318  23.901  0.00  0.00    +0.263 C 
ATOM     19  N   UNL     1       6.569  -4.351  24.288  0.00  0.00    -0.306 N 
ATOM     20  H   UNL     1       6.091  -3.463  24.380  0.00  0.00    +0.149 HD
ATOM     21  O   UNL     1       8.594  -5.313  23.778  0.00  0.00    -0.269 OA
BRANCH  19  22
ATOM     22  C   UNL     1       5.877  -5.580  24.606  0.00  0.00    +0.141 C 
BRANCH  22  23
ATOM     23  C   UNL     1       5.870  -5.826  26.085  0.00  0.00    -0.012 A 
ATOM     24  C   UNL     1       4.919  -6.660  26.680  0.00  0.00    +0.008 A 
ATOM     25  C   UNL     1       4.966  -6.893  28.051  0.00  0.00    +0.020 A 
ATOM     26  C   UNL     1       5.971  -6.288  28.785  0.00  0.00    +0.111 A 
ATOM     27  N   UNL     1       6.908  -5.477  28.248  0.00  0.00    -0.263 NA
ATOM     28  C   UNL     1       6.835  -5.266  26.915  0.00  0.00    +0.115 A 
ENDBRANCH  22  23
ENDBRANCH  19  22
ENDBRANCH   5  18
TORSDOF 6
ENDMDL
MODEL 9
REMARK VINA RESULT:      -6.8      2.789     10.038
REMARK  Name = 
REMARK  6 active torsions:
REMARK  status: ('A' for Active; 'I' for Inactive)
REMARK    1  A    between atoms: C_2  and  C_11
REMARK    2  A    between atoms: N_3  and  C_4
REMARK    3  A    between atoms: C_4  and  C_5
REMARK    4  A    between atoms: C_13  and  C_17
REMARK    5  A    between atoms: N_19  and  C_20
REMARK    6  A    between atoms: C_20  and  C_21
REMARK                            x       y       z     vdW  Elec       q    Type
REMARK                         _______ _______ _______ _____ _____    ______ ____
ROOT
ATOM      1  C   UNL     1       8.937  -0.198  23.473  0.00  0.00    +0.129 A 
ATOM      2  N   UNL     1      10.196  -0.594  23.163  0.00  0.00    -0.231 NA
ATOM      3  C   UNL     1      10.299  -1.835  22.665  0.00  0.00    +0.222 A 
ATOM      4  N   UNL     1       9.288  -2.691  22.458  0.00  0.00    -0.231 NA
ATOM      5  C   UNL     1       8.056  -2.228  22.784  0.00  0.00    +0.129 A 
ATOM      6  C   UNL     1       7.817  -0.977  23.298  0.00  0.00    +0.066 A 
ENDROOT
BRANCH   1   8
ATOM      7  O   UNL     1       8.497   1.309  25.247  0.00  0.00    -0.269 OA
ATOM      8  C   UNL     1       8.781   1.170  24.062  0.00  0.00    +0.263 C 
ATOM      9  N   UNL     1       8.975   2.231  23.200  0.00  0.00    -0.306 N 
ATOM     10  H   UNL     1       9.062   2.021  22.210  0.00  0.00    +0.149 HD
BRANCH   9  11
ATOM     11  C   UNL     1       8.743   3.589  23.637  0.00  0.00    +0.141 C 
BRANCH  11  12
ATOM     12  C   UNL     1      10.006   4.381  23.803  0.00  0.00    -0.012 A 
ATOM     13  C   UNL     1      11.225   3.889  23.343  0.00  0.00    +0.115 A 
ATOM     14  N   UNL     1      12.389   4.580  23.377  0.00  0.00    -0.263 NA
ATOM     15  C   UNL     1      12.338   5.829  23.881  0.00  0.00    +0.111 A 
ATOM     16  C   UNL     1      11.182   6.416  24.365  0.00  0.00    +0.020 A 
ATOM     17  C   UNL     1      10.000   5.679  24.325  0.00  0.00    +0.008 A 
ENDBRANCH  11  12
ENDBRANCH   9  11
ENDBRANCH   1   8
BRANCH   5  18
ATOM     18  C   UNL     1       6.903  -3.166  22.575  0.00  0.00    +0.263 C 
ATOM     19  N   UNL     1       7.143  -4.474  22.934  0.00  0.00    -0.306 N 
ATOM     20  H   UNL     1       8.069  -4.699  23.275  0.00  0.00    +0.149 HD
ATOM     21  O   UNL     1       5.839  -2.764  22.121  0.00  0.00    -0.269 OA
BRANCH  19  22
ATOM     22  C   UNL     1       6.152  -5.518  22.796  0.00  0.00    +0.141 C 
BRANCH  22  23
ATOM     23  C   UNL     1       5.643  -5.957  24.135  0.00  0.00    -0.012 A 
ATOM     24  C   UNL     1       4.485  -6.732  24.257  0.00  0.00    +0.008 A 
ATOM     25  C   UNL     1       4.063  -7.151  25.514  0.00  0.00    +0.020 A 
ATOM     26  C   UNL     1       4.818  -6.787  26.615  0.00  0.00    +0.111 A 
ATOM     27  N   UNL     1       5.941  -6.041  26.541  0.00  0.00    -0.263 NA
ATOM     28  C   UNL     1       6.326  -5.644  25.306  0.00  0.00    +0.115 A 
ENDBRANCH  22  23
ENDBRANCH  19  22
ENDBRANCH   5  18
TORSDOF 6
ENDMDL
