MODEL 1
REMARK VINA RESULT:      -6.8      0.000      0.000
REMARK  Name = 
REMARK  11 active torsions:
REMARK  status: ('A' for Active; 'I' for Inactive)
REMARK    1  A    between atoms: C_1  and  C_2
REMARK    2  A    between atoms: C_2  and  O_4
REMARK    3  A    between atoms: O_4  and  C_5
REMARK    4  A    between atoms: C_8  and  C_9
REMARK    5  A    between atoms: C_10  and  C_11
REMARK    6  A    between atoms: N_13  and  C_14
REMARK    7  A    between atoms: C_14  and  C_15
REMARK    8  A    between atoms: C_15  and  C_16
REMARK    9  A    between atoms: C_23  and  O_24
REMARK   10  A    between atoms: O_24  and  C_25
REMARK   11  A    between atoms: C_25  and  C_26
REMARK                            x       y       z     vdW  Elec       q    Type
REMARK                         _______ _______ _______ _____ _____    ______ ____
ROOT
ATOM      1  C   UNL     1       4.374  -4.127  24.483  0.00  0.00    +0.174 A 
ATOM      2  C   UNL     1       5.006  -3.900  23.264  0.00  0.00    +0.174 A 
ATOM      3  C   UNL     1       5.740  -2.717  23.049  0.00  0.00    +0.058 A 
ATOM      4  C   UNL     1       5.856  -1.756  24.053  0.00  0.00    -0.021 A 
ATOM      5  C   UNL     1       5.238  -1.996  25.282  0.00  0.00    +0.012 A 
ATOM      6  C   UNL     1       4.525  -3.176  25.503  0.00  0.00    +0.051 A 
ENDROOT
BRANCH   4   7
ATOM      7  C   UNL     1       6.540  -0.468  23.865  0.00  0.00    +0.013 C 
ATOM      8  C   UNL     1       6.170   0.716  24.380  0.00  0.00    +0.068 C 
BRANCH   8   9
ATOM      9  C   UNL     1       6.993   1.906  24.041  0.00  0.00    +0.237 C 
ATOM     10  N   UNL     1       8.179   1.982  24.735  0.00  0.00    -0.312 N 
ATOM     11  H   UNL     1       8.440   1.258  25.386  0.00  0.00    +0.149 HD
ATOM     12  O   UNL     1       6.643   2.737  23.212  0.00  0.00    -0.271 OA
BRANCH  10  13
ATOM     13  C   UNL     1       9.090   3.086  24.475  0.00  0.00    +0.109 C 
BRANCH  13  14
ATOM     14  C   UNL     1      10.272   2.689  23.595  0.00  0.00    +0.054 C 
BRANCH  14  15
ATOM     15  C   UNL     1      10.131   1.281  23.068  0.00  0.00    -0.046 A 
ATOM     16  C   UNL     1      10.467   0.186  23.875  0.00  0.00    +0.004 A 
ATOM     17  C   UNL     1      10.310  -1.118  23.400  0.00  0.00    +0.000 A 
ATOM     18  C   UNL     1       9.814  -1.340  22.118  0.00  0.00    +0.000 A 
ATOM     19  C   UNL     1       9.472  -0.259  21.309  0.00  0.00    +0.000 A 
ATOM     20  C   UNL     1       9.628   1.047  21.781  0.00  0.00    +0.004 A 
ENDBRANCH  14  15
ENDBRANCH  13  14
ENDBRANCH  10  13
ENDBRANCH   8   9
ENDBRANCH   4   7
BRANCH   1  21
ATOM     21  O   UNL     1       3.700  -5.324  24.771  0.00  0.00    -0.422 OA
BRANCH  21  23
ATOM     22  C   UNL     1       5.288  -6.366  26.203  0.00  0.00    +0.136 C 
ATOM     23  C   UNL     1       4.478  -6.472  24.943  0.00  0.00    +0.309 C 
ATOM     24  O   UNL     1       4.501  -7.455  24.212  0.00  0.00    -0.251 OA
ENDBRANCH  21  23
ENDBRANCH   1  21
BRANCH   2  25
ATOM     25  O   UNL     1       5.033  -4.744  22.114  0.00  0.00    -0.422 OA
BRANCH  25  26
ATOM     26  C   UNL     1       6.012  -5.409  21.370  0.00  0.00    +0.309 C 
ATOM     27  O   UNL     1       6.032  -5.578  20.162  0.00  0.00    -0.251 OA
ATOM     28  C   UNL     1       7.091  -5.847  22.331  0.00  0.00    +0.136 C 
ENDBRANCH  25  26
ENDBRANCH   2  25
TORSDOF 9
ENDMDL
MODEL 2
REMARK VINA RESULT:      -6.8      2.370      3.720
REMARK  Name = 
REMARK  11 active torsions:
REMARK  status: ('A' for Active; 'I' for Inactive)
REMARK    1  A    between atoms: C_1  and  C_2
REMARK    2  A    between atoms: C_2  and  O_4
REMARK    3  A    between atoms: O_4  and  C_5
REMARK    4  A    between atoms: C_8  and  C_9
REMARK    5  A    between atoms: C_10  and  C_11
REMARK    6  A    between atoms: N_13  and  C_14
REMARK    7  A    between atoms: C_14  and  C_15
REMARK    8  A    between atoms: C_15  and  C_16
REMARK    9  A    between atoms: C_23  and  O_24
REMARK   10  A    between atoms: O_24  and  C_25
REMARK   11  A    between atoms: C_25  and  C_26
REMARK                            x       y       z     vdW  Elec       q    Type
REMARK                         _______ _______ _______ _____ _____    ______ ____
ROOT
ATOM      1  C   UNL     1       6.601  -5.259  25.891  0.00  0.00    +0.174 A 
ATOM      2  C   UNL     1       6.810  -4.985  24.542  0.00  0.00    +0.174 A 
ATOM      3  C   UNL     1       7.498  -3.821  24.147  0.00  0.00    +0.058 A 
ATOM      4  C   UNL     1       7.990  -2.925  25.096  0.00  0.00    -0.021 A 
ATOM      5  C   UNL     1       7.796  -3.213  26.449  0.00  0.00    +0.012 A 
ATOM      6  C   UNL     1       7.130  -4.376  26.843  0.00  0.00    +0.051 A 
ENDROOT
BRANCH   4   7
ATOM      7  C   UNL     1       8.644  -1.655  24.749  0.00  0.00    +0.013 C 
ATOM      8  C   UNL     1       9.778  -1.507  24.045  0.00  0.00    +0.068 C 
BRANCH   8   9
ATOM      9  C   UNL     1      10.283  -0.126  23.829  0.00  0.00    +0.237 C 
ATOM     10  N   UNL     1       9.757   0.493  22.718  0.00  0.00    -0.312 N 
ATOM     11  H   UNL     1       9.072   0.026  22.145  0.00  0.00    +0.149 HD
ATOM     12  O   UNL     1      11.090   0.408  24.580  0.00  0.00    -0.271 OA
BRANCH  10  13
ATOM     13  C   UNL     1      10.150   1.860  22.409  0.00  0.00    +0.109 C 
BRANCH  13  14
ATOM     14  C   UNL     1       9.404   2.898  23.244  0.00  0.00    +0.054 C 
BRANCH  14  15
ATOM     15  C   UNL     1      10.288   4.069  23.601  0.00  0.00    -0.046 A 
ATOM     16  C   UNL     1      11.655   4.046  23.290  0.00  0.00    +0.004 A 
ATOM     17  C   UNL     1      12.469   5.139  23.592  0.00  0.00    +0.000 A 
ATOM     18  C   UNL     1      11.926   6.265  24.206  0.00  0.00    +0.000 A 
ATOM     19  C   UNL     1      10.568   6.301  24.517  0.00  0.00    +0.000 A 
ATOM     20  C   UNL     1       9.751   5.208  24.214  0.00  0.00    +0.004 A 
ENDBRANCH  14  15
ENDBRANCH  13  14
ENDBRANCH  10  13
ENDBRANCH   8   9
ENDBRANCH   4   7
BRANCH   1  21
ATOM     21  O   UNL     1       5.993  -6.443  26.334  0.00  0.00    -0.422 OA
BRANCH  21  23
ATOM     22  C   UNL     1       3.767  -5.642  26.589  0.00  0.00    +0.136 C 
ATOM     23  C   UNL     1       4.666  -6.663  25.953  0.00  0.00    +0.309 C 
ATOM     24  O   UNL     1       4.259  -7.532  25.191  0.00  0.00    -0.251 OA
ENDBRANCH  21  23
ENDBRANCH   1  21
BRANCH   2  25
ATOM     25  O   UNL     1       6.412  -5.761  23.413  0.00  0.00    -0.422 OA
BRANCH  25  26
ATOM     26  C   UNL     1       5.474  -5.641  22.383  0.00  0.00    +0.309 C 
ATOM     27  O   UNL     1       4.268  -5.496  22.498  0.00  0.00    -0.251 OA
ATOM     28  C   UNL     1       6.230  -5.668  21.076  0.00  0.00    +0.136 C 
ENDBRANCH  25  26
ENDBRANCH   2  25
TORSDOF 9
ENDMDL
MODEL 3
REMARK VINA RESULT:      -6.7      3.356      9.126
REMARK  Name = 
REMARK  11 active torsions:
REMARK  status: ('A' for Active; 'I' for Inactive)
REMARK    1  A    between atoms: C_1  and  C_2
REMARK    2  A    between atoms: C_2  and  O_4
REMARK    3  A    between atoms: O_4  and  C_5
REMARK    4  A    between atoms: C_8  and  C_9
REMARK    5  A    between atoms: C_10  and  C_11
REMARK    6  A    between atoms: N_13  and  C_14
REMARK    7  A    between atoms: C_14  and  C_15
REMARK    8  A    between atoms: C_15  and  C_16
REMARK    9  A    between atoms: C_23  and  O_24
REMARK   10  A    between atoms: O_24  and  C_25
REMARK   11  A    between atoms: C_25  and  C_26
REMARK                            x       y       z     vdW  Elec       q    Type
REMARK                         _______ _______ _______ _____ _____    ______ ____
ROOT
ATOM      1  C   UNL     1       9.421   4.518  24.152  0.00  0.00    +0.174 A 
ATOM      2  C   UNL     1      10.530   3.838  23.655  0.00  0.00    +0.174 A 
ATOM      3  C   UNL     1      10.607   2.435  23.745  0.00  0.00    +0.058 A 
ATOM      4  C   UNL     1       9.575   1.697  24.325  0.00  0.00    -0.021 A 
ATOM      5  C   UNL     1       8.456   2.380  24.806  0.00  0.00    +0.012 A 
ATOM      6  C   UNL     1       8.369   3.770  24.701  0.00  0.00    +0.051 A 
ENDROOT
BRANCH   4   7
ATOM      7  C   UNL     1       9.631   0.242  24.522  0.00  0.00    +0.013 C 
ATOM      8  C   UNL     1       9.521  -0.698  23.569  0.00  0.00    +0.068 C 
BRANCH   8   9
ATOM      9  C   UNL     1       9.580  -2.122  23.991  0.00  0.00    +0.237 C 
ATOM     10  N   UNL     1       8.668  -2.453  24.967  0.00  0.00    -0.312 N 
ATOM     11  H   UNL     1       8.018  -1.767  25.317  0.00  0.00    +0.149 HD
ATOM     12  O   UNL     1      10.367  -2.924  23.503  0.00  0.00    -0.271 OA
BRANCH  10  13
ATOM     13  C   UNL     1       8.604  -3.824  25.449  0.00  0.00    +0.109 C 
BRANCH  13  14
ATOM     14  C   UNL     1       7.177  -4.365  25.521  0.00  0.00    +0.054 C 
BRANCH  14  15
ATOM     15  C   UNL     1       6.731  -4.945  24.200  0.00  0.00    -0.046 A 
ATOM     16  C   UNL     1       5.367  -5.127  23.932  0.00  0.00    +0.004 A 
ATOM     17  C   UNL     1       4.950  -5.636  22.700  0.00  0.00    +0.000 A 
ATOM     18  C   UNL     1       5.889  -5.967  21.726  0.00  0.00    +0.000 A 
ATOM     19  C   UNL     1       7.247  -5.787  21.982  0.00  0.00    +0.000 A 
ATOM     20  C   UNL     1       7.667  -5.276  23.212  0.00  0.00    +0.004 A 
ENDBRANCH  14  15
ENDBRANCH  13  14
ENDBRANCH  10  13
ENDBRANCH   8   9
ENDBRANCH   4   7
BRANCH   1  21
ATOM     21  O   UNL     1       9.262   5.905  24.014  0.00  0.00    -0.422 OA
BRANCH  21  23
ATOM     22  C   UNL     1       7.724   6.274  22.238  0.00  0.00    +0.136 C 
ATOM     23  C   UNL     1       7.981   6.377  23.713  0.00  0.00    +0.309 C 
ATOM     24  O   UNL     1       7.150   6.793  24.512  0.00  0.00    -0.251 OA
ENDBRANCH  21  23
ENDBRANCH   1  21
BRANCH   2  25
ATOM     25  O   UNL     1      11.682   4.382  23.014  0.00  0.00    -0.422 OA
BRANCH  25  26
ATOM     26  C   UNL     1      12.607   5.395  23.286  0.00  0.00    +0.309 C 
ATOM     27  O   UNL     1      12.809   5.941  24.359  0.00  0.00    -0.251 OA
ATOM     28  C   UNL     1      13.369   5.666  22.011  0.00  0.00    +0.136 C 
ENDBRANCH  25  26
ENDBRANCH   2  25
TORSDOF 9
ENDMDL
MODEL 4
REMARK VINA RESULT:      -6.5      1.448      1.638
REMARK  Name = 
REMARK  11 active torsions:
REMARK  status: ('A' for Active; 'I' for Inactive)
REMARK    1  A    between atoms: C_1  and  C_2
REMARK    2  A    between atoms: C_2  and  O_4
REMARK    3  A    between atoms: O_4  and  C_5
REMARK    4  A    between atoms: C_8  and  C_9
REMARK    5  A    between atoms: C_10  and  C_11
REMARK    6  A    between atoms: N_13  and  C_14
REMARK    7  A    between atoms: C_14  and  C_15
REMARK    8  A    between atoms: C_15  and  C_16
REMARK    9  A    between atoms: C_23  and  O_24
REMARK   10  A    between atoms: O_24  and  C_25
REMARK   11  A    between atoms: C_25  and  C_26
REMARK                            x       y       z     vdW  Elec       q    Type
REMARK                         _______ _______ _______ _____ _____    ______ ____
ROOT
ATOM      1  C   UNL     1       6.461  -4.917  25.970  0.00  0.00    +0.174 A 
ATOM      2  C   UNL     1       6.560  -4.561  24.627  0.00  0.00    +0.174 A 
ATOM      3  C   UNL     1       6.864  -3.236  24.259  0.00  0.00    +0.058 A 
ATOM      4  C   UNL     1       7.079  -2.256  25.229  0.00  0.00    -0.021 A 
ATOM      5  C   UNL     1       6.998  -2.620  26.574  0.00  0.00    +0.012 A 
ATOM      6  C   UNL     1       6.716  -3.938  26.941  0.00  0.00    +0.051 A 
ENDROOT
BRANCH   4   7
ATOM      7  C   UNL     1       7.319  -0.841  24.910  0.00  0.00    +0.013 C 
ATOM      8  C   UNL     1       6.574   0.204  25.303  0.00  0.00    +0.068 C 
BRANCH   8   9
ATOM      9  C   UNL     1       6.982   1.557  24.844  0.00  0.00    +0.237 C 
ATOM     10  N   UNL     1       8.238   1.934  25.262  0.00  0.00    -0.312 N 
ATOM     11  H   UNL     1       8.808   1.306  25.807  0.00  0.00    +0.149 HD
ATOM     12  O   UNL     1       6.262   2.265  24.149  0.00  0.00    -0.271 OA
BRANCH  10  13
ATOM     13  C   UNL     1       8.768   3.226  24.857  0.00  0.00    +0.109 C 
BRANCH  13  14
ATOM     14  C   UNL     1       9.893   3.114  23.830  0.00  0.00    +0.054 C 
BRANCH  14  15
ATOM     15  C   UNL     1       9.904   1.762  23.157  0.00  0.00    -0.046 A 
ATOM     16  C   UNL     1      10.528   0.669  23.774  0.00  0.00    +0.004 A 
ATOM     17  C   UNL     1      10.515  -0.588  23.168  0.00  0.00    +0.000 A 
ATOM     18  C   UNL     1       9.878  -0.767  21.942  0.00  0.00    +0.000 A 
ATOM     19  C   UNL     1       9.252   0.312  21.321  0.00  0.00    +0.000 A 
ATOM     20  C   UNL     1       9.263   1.572  21.927  0.00  0.00    +0.004 A 
ENDBRANCH  14  15
ENDBRANCH  13  14
ENDBRANCH  10  13
ENDBRANCH   8   9
ENDBRANCH   4   7
BRANCH   1  21
ATOM     21  O   UNL     1       6.241  -6.238  26.386  0.00  0.00    -0.422 OA
BRANCH  21  23
ATOM     22  C   UNL     1       4.294  -6.489  27.729  0.00  0.00    +0.136 C 
ATOM     23  C   UNL     1       4.922  -6.700  26.382  0.00  0.00    +0.309 C 
ATOM     24  O   UNL     1       4.320  -7.184  25.430  0.00  0.00    -0.251 OA
ENDBRANCH  21  23
ENDBRANCH   1  21
BRANCH   2  25
ATOM     25  O   UNL     1       6.396  -5.394  23.482  0.00  0.00    -0.422 OA
BRANCH  25  26
ATOM     26  C   UNL     1       5.466  -5.517  22.444  0.00  0.00    +0.309 C 
ATOM     27  O   UNL     1       4.251  -5.452  22.532  0.00  0.00    -0.251 OA
ATOM     28  C   UNL     1       6.240  -5.692  21.160  0.00  0.00    +0.136 C 
ENDBRANCH  25  26
ENDBRANCH   2  25
TORSDOF 9
ENDMDL
MODEL 5
REMARK VINA RESULT:      -6.5      2.747      4.749
REMARK  Name = 
REMARK  11 active torsions:
REMARK  status: ('A' for Active; 'I' for Inactive)
REMARK    1  A    between atoms: C_1  and  C_2
REMARK    2  A    between atoms: C_2  and  O_4
REMARK    3  A    between atoms: O_4  and  C_5
REMARK    4  A    between atoms: C_8  and  C_9
REMARK    5  A    between atoms: C_10  and  C_11
REMARK    6  A    between atoms: N_13  and  C_14
REMARK    7  A    between atoms: C_14  and  C_15
REMARK    8  A    between atoms: C_15  and  C_16
REMARK    9  A    between atoms: C_23  and  O_24
REMARK   10  A    between atoms: O_24  and  C_25
REMARK   11  A    between atoms: C_25  and  C_26
REMARK                            x       y       z     vdW  Elec       q    Type
REMARK                         _______ _______ _______ _____ _____    ______ ____
ROOT
ATOM      1  C   UNL     1       5.900  -5.995  25.906  0.00  0.00    +0.174 A 
ATOM      2  C   UNL     1       6.567  -5.174  26.811  0.00  0.00    +0.174 A 
ATOM      3  C   UNL     1       7.290  -4.053  26.360  0.00  0.00    +0.058 A 
ATOM      4  C   UNL     1       7.347  -3.737  25.002  0.00  0.00    -0.021 A 
ATOM      5  C   UNL     1       6.660  -4.551  24.099  0.00  0.00    +0.012 A 
ATOM      6  C   UNL     1       5.927  -5.653  24.546  0.00  0.00    +0.051 A 
ENDROOT
BRANCH   4   7
ATOM      7  C   UNL     1       8.148  -2.630  24.461  0.00  0.00    +0.013 C 
ATOM      8  C   UNL     1       9.462  -2.655  24.184  0.00  0.00    +0.068 C 
BRANCH   8   9
ATOM      9  C   UNL     1      10.084  -1.410  23.665  0.00  0.00    +0.237 C 
ATOM     10  N   UNL     1      10.086  -0.369  24.565  0.00  0.00    -0.312 N 
ATOM     11  H   UNL     1       9.712  -0.492  25.493  0.00  0.00    +0.149 HD
ATOM     12  O   UNL     1      10.558  -1.327  22.538  0.00  0.00    -0.271 OA
BRANCH  10  13
ATOM     13  C   UNL     1      10.691   0.900  24.190  0.00  0.00    +0.109 C 
BRANCH  13  14
ATOM     14  C   UNL     1       9.680   1.903  23.639  0.00  0.00    +0.054 C 
BRANCH  14  15
ATOM     15  C   UNL     1      10.210   3.316  23.687  0.00  0.00    -0.046 A 
ATOM     16  C   UNL     1      11.543   3.584  23.347  0.00  0.00    +0.004 A 
ATOM     17  C   UNL     1      12.028   4.894  23.362  0.00  0.00    +0.000 A 
ATOM     18  C   UNL     1      11.187   5.946  23.715  0.00  0.00    +0.000 A 
ATOM     19  C   UNL     1       9.860   5.691  24.052  0.00  0.00    +0.000 A 
ATOM     20  C   UNL     1       9.371   4.382  24.036  0.00  0.00    +0.004 A 
ENDBRANCH  14  15
ENDBRANCH  13  14
ENDBRANCH  10  13
ENDBRANCH   8   9
ENDBRANCH   4   7
BRANCH   1  21
ATOM     21  O   UNL     1       5.102  -7.075  26.314  0.00  0.00    -0.422 OA
BRANCH  21  23
ATOM     22  C   UNL     1       2.911  -6.156  26.436  0.00  0.00    +0.136 C 
ATOM     23  C   UNL     1       3.814  -7.158  25.777  0.00  0.00    +0.309 C 
ATOM     24  O   UNL     1       3.443  -7.905  24.879  0.00  0.00    -0.251 OA
ENDBRANCH  21  23
ENDBRANCH   1  21
BRANCH   2  25
ATOM     25  O   UNL     1       6.632  -5.297  28.230  0.00  0.00    -0.422 OA
BRANCH  25  26
ATOM     26  C   UNL     1       6.258  -6.252  29.181  0.00  0.00    +0.309 C 
ATOM     27  O   UNL     1       6.609  -7.420  29.231  0.00  0.00    -0.251 OA
ATOM     28  C   UNL     1       5.369  -5.564  30.189  0.00  0.00    +0.136 C 
ENDBRANCH  25  26
ENDBRANCH   2  25
TORSDOF 9
ENDMDL
MODEL 6
REMARK VINA RESULT:      -6.5      2.553      4.303
REMARK  Name = 
REMARK  11 active torsions:
REMARK  status: ('A' for Active; 'I' for Inactive)
REMARK    1  A    between atoms: C_1  and  C_2
REMARK    2  A    between atoms: C_2  and  O_4
REMARK    3  A    between atoms: O_4  and  C_5
REMARK    4  A    between atoms: C_8  and  C_9
REMARK    5  A    between atoms: C_10  and  C_11
REMARK    6  A    between atoms: N_13  and  C_14
REMARK    7  A    between atoms: C_14  and  C_15
REMARK    8  A    between atoms: C_15  and  C_16
REMARK    9  A    between atoms: C_23  and  O_24
REMARK   10  A    between atoms: O_24  and  C_25
REMARK   11  A    between atoms: C_25  and  C_26
REMARK                            x       y       z     vdW  Elec       q    Type
REMARK                         _______ _______ _______ _____ _____    ______ ____
ROOT
ATOM      1  C   UNL     1       4.713  -6.677  24.244  0.00  0.00    +0.174 A 
ATOM      2  C   UNL     1       5.521  -6.155  25.251  0.00  0.00    +0.174 A 
ATOM      3  C   UNL     1       6.393  -5.082  24.984  0.00  0.00    +0.058 A 
ATOM      4  C   UNL     1       6.461  -4.516  23.711  0.00  0.00    -0.021 A 
ATOM      5  C   UNL     1       5.635  -5.028  22.708  0.00  0.00    +0.012 A 
ATOM      6  C   UNL     1       4.756  -6.080  22.976  0.00  0.00    +0.051 A 
ENDROOT
BRANCH   4   7
ATOM      7  C   UNL     1       7.405  -3.450  23.348  0.00  0.00    +0.013 C 
ATOM      8  C   UNL     1       8.420  -2.991  24.098  0.00  0.00    +0.068 C 
BRANCH   8   9
ATOM      9  C   UNL     1       9.242  -1.882  23.548  0.00  0.00    +0.237 C 
ATOM     10  N   UNL     1       8.990  -1.603  22.225  0.00  0.00    -0.312 N 
ATOM     11  H   UNL     1       8.282  -2.111  21.718  0.00  0.00    +0.149 HD
ATOM     12  O   UNL     1      10.065  -1.272  24.221  0.00  0.00    -0.271 OA
BRANCH  10  13
ATOM     13  C   UNL     1       9.709  -0.519  21.573  0.00  0.00    +0.109 C 
BRANCH  13  14
ATOM     14  C   UNL     1       8.816   0.671  21.234  0.00  0.00    +0.054 C 
BRANCH  14  15
ATOM     15  C   UNL     1       9.088   1.852  22.136  0.00  0.00    -0.046 A 
ATOM     16  C   UNL     1      10.378   2.077  22.636  0.00  0.00    +0.004 A 
ATOM     17  C   UNL     1      10.639   3.184  23.447  0.00  0.00    +0.000 A 
ATOM     18  C   UNL     1       9.617   4.075  23.764  0.00  0.00    +0.000 A 
ATOM     19  C   UNL     1       8.332   3.861  23.270  0.00  0.00    +0.000 A 
ATOM     20  C   UNL     1       8.068   2.756  22.457  0.00  0.00    +0.004 A 
ENDBRANCH  14  15
ENDBRANCH  13  14
ENDBRANCH  10  13
ENDBRANCH   8   9
ENDBRANCH   4   7
BRANCH   1  21
ATOM     21  O   UNL     1       3.773  -7.691  24.481  0.00  0.00    -0.422 OA
BRANCH  21  23
ATOM     22  C   UNL     1       1.658  -8.217  23.527  0.00  0.00    +0.136 C 
ATOM     23  C   UNL     1       2.423  -7.328  24.465  0.00  0.00    +0.309 C 
ATOM     24  O   UNL     1       1.897  -6.442  25.127  0.00  0.00    -0.251 OA
ENDBRANCH  21  23
ENDBRANCH   1  21
BRANCH   2  25
ATOM     25  O   UNL     1       5.604  -6.565  26.615  0.00  0.00    -0.422 OA
BRANCH  25  26
ATOM     26  C   UNL     1       6.067  -6.009  27.812  0.00  0.00    +0.309 C 
ATOM     27  O   UNL     1       7.189  -6.102  28.282  0.00  0.00    -0.251 OA
ATOM     28  C   UNL     1       4.933  -5.213  28.410  0.00  0.00    +0.136 C 
ENDBRANCH  25  26
ENDBRANCH   2  25
TORSDOF 9
ENDMDL
MODEL 7
REMARK VINA RESULT:      -6.3      2.315      3.422
REMARK  Name = 
REMARK  11 active torsions:
REMARK  status: ('A' for Active; 'I' for Inactive)
REMARK    1  A    between atoms: C_1  and  C_2
REMARK    2  A    between atoms: C_2  and  O_4
REMARK    3  A    between atoms: O_4  and  C_5
REMARK    4  A    between atoms: C_8  and  C_9
REMARK    5  A    between atoms: C_10  and  C_11
REMARK    6  A    between atoms: N_13  and  C_14
REMARK    7  A    between atoms: C_14  and  C_15
REMARK    8  A    between atoms: C_15  and  C_16
REMARK    9  A    between atoms: C_23  and  O_24
REMARK   10  A    between atoms: O_24  and  C_25
REMARK   11  A    between atoms: C_25  and  C_26
REMARK                            x       y       z     vdW  Elec       q    Type
REMARK                         _______ _______ _______ _____ _____    ______ ____
ROOT
ATOM      1  C   UNL     1       7.575  -4.681  25.733  0.00  0.00    +0.174 A 
ATOM      2  C   UNL     1       7.319  -4.517  24.374  0.00  0.00    +0.174 A 
ATOM      3  C   UNL     1       7.722  -3.344  23.707  0.00  0.00    +0.058 A 
ATOM      4  C   UNL     1       8.390  -2.327  24.390  0.00  0.00    -0.021 A 
ATOM      5  C   UNL     1       8.662  -2.503  25.748  0.00  0.00    +0.012 A 
ATOM      6  C   UNL     1       8.280  -3.674  26.407  0.00  0.00    +0.051 A 
ENDROOT
BRANCH   4   7
ATOM      7  C   UNL     1       8.764  -1.047  23.772  0.00  0.00    +0.013 C 
ATOM      8  C   UNL     1      10.006  -0.641  23.463  0.00  0.00    +0.068 C 
BRANCH   8   9
ATOM      9  C   UNL     1      10.164   0.710  22.864  0.00  0.00    +0.237 C 
ATOM     10  N   UNL     1      10.524   1.683  23.769  0.00  0.00    -0.312 N 
ATOM     11  H   UNL     1      10.683   1.451  24.737  0.00  0.00    +0.149 HD
ATOM     12  O   UNL     1       9.995   0.928  21.671  0.00  0.00    -0.271 OA
BRANCH  10  13
ATOM     13  C   UNL     1      10.739   3.045  23.305  0.00  0.00    +0.109 C 
BRANCH  13  14
ATOM     14  C   UNL     1       9.692   4.025  23.829  0.00  0.00    +0.054 C 
BRANCH  14  15
ATOM     15  C   UNL     1       8.288   3.498  23.644  0.00  0.00    -0.046 A 
ATOM     16  C   UNL     1       7.582   2.967  24.731  0.00  0.00    +0.004 A 
ATOM     17  C   UNL     1       6.274   2.506  24.568  0.00  0.00    +0.000 A 
ATOM     18  C   UNL     1       5.660   2.572  23.320  0.00  0.00    +0.000 A 
ATOM     19  C   UNL     1       6.352   3.101  22.233  0.00  0.00    +0.000 A 
ATOM     20  C   UNL     1       7.660   3.565  22.393  0.00  0.00    +0.004 A 
ENDBRANCH  14  15
ENDBRANCH  13  14
ENDBRANCH  10  13
ENDBRANCH   8   9
ENDBRANCH   4   7
BRANCH   1  21
ATOM     21  O   UNL     1       7.265  -5.864  26.421  0.00  0.00    -0.422 OA
BRANCH  21  23
ATOM     22  C   UNL     1       4.945  -6.023  26.920  0.00  0.00    +0.136 C 
ATOM     23  C   UNL     1       6.327  -5.778  27.453  0.00  0.00    +0.309 C 
ATOM     24  O   UNL     1       6.561  -5.565  28.637  0.00  0.00    -0.251 OA
ENDBRANCH  21  23
ENDBRANCH   1  21
BRANCH   2  25
ATOM     25  O   UNL     1       6.671  -5.424  23.484  0.00  0.00    -0.422 OA
BRANCH  25  26
ATOM     26  C   UNL     1       5.733  -5.330  22.450  0.00  0.00    +0.309 C 
ATOM     27  O   UNL     1       4.582  -4.934  22.532  0.00  0.00    -0.251 OA
ATOM     28  C   UNL     1       6.419  -5.761  21.176  0.00  0.00    +0.136 C 
ENDBRANCH  25  26
ENDBRANCH   2  25
TORSDOF 9
ENDMDL
MODEL 8
REMARK VINA RESULT:      -6.3      2.562      4.145
REMARK  Name = 
REMARK  11 active torsions:
REMARK  status: ('A' for Active; 'I' for Inactive)
REMARK    1  A    between atoms: C_1  and  C_2
REMARK    2  A    between atoms: C_2  and  O_4
REMARK    3  A    between atoms: O_4  and  C_5
REMARK    4  A    between atoms: C_8  and  C_9
REMARK    5  A    between atoms: C_10  and  C_11
REMARK    6  A    between atoms: N_13  and  C_14
REMARK    7  A    between atoms: C_14  and  C_15
REMARK    8  A    between atoms: C_15  and  C_16
REMARK    9  A    between atoms: C_23  and  O_24
REMARK   10  A    between atoms: O_24  and  C_25
REMARK   11  A    between atoms: C_25  and  C_26
REMARK                            x       y       z     vdW  Elec       q    Type
REMARK                         _______ _______ _______ _____ _____    ______ ____
ROOT
ATOM      1  C   UNL     1       5.982  -6.098  26.408  0.00  0.00    +0.174 A 
ATOM      2  C   UNL     1       5.760  -5.936  25.043  0.00  0.00    +0.174 A 
ATOM      3  C   UNL     1       6.499  -4.990  24.306  0.00  0.00    +0.058 A 
ATOM      4  C   UNL     1       7.471  -4.204  24.925  0.00  0.00    -0.021 A 
ATOM      5  C   UNL     1       7.705  -4.383  26.290  0.00  0.00    +0.012 A 
ATOM      6  C   UNL     1       6.986  -5.333  27.018  0.00  0.00    +0.051 A 
ENDROOT
BRANCH   4   7
ATOM      7  C   UNL     1       8.218  -3.145  24.230  0.00  0.00    +0.013 C 
ATOM      8  C   UNL     1       9.552  -2.993  24.205  0.00  0.00    +0.068 C 
BRANCH   8   9
ATOM      9  C   UNL     1      10.103  -1.832  23.460  0.00  0.00    +0.237 C 
ATOM     10  N   UNL     1       9.926  -0.625  24.096  0.00  0.00    -0.312 N 
ATOM     11  H   UNL     1       9.481  -0.581  24.999  0.00  0.00    +0.149 HD
ATOM     12  O   UNL     1      10.669  -1.948  22.379  0.00  0.00    -0.271 OA
BRANCH  10  13
ATOM     13  C   UNL     1      10.444   0.589  23.483  0.00  0.00    +0.109 C 
BRANCH  13  14
ATOM     14  C   UNL     1       9.594   1.076  22.313  0.00  0.00    +0.054 C 
BRANCH  14  15
ATOM     15  C   UNL     1       8.958   2.416  22.602  0.00  0.00    -0.046 A 
ATOM     16  C   UNL     1       7.775   2.793  21.952  0.00  0.00    +0.004 A 
ATOM     17  C   UNL     1       7.170   4.019  22.239  0.00  0.00    +0.000 A 
ATOM     18  C   UNL     1       7.739   4.876  23.177  0.00  0.00    +0.000 A 
ATOM     19  C   UNL     1       8.913   4.510  23.831  0.00  0.00    +0.000 A 
ATOM     20  C   UNL     1       9.520   3.284  23.547  0.00  0.00    +0.004 A 
ENDBRANCH  14  15
ENDBRANCH  13  14
ENDBRANCH  10  13
ENDBRANCH   8   9
ENDBRANCH   4   7
BRANCH   1  21
ATOM     21  O   UNL     1       5.328  -7.081  27.167  0.00  0.00    -0.422 OA
BRANCH  21  23
ATOM     22  C   UNL     1       3.477  -5.811  27.954  0.00  0.00    +0.136 C 
ATOM     23  C   UNL     1       4.659  -6.661  28.320  0.00  0.00    +0.309 C 
ATOM     24  O   UNL     1       4.947  -6.948  29.476  0.00  0.00    -0.251 OA
ENDBRANCH  21  23
ENDBRANCH   1  21
BRANCH   2  25
ATOM     25  O   UNL     1       4.836  -6.636  24.212  0.00  0.00    -0.422 OA
BRANCH  25  26
ATOM     26  C   UNL     1       3.507  -7.059  24.309  0.00  0.00    +0.309 C 
ATOM     27  O   UNL     1       3.108  -8.174  24.598  0.00  0.00    -0.251 OA
ATOM     28  C   UNL     1       2.629  -5.860  24.041  0.00  0.00    +0.136 C 
ENDBRANCH  25  26
ENDBRANCH   2  25
TORSDOF 9
ENDMDL
MODEL 9
REMARK VINA RESULT:      -6.2      3.208      9.018
REMARK  Name = 
REMARK  11 active torsions:
REMARK  status: ('A' for Active; 'I' for Inactive)
REMARK    1  A    between atoms: C_1  and  C_2
REMARK    2  A    between atoms: C_2  and  O_4
REMARK    3  A    between atoms: O_4  and  C_5
REMARK    4  A    between atoms: C_8  and  C_9
REMARK    5  A    between atoms: C_10  and  C_11
REMARK    6  A    between atoms: N_13  and  C_14
REMARK    7  A    between atoms: C_14  and  C_15
REMARK    8  A    between atoms: C_15  and  C_16
REMARK    9  A    between atoms: C_23  and  O_24
REMARK   10  A    between atoms: O_24  and  C_25
REMARK   11  A    between atoms: C_25  and  C_26
REMARK                            x       y       z     vdW  Elec       q    Type
REMARK                         _______ _______ _______ _____ _____    ______ ____
ROOT
ATOM      1  C   UNL     1       9.801   4.004  23.870  0.00  0.00    +0.174 A 
ATOM      2  C   UNL     1       8.768   3.476  24.641  0.00  0.00    +0.174 A 
ATOM      3  C   UNL     1       8.757   2.109  24.982  0.00  0.00    +0.058 A 
ATOM      4  C   UNL     1       9.781   1.260  24.563  0.00  0.00    -0.021 A 
ATOM      5  C   UNL     1      10.825   1.796  23.806  0.00  0.00    +0.012 A 
ATOM      6  C   UNL     1      10.847   3.154  23.483  0.00  0.00    +0.051 A 
ENDROOT
BRANCH   4   7
ATOM      7  C   UNL     1       9.786  -0.188  24.817  0.00  0.00    +0.013 C 
ATOM      8  C   UNL     1       9.381  -1.149  23.972  0.00  0.00    +0.068 C 
BRANCH   8   9
ATOM      9  C   UNL     1       9.447  -2.558  24.442  0.00  0.00    +0.237 C 
ATOM     10  N   UNL     1       8.549  -2.856  25.441  0.00  0.00    -0.312 N 
ATOM     11  H   UNL     1       7.903  -2.158  25.776  0.00  0.00    +0.149 HD
ATOM     12  O   UNL     1      10.229  -3.376  23.972  0.00  0.00    -0.271 OA
BRANCH  10  13
ATOM     13  C   UNL     1       8.492  -4.209  25.971  0.00  0.00    +0.109 C 
BRANCH  13  14
ATOM     14  C   UNL     1       7.160  -4.902  25.696  0.00  0.00    +0.054 C 
BRANCH  14  15
ATOM     15  C   UNL     1       6.776  -4.821  24.238  0.00  0.00    -0.046 A 
ATOM     16  C   UNL     1       7.511  -5.521  23.272  0.00  0.00    +0.004 A 
ATOM     17  C   UNL     1       7.142  -5.471  21.926  0.00  0.00    +0.000 A 
ATOM     18  C   UNL     1       6.035  -4.723  21.534  0.00  0.00    +0.000 A 
ATOM     19  C   UNL     1       5.295  -4.025  22.486  0.00  0.00    +0.000 A 
ATOM     20  C   UNL     1       5.662  -4.075  23.833  0.00  0.00    +0.004 A 
ENDBRANCH  14  15
ENDBRANCH  13  14
ENDBRANCH  10  13
ENDBRANCH   8   9
ENDBRANCH   4   7
BRANCH   1  21
ATOM     21  O   UNL     1       9.897   5.371  23.573  0.00  0.00    -0.422 OA
BRANCH  21  23
ATOM     22  C   UNL     1      10.466   6.825  25.368  0.00  0.00    +0.136 C 
ATOM     23  C   UNL     1      10.950   6.081  24.157  0.00  0.00    +0.309 C 
ATOM     24  O   UNL     1      12.117   6.096  23.782  0.00  0.00    -0.251 OA
ENDBRANCH  21  23
ENDBRANCH   1  21
BRANCH   2  25
ATOM     25  O   UNL     1       7.639   4.156  25.185  0.00  0.00    -0.422 OA
BRANCH  25  26
ATOM     26  C   UNL     1       7.419   5.129  26.166  0.00  0.00    +0.309 C 
ATOM     27  O   UNL     1       7.753   5.081  27.339  0.00  0.00    -0.251 OA
ATOM     28  C   UNL     1       6.732   6.297  25.500  0.00  0.00    +0.136 C 
ENDBRANCH  25  26
ENDBRANCH   2  25
TORSDOF 9
ENDMDL
