MODEL 1
REMARK VINA RESULT:      -6.6      0.000      0.000
REMARK  Name = 
REMARK  21 active torsions:
REMARK  status: ('A' for Active; 'I' for Inactive)
REMARK    1  A    between atoms: C_1  and  C_2
REMARK    2  A    between atoms: C_2  and  C_3
REMARK    3  A    between atoms: C_3  and  C_4
REMARK    4  A    between atoms: C_4  and  C_5
REMARK    5  A    between atoms: C_5  and  C_6
REMARK    6  A    between atoms: C_6  and  C_7
REMARK    7  A    between atoms: C_7  and  C_8
REMARK    8  A    between atoms: C_8  and  O_10
REMARK    9  A    between atoms: O_10  and  C_11
REMARK   10  A    between atoms: C_11  and  C_12
REMARK   11  A    between atoms: C_15  and  C_16
REMARK   12  A    between atoms: C_15  and  O_18
REMARK   13  A    between atoms: C_16  and  O_17
REMARK   14  A    between atoms: O_18  and  C_19
REMARK   15  A    between atoms: C_22  and  C_24
REMARK   16  A    between atoms: C_24  and  O_25
REMARK   17  A    between atoms: C_26  and  O_28
REMARK   18  A    between atoms: C_29  and  O_31
REMARK   19  A    between atoms: C_32  and  O_34
REMARK   20  A    between atoms: C_35  and  O_37
REMARK   21  A    between atoms: C_38  and  O_40
REMARK                            x       y       z     vdW  Elec       q    Type
REMARK                         _______ _______ _______ _____ _____    ______ ____
ROOT
ATOM      1  C   UNL     1       9.988   0.041  25.141  0.00  0.00    +0.190 C 
ATOM      2  C   UNL     1       8.599   0.664  25.252  0.00  0.00    +0.180 C 
ATOM      3  C   UNL     1       7.670  -0.273  24.472  0.00  0.00    +0.207 C 
ATOM      4  C   UNL     1       8.601  -1.321  23.812  0.00  0.00    +0.225 C 
ATOM      5  O   UNL     1       9.802  -1.273  24.595  0.00  0.00    -0.335 OA
ENDROOT
BRANCH   2   6
ATOM      6  O   UNL     1       8.191   0.687  26.633  0.00  0.00    -0.386 OA
ATOM      7  H   UNL     1       8.937   0.394  27.189  0.00  0.00    +0.210 HD
ENDBRANCH   2   6
BRANCH   3   8
ATOM      8  O   UNL     1       6.844   0.437  23.549  0.00  0.00    -0.384 OA
ATOM      9  H   UNL     1       6.493   1.206  24.043  0.00  0.00    +0.210 HD
ENDBRANCH   3   8
BRANCH   1  10
ATOM     10  C   UNL     1      10.956   0.818  24.246  0.00  0.00    +0.266 C 
BRANCH  10  11
ATOM     11  O   UNL     1      10.548   2.184  24.105  0.00  0.00    -0.462 OA
BRANCH  11  12
ATOM     12  C   UNL     1       9.990   2.505  22.906  0.00  0.00    +0.307 C 
ATOM     13  O   UNL     1      10.265   1.984  21.834  0.00  0.00    -0.251 OA
BRANCH  12  14
ATOM     14  C   UNL     1       8.901   3.527  23.084  0.00  0.00    +0.120 C 
BRANCH  14  15
ATOM     15  C   UNL     1       9.200   4.483  24.229  0.00  0.00    +0.011 C 
BRANCH  15  16
ATOM     16  C   UNL     1       9.920   5.727  23.721  0.00  0.00    +0.001 C 
BRANCH  16  17
ATOM     17  C   UNL     1      10.857   6.284  24.788  0.00  0.00    +0.000 C 
BRANCH  17  18
ATOM     18  C   UNL     1      12.299   6.301  24.291  0.00  0.00    -0.000 C 
BRANCH  18  20
ATOM     19  C   UNL     1      13.293   5.626  22.086  0.00  0.00    +0.004 C 
ATOM     20  C   UNL     1      12.564   5.145  23.330  0.00  0.00    -0.003 C 
ENDBRANCH  18  20
ENDBRANCH  17  18
ENDBRANCH  16  17
ENDBRANCH  15  16
ENDBRANCH  14  15
ENDBRANCH  12  14
ENDBRANCH  11  12
ENDBRANCH  10  11
ENDBRANCH   1  10
BRANCH   4  21
ATOM     21  C   UNL     1       8.901  -1.010  22.316  0.00  0.00    +0.223 C 
BRANCH  21  22
ATOM     22  O   UNL     1      10.076  -1.655  21.833  0.00  0.00    -0.390 OA
ATOM     23  H   UNL     1      10.807  -1.024  21.987  0.00  0.00    +0.210 HD
ENDBRANCH  21  22
ENDBRANCH   4  21
BRANCH   4  24
ATOM     24  O   UNL     1       7.942  -2.605  23.983  0.00  0.00    -0.313 OA
BRANCH  24  25
ATOM     25  C   UNL     1       8.626  -3.520  24.853  0.00  0.00    +0.285 C 
ATOM     26  C   UNL     1       8.386  -5.013  24.453  0.00  0.00    +0.201 C 
ATOM     27  C   UNL     1       7.212  -5.712  25.177  0.00  0.00    +0.179 C 
ATOM     28  C   UNL     1       7.026  -5.206  26.612  0.00  0.00    +0.177 C 
ATOM     29  C   UNL     1       7.053  -3.682  26.709  0.00  0.00    +0.178 C 
ATOM     30  O   UNL     1       8.325  -3.239  26.220  0.00  0.00    -0.340 OA
BRANCH  28  31
ATOM     31  O   UNL     1       8.123  -5.727  27.405  0.00  0.00    -0.386 OA
ATOM     32  H   UNL     1       7.788  -6.496  27.904  0.00  0.00    +0.210 HD
ENDBRANCH  28  31
BRANCH  27  33
ATOM     33  O   UNL     1       6.006  -5.671  24.414  0.00  0.00    -0.386 OA
ATOM     34  H   UNL     1       5.706  -6.585  24.228  0.00  0.00    +0.210 HD
ENDBRANCH  27  33
BRANCH  26  35
ATOM     35  O   UNL     1       9.602  -5.750  24.728  0.00  0.00    -0.384 OA
ATOM     36  H   UNL     1       9.378  -6.697  24.813  0.00  0.00    +0.210 HD
ENDBRANCH  26  35
BRANCH  29  37
ATOM     37  C   UNL     1       5.815  -2.954  26.149  0.00  0.00    +0.190 C 
BRANCH  37  38
ATOM     38  O   UNL     1       4.605  -3.699  26.218  0.00  0.00    -0.392 OA
ATOM     39  H   UNL     1       4.739  -4.378  26.913  0.00  0.00    +0.210 HD
ENDBRANCH  37  38
ENDBRANCH  29  37
ENDBRANCH  24  25
ENDBRANCH   4  24
TORSDOF 20
ENDMDL
MODEL 2
REMARK VINA RESULT:      -6.4      2.753      8.891
REMARK  Name = 
REMARK  21 active torsions:
REMARK  status: ('A' for Active; 'I' for Inactive)
REMARK    1  A    between atoms: C_1  and  C_2
REMARK    2  A    between atoms: C_2  and  C_3
REMARK    3  A    between atoms: C_3  and  C_4
REMARK    4  A    between atoms: C_4  and  C_5
REMARK    5  A    between atoms: C_5  and  C_6
REMARK    6  A    between atoms: C_6  and  C_7
REMARK    7  A    between atoms: C_7  and  C_8
REMARK    8  A    between atoms: C_8  and  O_10
REMARK    9  A    between atoms: O_10  and  C_11
REMARK   10  A    between atoms: C_11  and  C_12
REMARK   11  A    between atoms: C_15  and  C_16
REMARK   12  A    between atoms: C_15  and  O_18
REMARK   13  A    between atoms: C_16  and  O_17
REMARK   14  A    between atoms: O_18  and  C_19
REMARK   15  A    between atoms: C_22  and  C_24
REMARK   16  A    between atoms: C_24  and  O_25
REMARK   17  A    between atoms: C_26  and  O_28
REMARK   18  A    between atoms: C_29  and  O_31
REMARK   19  A    between atoms: C_32  and  O_34
REMARK   20  A    between atoms: C_35  and  O_37
REMARK   21  A    between atoms: C_38  and  O_40
REMARK                            x       y       z     vdW  Elec       q    Type
REMARK                         _______ _______ _______ _____ _____    ______ ____
ROOT
ATOM      1  C   UNL     1       8.511  -4.642  26.520  0.00  0.00    +0.190 C 
ATOM      2  C   UNL     1       8.818  -5.088  25.093  0.00  0.00    +0.180 C 
ATOM      3  C   UNL     1       8.416  -3.908  24.203  0.00  0.00    +0.207 C 
ATOM      4  C   UNL     1       7.747  -2.884  25.153  0.00  0.00    +0.225 C 
ATOM      5  O   UNL     1       8.235  -3.236  26.455  0.00  0.00    -0.335 OA
ENDROOT
BRANCH   2   6
ATOM      6  O   UNL     1      10.233  -5.321  24.956  0.00  0.00    -0.386 OA
ATOM      7  H   UNL     1      10.685  -5.007  25.760  0.00  0.00    +0.210 HD
ENDBRANCH   2   6
BRANCH   3   8
ATOM      8  O   UNL     1       7.592  -4.315  23.110  0.00  0.00    -0.384 OA
ATOM      9  H   UNL     1       8.151  -4.233  22.310  0.00  0.00    +0.210 HD
ENDBRANCH   3   8
BRANCH   1  10
ATOM     10  C   UNL     1       7.316  -5.354  27.158  0.00  0.00    +0.266 C 
BRANCH  10  11
ATOM     11  O   UNL     1       6.607  -6.142  26.193  0.00  0.00    -0.462 OA
BRANCH  11  12
ATOM     12  C   UNL     1       5.383  -6.586  26.590  0.00  0.00    +0.307 C 
ATOM     13  O   UNL     1       5.109  -7.013  27.702  0.00  0.00    -0.251 OA
BRANCH  12  14
ATOM     14  C   UNL     1       4.368  -6.385  25.499  0.00  0.00    +0.120 C 
BRANCH  14  15
ATOM     15  C   UNL     1       5.007  -6.388  24.118  0.00  0.00    +0.011 C 
BRANCH  15  16
ATOM     16  C   UNL     1       4.132  -5.647  23.114  0.00  0.00    +0.001 C 
BRANCH  16  17
ATOM     17  C   UNL     1       2.803  -5.247  23.748  0.00  0.00    +0.000 C 
BRANCH  17  18
ATOM     18  C   UNL     1       1.629  -5.831  22.968  0.00  0.00    -0.000 C 
BRANCH  18  20
ATOM     19  C   UNL     1       1.029  -7.955  21.771  0.00  0.00    +0.004 C 
ATOM     20  C   UNL     1       1.633  -7.356  23.031  0.00  0.00    -0.003 C 
ENDBRANCH  18  20
ENDBRANCH  17  18
ENDBRANCH  16  17
ENDBRANCH  15  16
ENDBRANCH  14  15
ENDBRANCH  12  14
ENDBRANCH  11  12
ENDBRANCH  10  11
ENDBRANCH   1  10
BRANCH   4  21
ATOM     21  C   UNL     1       6.192  -2.940  25.108  0.00  0.00    +0.223 C 
BRANCH  21  22
ATOM     22  O   UNL     1       5.639  -2.304  23.960  0.00  0.00    -0.390 OA
ATOM     23  H   UNL     1       5.474  -3.019  23.314  0.00  0.00    +0.210 HD
ENDBRANCH  21  22
ENDBRANCH   4  21
BRANCH   4  24
ATOM     24  O   UNL     1       8.259  -1.581  24.762  0.00  0.00    -0.313 OA
BRANCH  24  25
ATOM     25  C   UNL     1       8.625  -1.471  23.377  0.00  0.00    +0.285 C 
ATOM     26  C   UNL     1      10.076  -0.919  23.188  0.00  0.00    +0.201 C 
ATOM     27  C   UNL     1      10.184   0.612  23.002  0.00  0.00    +0.179 C 
ATOM     28  C   UNL     1       8.980   1.195  22.253  0.00  0.00    +0.177 C 
ATOM     29  C   UNL     1       7.645   0.684  22.793  0.00  0.00    +0.178 C 
ATOM     30  O   UNL     1       7.638  -0.742  22.649  0.00  0.00    -0.340 OA
BRANCH  28  31
ATOM     31  O   UNL     1       9.090   0.789  20.865  0.00  0.00    -0.386 OA
ATOM     32  H   UNL     1       9.986   1.026  20.558  0.00  0.00    +0.210 HD
ENDBRANCH  28  31
BRANCH  27  33
ATOM     33  O   UNL     1      10.454   1.289  24.230  0.00  0.00    -0.386 OA
ATOM     34  H   UNL     1       9.610   1.506  24.675  0.00  0.00    +0.210 HD
ENDBRANCH  27  33
BRANCH  26  35
ATOM     35  O   UNL     1      10.654  -1.566  22.029  0.00  0.00    -0.384 OA
ATOM     36  H   UNL     1      11.524  -1.931  22.278  0.00  0.00    +0.210 HD
ENDBRANCH  26  35
BRANCH  29  37
ATOM     37  C   UNL     1       7.225   1.234  24.170  0.00  0.00    +0.190 C 
BRANCH  37  38
ATOM     38  O   UNL     1       6.118   0.567  24.765  0.00  0.00    -0.392 OA
ATOM     39  H   UNL     1       5.313   1.003  24.414  0.00  0.00    +0.210 HD
ENDBRANCH  37  38
ENDBRANCH  29  37
ENDBRANCH  24  25
ENDBRANCH   4  24
TORSDOF 20
ENDMDL
MODEL 3
REMARK VINA RESULT:      -6.4      2.314      4.841
REMARK  Name = 
REMARK  21 active torsions:
REMARK  status: ('A' for Active; 'I' for Inactive)
REMARK    1  A    between atoms: C_1  and  C_2
REMARK    2  A    between atoms: C_2  and  C_3
REMARK    3  A    between atoms: C_3  and  C_4
REMARK    4  A    between atoms: C_4  and  C_5
REMARK    5  A    between atoms: C_5  and  C_6
REMARK    6  A    between atoms: C_6  and  C_7
REMARK    7  A    between atoms: C_7  and  C_8
REMARK    8  A    between atoms: C_8  and  O_10
REMARK    9  A    between atoms: O_10  and  C_11
REMARK   10  A    between atoms: C_11  and  C_12
REMARK   11  A    between atoms: C_15  and  C_16
REMARK   12  A    between atoms: C_15  and  O_18
REMARK   13  A    between atoms: C_16  and  O_17
REMARK   14  A    between atoms: O_18  and  C_19
REMARK   15  A    between atoms: C_22  and  C_24
REMARK   16  A    between atoms: C_24  and  O_25
REMARK   17  A    between atoms: C_26  and  O_28
REMARK   18  A    between atoms: C_29  and  O_31
REMARK   19  A    between atoms: C_32  and  O_34
REMARK   20  A    between atoms: C_35  and  O_37
REMARK   21  A    between atoms: C_38  and  O_40
REMARK                            x       y       z     vdW  Elec       q    Type
REMARK                         _______ _______ _______ _____ _____    ______ ____
ROOT
ATOM      1  C   UNL     1       7.575  -2.419  24.454  0.00  0.00    +0.190 C 
ATOM      2  C   UNL     1       8.251  -3.459  23.564  0.00  0.00    +0.180 C 
ATOM      3  C   UNL     1       7.877  -4.816  24.169  0.00  0.00    +0.207 C 
ATOM      4  C   UNL     1       7.123  -4.488  25.482  0.00  0.00    +0.225 C 
ATOM      5  O   UNL     1       6.672  -3.138  25.305  0.00  0.00    -0.335 OA
ENDROOT
BRANCH   2   6
ATOM      6  O   UNL     1       7.711  -3.374  22.231  0.00  0.00    -0.386 OA
ATOM      7  H   UNL     1       6.737  -3.371  22.282  0.00  0.00    +0.210 HD
ENDBRANCH   2   6
BRANCH   3   8
ATOM      8  O   UNL     1       9.018  -5.657  24.345  0.00  0.00    -0.384 OA
ATOM      9  H   UNL     1       9.792  -5.058  24.348  0.00  0.00    +0.210 HD
ENDBRANCH   3   8
BRANCH   1  10
ATOM     10  C   UNL     1       8.541  -1.613  25.324  0.00  0.00    +0.266 C 
BRANCH  10  11
ATOM     11  O   UNL     1       8.787  -0.318  24.761  0.00  0.00    -0.462 OA
BRANCH  11  12
ATOM     12  C   UNL     1      10.078  -0.073  24.407  0.00  0.00    +0.307 C 
ATOM     13  O   UNL     1      10.947   0.364  25.148  0.00  0.00    -0.251 OA
BRANCH  12  14
ATOM     14  C   UNL     1      10.331  -0.510  22.990  0.00  0.00    +0.120 C 
BRANCH  14  15
ATOM     15  C   UNL     1       9.401   0.185  22.006  0.00  0.00    +0.011 C 
BRANCH  15  16
ATOM     16  C   UNL     1       9.813   1.638  21.806  0.00  0.00    +0.001 C 
BRANCH  16  17
ATOM     17  C   UNL     1       8.785   2.581  22.424  0.00  0.00    +0.000 C 
BRANCH  17  18
ATOM     18  C   UNL     1       9.407   3.404  23.548  0.00  0.00    -0.000 C 
BRANCH  18  20
ATOM     19  C   UNL     1       7.175   2.783  24.516  0.00  0.00    +0.004 C 
ATOM     20  C   UNL     1       8.561   3.329  24.816  0.00  0.00    -0.003 C 
ENDBRANCH  18  20
ENDBRANCH  17  18
ENDBRANCH  16  17
ENDBRANCH  15  16
ENDBRANCH  14  15
ENDBRANCH  12  14
ENDBRANCH  11  12
ENDBRANCH  10  11
ENDBRANCH   1  10
BRANCH   4  21
ATOM     21  C   UNL     1       8.023  -4.612  26.746  0.00  0.00    +0.223 C 
BRANCH  21  22
ATOM     22  O   UNL     1       7.994  -5.911  27.332  0.00  0.00    -0.390 OA
ATOM     23  H   UNL     1       8.863  -6.025  27.766  0.00  0.00    +0.210 HD
ENDBRANCH  21  22
ENDBRANCH   4  21
BRANCH   4  24
ATOM     24  O   UNL     1       5.988  -5.394  25.527  0.00  0.00    -0.313 OA
BRANCH  24  25
ATOM     25  C   UNL     1       5.522  -5.839  24.244  0.00  0.00    +0.285 C 
ATOM     26  C   UNL     1       4.618  -4.776  23.538  0.00  0.00    +0.201 C 
ATOM     27  C   UNL     1       3.099  -4.933  23.780  0.00  0.00    +0.179 C 
ATOM     28  C   UNL     1       2.679  -6.400  23.927  0.00  0.00    +0.177 C 
ATOM     29  C   UNL     1       3.587  -7.182  24.875  0.00  0.00    +0.178 C 
ATOM     30  O   UNL     1       4.917  -7.128  24.343  0.00  0.00    -0.340 OA
BRANCH  28  31
ATOM     31  O   UNL     1       2.764  -7.012  22.615  0.00  0.00    -0.386 OA
ATOM     32  H   UNL     1       2.674  -7.978  22.732  0.00  0.00    +0.210 HD
ENDBRANCH  28  31
BRANCH  27  33
ATOM     33  O   UNL     1       2.634  -4.114  24.854  0.00  0.00    -0.386 OA
ATOM     34  H   UNL     1       3.153  -3.283  24.878  0.00  0.00    +0.210 HD
ENDBRANCH  27  33
BRANCH  26  35
ATOM     35  O   UNL     1       4.867  -4.850  22.114  0.00  0.00    -0.384 OA
ATOM     36  H   UNL     1       4.079  -4.518  21.643  0.00  0.00    +0.210 HD
ENDBRANCH  26  35
BRANCH  29  37
ATOM     37  C   UNL     1       3.436  -6.849  26.372  0.00  0.00    +0.190 C 
BRANCH  37  38
ATOM     38  O   UNL     1       4.498  -7.318  27.195  0.00  0.00    -0.392 OA
ATOM     39  H   UNL     1       4.931  -6.520  27.567  0.00  0.00    +0.210 HD
ENDBRANCH  37  38
ENDBRANCH  29  37
ENDBRANCH  24  25
ENDBRANCH   4  24
TORSDOF 20
ENDMDL
MODEL 4
REMARK VINA RESULT:      -6.4      1.822      3.200
REMARK  Name = 
REMARK  21 active torsions:
REMARK  status: ('A' for Active; 'I' for Inactive)
REMARK    1  A    between atoms: C_1  and  C_2
REMARK    2  A    between atoms: C_2  and  C_3
REMARK    3  A    between atoms: C_3  and  C_4
REMARK    4  A    between atoms: C_4  and  C_5
REMARK    5  A    between atoms: C_5  and  C_6
REMARK    6  A    between atoms: C_6  and  C_7
REMARK    7  A    between atoms: C_7  and  C_8
REMARK    8  A    between atoms: C_8  and  O_10
REMARK    9  A    between atoms: O_10  and  C_11
REMARK   10  A    between atoms: C_11  and  C_12
REMARK   11  A    between atoms: C_15  and  C_16
REMARK   12  A    between atoms: C_15  and  O_18
REMARK   13  A    between atoms: C_16  and  O_17
REMARK   14  A    between atoms: O_18  and  C_19
REMARK   15  A    between atoms: C_22  and  C_24
REMARK   16  A    between atoms: C_24  and  O_25
REMARK   17  A    between atoms: C_26  and  O_28
REMARK   18  A    between atoms: C_29  and  O_31
REMARK   19  A    between atoms: C_32  and  O_34
REMARK   20  A    between atoms: C_35  and  O_37
REMARK   21  A    between atoms: C_38  and  O_40
REMARK                            x       y       z     vdW  Elec       q    Type
REMARK                         _______ _______ _______ _____ _____    ______ ____
ROOT
ATOM      1  C   UNL     1       9.405  -0.456  23.535  0.00  0.00    +0.190 C 
ATOM      2  C   UNL     1      10.020  -1.761  23.037  0.00  0.00    +0.180 C 
ATOM      3  C   UNL     1       9.200  -2.874  23.698  0.00  0.00    +0.207 C 
ATOM      4  C   UNL     1       8.239  -2.154  24.676  0.00  0.00    +0.225 C 
ATOM      5  O   UNL     1       8.175  -0.807  24.184  0.00  0.00    -0.335 OA
ENDROOT
BRANCH   2   6
ATOM      6  O   UNL     1       9.867  -1.849  21.607  0.00  0.00    -0.386 OA
ATOM      7  H   UNL     1      10.750  -1.865  21.194  0.00  0.00    +0.210 HD
ENDBRANCH   2   6
BRANCH   3   8
ATOM      8  O   UNL     1      10.031  -3.858  24.314  0.00  0.00    -0.384 OA
ATOM      9  H   UNL     1      10.595  -3.371  24.949  0.00  0.00    +0.210 HD
ENDBRANCH   3   8
BRANCH   1  10
ATOM     10  C   UNL     1      10.283   0.317  24.521  0.00  0.00    +0.266 C 
BRANCH  10  11
ATOM     11  O   UNL     1       9.672   1.557  24.897  0.00  0.00    -0.462 OA
BRANCH  11  12
ATOM     12  C   UNL     1       9.731   2.543  23.961  0.00  0.00    +0.307 C 
ATOM     13  O   UNL     1      10.631   2.696  23.147  0.00  0.00    -0.251 OA
BRANCH  12  14
ATOM     14  C   UNL     1       8.478   3.374  23.987  0.00  0.00    +0.120 C 
BRANCH  14  15
ATOM     15  C   UNL     1       8.429   4.294  25.199  0.00  0.00    +0.011 C 
BRANCH  15  16
ATOM     16  C   UNL     1       8.511   5.755  24.772  0.00  0.00    +0.001 C 
BRANCH  16  17
ATOM     17  C   UNL     1       9.913   6.308  25.005  0.00  0.00    +0.000 C 
BRANCH  17  18
ATOM     18  C   UNL     1      10.780   6.139  23.761  0.00  0.00    -0.000 C 
BRANCH  18  20
ATOM     19  C   UNL     1      13.011   5.224  23.065  0.00  0.00    +0.004 C 
ATOM     20  C   UNL     1      12.253   5.996  24.132  0.00  0.00    -0.003 C 
ENDBRANCH  18  20
ENDBRANCH  17  18
ENDBRANCH  16  17
ENDBRANCH  15  16
ENDBRANCH  14  15
ENDBRANCH  12  14
ENDBRANCH  11  12
ENDBRANCH  10  11
ENDBRANCH   1  10
BRANCH   4  21
ATOM     21  C   UNL     1       8.739  -2.183  26.150  0.00  0.00    +0.223 C 
BRANCH  21  22
ATOM     22  O   UNL     1       8.690  -3.482  26.734  0.00  0.00    -0.390 OA
ATOM     23  H   UNL     1       8.086  -3.406  27.499  0.00  0.00    +0.210 HD
ENDBRANCH  21  22
ENDBRANCH   4  21
BRANCH   4  24
ATOM     24  O   UNL     1       6.950  -2.806  24.522  0.00  0.00    -0.313 OA
BRANCH  24  25
ATOM     25  C   UNL     1       6.805  -3.574  23.318  0.00  0.00    +0.285 C 
ATOM     26  C   UNL     1       5.387  -3.415  22.677  0.00  0.00    +0.201 C 
ATOM     27  C   UNL     1       4.348  -4.481  23.095  0.00  0.00    +0.179 C 
ATOM     28  C   UNL     1       4.986  -5.852  23.346  0.00  0.00    +0.177 C 
ATOM     29  C   UNL     1       6.239  -5.770  24.216  0.00  0.00    +0.178 C 
ATOM     30  O   UNL     1       7.184  -4.933  23.536  0.00  0.00    -0.340 OA
BRANCH  28  31
ATOM     31  O   UNL     1       5.367  -6.399  22.058  0.00  0.00    -0.386 OA
ATOM     32  H   UNL     1       5.571  -5.649  21.467  0.00  0.00    +0.210 HD
ENDBRANCH  28  31
BRANCH  27  33
ATOM     33  O   UNL     1       3.530  -4.042  24.180  0.00  0.00    -0.386 OA
ATOM     34  H   UNL     1       2.593  -4.250  23.987  0.00  0.00    +0.210 HD
ENDBRANCH  27  33
BRANCH  26  35
ATOM     35  O   UNL     1       5.539  -3.459  21.238  0.00  0.00    -0.384 OA
ATOM     36  H   UNL     1       6.462  -3.232  21.016  0.00  0.00    +0.210 HD
ENDBRANCH  26  35
BRANCH  29  37
ATOM     37  C   UNL     1       6.000  -5.458  25.707  0.00  0.00    +0.190 C 
BRANCH  37  38
ATOM     38  O   UNL     1       7.047  -5.871  26.576  0.00  0.00    -0.392 OA
ATOM     39  H   UNL     1       6.887  -6.819  26.770  0.00  0.00    +0.210 HD
ENDBRANCH  37  38
ENDBRANCH  29  37
ENDBRANCH  24  25
ENDBRANCH   4  24
TORSDOF 20
ENDMDL
MODEL 5
REMARK VINA RESULT:      -6.4      0.986      2.279
REMARK  Name = 
REMARK  21 active torsions:
REMARK  status: ('A' for Active; 'I' for Inactive)
REMARK    1  A    between atoms: C_1  and  C_2
REMARK    2  A    between atoms: C_2  and  C_3
REMARK    3  A    between atoms: C_3  and  C_4
REMARK    4  A    between atoms: C_4  and  C_5
REMARK    5  A    between atoms: C_5  and  C_6
REMARK    6  A    between atoms: C_6  and  C_7
REMARK    7  A    between atoms: C_7  and  C_8
REMARK    8  A    between atoms: C_8  and  O_10
REMARK    9  A    between atoms: O_10  and  C_11
REMARK   10  A    between atoms: C_11  and  C_12
REMARK   11  A    between atoms: C_15  and  C_16
REMARK   12  A    between atoms: C_15  and  O_18
REMARK   13  A    between atoms: C_16  and  O_17
REMARK   14  A    between atoms: O_18  and  C_19
REMARK   15  A    between atoms: C_22  and  C_24
REMARK   16  A    between atoms: C_24  and  O_25
REMARK   17  A    between atoms: C_26  and  O_28
REMARK   18  A    between atoms: C_29  and  O_31
REMARK   19  A    between atoms: C_32  and  O_34
REMARK   20  A    between atoms: C_35  and  O_37
REMARK   21  A    between atoms: C_38  and  O_40
REMARK                            x       y       z     vdW  Elec       q    Type
REMARK                         _______ _______ _______ _____ _____    ______ ____
ROOT
ATOM      1  C   UNL     1       9.002  -0.447  21.786  0.00  0.00    +0.190 C 
ATOM      2  C   UNL     1      10.145  -0.836  22.720  0.00  0.00    +0.180 C 
ATOM      3  C   UNL     1       9.471  -1.280  24.023  0.00  0.00    +0.207 C 
ATOM      4  C   UNL     1       7.964  -0.977  23.832  0.00  0.00    +0.225 C 
ATOM      5  O   UNL     1       7.794  -0.905  22.409  0.00  0.00    -0.335 OA
ENDROOT
BRANCH   2   6
ATOM      6  O   UNL     1      10.865  -1.951  22.160  0.00  0.00    -0.386 OA
ATOM      7  H   UNL     1      10.844  -2.693  22.793  0.00  0.00    +0.210 HD
ENDBRANCH   2   6
BRANCH   3   8
ATOM      8  O   UNL     1      10.052  -0.654  25.168  0.00  0.00    -0.384 OA
ATOM      9  H   UNL     1      10.852  -0.194  24.842  0.00  0.00    +0.210 HD
ENDBRANCH   3   8
BRANCH   1  10
ATOM     10  C   UNL     1       8.888   1.057  21.526  0.00  0.00    +0.266 C 
BRANCH  10  11
ATOM     11  O   UNL     1      10.086   1.742  21.911  0.00  0.00    -0.462 OA
BRANCH  11  12
ATOM     12  C   UNL     1      10.039   2.366  23.119  0.00  0.00    +0.307 C 
ATOM     13  O   UNL     1      10.860   2.239  24.016  0.00  0.00    -0.251 OA
BRANCH  12  14
ATOM     14  C   UNL     1       8.883   3.326  23.175  0.00  0.00    +0.120 C 
BRANCH  14  15
ATOM     15  C   UNL     1       8.881   4.140  24.461  0.00  0.00    +0.011 C 
BRANCH  15  16
ATOM     16  C   UNL     1       8.604   5.610  24.170  0.00  0.00    +0.001 C 
BRANCH  16  17
ATOM     17  C   UNL     1       9.867   6.313  23.682  0.00  0.00    +0.000 C 
BRANCH  17  18
ATOM     18  C   UNL     1      10.833   6.560  24.837  0.00  0.00    -0.000 C 
BRANCH  18  20
ATOM     19  C   UNL     1      12.322   5.369  23.204  0.00  0.00    +0.004 C 
ATOM     20  C   UNL     1      12.274   6.282  24.418  0.00  0.00    -0.003 C 
ENDBRANCH  18  20
ENDBRANCH  17  18
ENDBRANCH  16  17
ENDBRANCH  15  16
ENDBRANCH  14  15
ENDBRANCH  12  14
ENDBRANCH  11  12
ENDBRANCH  10  11
ENDBRANCH   1  10
BRANCH   4  21
ATOM     21  C   UNL     1       7.520   0.351  24.512  0.00  0.00    +0.223 C 
BRANCH  21  22
ATOM     22  O   UNL     1       7.641   0.322  25.932  0.00  0.00    -0.390 OA
ATOM     23  H   UNL     1       8.497  -0.114  26.116  0.00  0.00    +0.210 HD
ENDBRANCH  21  22
ENDBRANCH   4  21
BRANCH   4  24
ATOM     24  O   UNL     1       7.255  -2.129  24.363  0.00  0.00    -0.313 OA
BRANCH  24  25
ATOM     25  C   UNL     1       8.099  -3.171  24.875  0.00  0.00    +0.285 C 
ATOM     26  C   UNL     1       7.747  -4.571  24.274  0.00  0.00    +0.201 C 
ATOM     27  C   UNL     1       6.754  -5.417  25.104  0.00  0.00    +0.179 C 
ATOM     28  C   UNL     1       6.906  -5.185  26.611  0.00  0.00    +0.177 C 
ATOM     29  C   UNL     1       6.983  -3.704  26.977  0.00  0.00    +0.178 C 
ATOM     30  O   UNL     1       8.120  -3.151  26.302  0.00  0.00    -0.340 OA
BRANCH  28  31
ATOM     31  O   UNL     1       8.143  -5.816  27.028  0.00  0.00    -0.386 OA
ATOM     32  H   UNL     1       8.309  -6.568  26.426  0.00  0.00    +0.210 HD
ENDBRANCH  28  31
BRANCH  27  33
ATOM     33  O   UNL     1       5.407  -5.266  24.653  0.00  0.00    -0.386 OA
ATOM     34  H   UNL     1       5.226  -5.916  23.943  0.00  0.00    +0.210 HD
ENDBRANCH  27  33
BRANCH  26  35
ATOM     35  O   UNL     1       8.979  -5.319  24.129  0.00  0.00    -0.384 OA
ATOM     36  H   UNL     1       9.722  -4.687  24.084  0.00  0.00    +0.210 HD
ENDBRANCH  26  35
BRANCH  29  37
ATOM     37  C   UNL     1       5.664  -2.914  26.852  0.00  0.00    +0.190 C 
BRANCH  37  38
ATOM     38  O   UNL     1       5.798  -1.506  27.003  0.00  0.00    -0.392 OA
ATOM     39  H   UNL     1       6.274  -1.363  27.848  0.00  0.00    +0.210 HD
ENDBRANCH  37  38
ENDBRANCH  29  37
ENDBRANCH  24  25
ENDBRANCH   4  24
TORSDOF 20
ENDMDL
MODEL 6
REMARK VINA RESULT:      -6.3      2.427      8.745
REMARK  Name = 
REMARK  21 active torsions:
REMARK  status: ('A' for Active; 'I' for Inactive)
REMARK    1  A    between atoms: C_1  and  C_2
REMARK    2  A    between atoms: C_2  and  C_3
REMARK    3  A    between atoms: C_3  and  C_4
REMARK    4  A    between atoms: C_4  and  C_5
REMARK    5  A    between atoms: C_5  and  C_6
REMARK    6  A    between atoms: C_6  and  C_7
REMARK    7  A    between atoms: C_7  and  C_8
REMARK    8  A    between atoms: C_8  and  O_10
REMARK    9  A    between atoms: O_10  and  C_11
REMARK   10  A    between atoms: C_11  and  C_12
REMARK   11  A    between atoms: C_15  and  C_16
REMARK   12  A    between atoms: C_15  and  O_18
REMARK   13  A    between atoms: C_16  and  O_17
REMARK   14  A    between atoms: O_18  and  C_19
REMARK   15  A    between atoms: C_22  and  C_24
REMARK   16  A    between atoms: C_24  and  O_25
REMARK   17  A    between atoms: C_26  and  O_28
REMARK   18  A    between atoms: C_29  and  O_31
REMARK   19  A    between atoms: C_32  and  O_34
REMARK   20  A    between atoms: C_35  and  O_37
REMARK   21  A    between atoms: C_38  and  O_40
REMARK                            x       y       z     vdW  Elec       q    Type
REMARK                         _______ _______ _______ _____ _____    ______ ____
ROOT
ATOM      1  C   UNL     1       8.437  -4.328  26.493  0.00  0.00    +0.190 C 
ATOM      2  C   UNL     1       8.722  -5.251  25.311  0.00  0.00    +0.180 C 
ATOM      3  C   UNL     1       8.464  -4.402  24.062  0.00  0.00    +0.207 C 
ATOM      4  C   UNL     1       7.888  -3.062  24.585  0.00  0.00    +0.225 C 
ATOM      5  O   UNL     1       8.312  -3.004  25.954  0.00  0.00    -0.335 OA
ENDROOT
BRANCH   2   6
ATOM      6  O   UNL     1      10.107  -5.646  25.333  0.00  0.00    -0.386 OA
ATOM      7  H   UNL     1      10.510  -5.345  26.168  0.00  0.00    +0.210 HD
ENDBRANCH   2   6
BRANCH   3   8
ATOM      8  O   UNL     1       7.622  -5.072  23.122  0.00  0.00    -0.384 OA
ATOM      9  H   UNL     1       7.350  -4.389  22.475  0.00  0.00    +0.210 HD
ENDBRANCH   3   8
BRANCH   1  10
ATOM     10  C   UNL     1       7.162  -4.672  27.266  0.00  0.00    +0.266 C 
BRANCH  10  11
ATOM     11  O   UNL     1       7.295  -5.921  27.955  0.00  0.00    -0.462 OA
BRANCH  11  12
ATOM     12  C   UNL     1       6.171  -6.363  28.582  0.00  0.00    +0.307 C 
ATOM     13  O   UNL     1       5.857  -7.535  28.734  0.00  0.00    -0.251 OA
BRANCH  12  14
ATOM     14  C   UNL     1       5.401  -5.210  29.166  0.00  0.00    +0.120 C 
BRANCH  14  15
ATOM     15  C   UNL     1       3.898  -5.402  29.029  0.00  0.00    +0.011 C 
BRANCH  15  16
ATOM     16  C   UNL     1       3.312  -4.401  28.040  0.00  0.00    +0.001 C 
BRANCH  16  17
ATOM     17  C   UNL     1       3.411  -4.929  26.613  0.00  0.00    +0.000 C 
BRANCH  17  18
ATOM     18  C   UNL     1       2.884  -6.358  26.523  0.00  0.00    -0.000 C 
BRANCH  18  20
ATOM     19  C   UNL     1       4.893  -6.401  25.018  0.00  0.00    +0.004 C 
ATOM     20  C   UNL     1       3.810  -7.234  25.684  0.00  0.00    -0.003 C 
ENDBRANCH  18  20
ENDBRANCH  17  18
ENDBRANCH  16  17
ENDBRANCH  15  16
ENDBRANCH  14  15
ENDBRANCH  12  14
ENDBRANCH  11  12
ENDBRANCH  10  11
ENDBRANCH   1  10
BRANCH   4  21
ATOM     21  C   UNL     1       6.337  -2.985  24.479  0.00  0.00    +0.223 C 
BRANCH  21  22
ATOM     22  O   UNL     1       5.883  -2.513  23.214  0.00  0.00    -0.390 OA
ATOM     23  H   UNL     1       6.549  -2.814  22.564  0.00  0.00    +0.210 HD
ENDBRANCH  21  22
ENDBRANCH   4  21
BRANCH   4  24
ATOM     24  O   UNL     1       8.542  -2.018  23.814  0.00  0.00    -0.313 OA
BRANCH  24  25
ATOM     25  C   UNL     1       9.073  -0.937  24.595  0.00  0.00    +0.285 C 
ATOM     26  C   UNL     1       8.010   0.176  24.872  0.00  0.00    +0.201 C 
ATOM     27  C   UNL     1       7.996   1.345  23.861  0.00  0.00    +0.179 C 
ATOM     28  C   UNL     1       9.393   1.662  23.315  0.00  0.00    +0.177 C 
ATOM     29  C   UNL     1      10.153   0.413  22.875  0.00  0.00    +0.178 C 
ATOM     30  O   UNL     1      10.281  -0.441  24.018  0.00  0.00    -0.340 OA
BRANCH  28  31
ATOM     31  O   UNL     1      10.145   2.294  24.382  0.00  0.00    -0.386 OA
ATOM     32  H   UNL     1       9.733   2.034  25.229  0.00  0.00    +0.210 HD
ENDBRANCH  28  31
BRANCH  27  33
ATOM     33  O   UNL     1       7.027   1.156  22.829  0.00  0.00    -0.386 OA
ATOM     34  H   UNL     1       6.195   1.610  23.074  0.00  0.00    +0.210 HD
ENDBRANCH  27  33
BRANCH  26  35
ATOM     35  O   UNL     1       8.257   0.712  26.194  0.00  0.00    -0.384 OA
ATOM     36  H   UNL     1       8.927   0.156  26.634  0.00  0.00    +0.210 HD
ENDBRANCH  26  35
BRANCH  29  37
ATOM     37  C   UNL     1       9.651  -0.253  21.578  0.00  0.00    +0.190 C 
BRANCH  37  38
ATOM     38  O   UNL     1      10.118  -1.581  21.373  0.00  0.00    -0.392 OA
ATOM     39  H   UNL     1      10.547  -1.855  22.210  0.00  0.00    +0.210 HD
ENDBRANCH  37  38
ENDBRANCH  29  37
ENDBRANCH  24  25
ENDBRANCH   4  24
TORSDOF 20
ENDMDL
MODEL 7
REMARK VINA RESULT:      -6.3      1.942      4.211
REMARK  Name = 
REMARK  21 active torsions:
REMARK  status: ('A' for Active; 'I' for Inactive)
REMARK    1  A    between atoms: C_1  and  C_2
REMARK    2  A    between atoms: C_2  and  C_3
REMARK    3  A    between atoms: C_3  and  C_4
REMARK    4  A    between atoms: C_4  and  C_5
REMARK    5  A    between atoms: C_5  and  C_6
REMARK    6  A    between atoms: C_6  and  C_7
REMARK    7  A    between atoms: C_7  and  C_8
REMARK    8  A    between atoms: C_8  and  O_10
REMARK    9  A    between atoms: O_10  and  C_11
REMARK   10  A    between atoms: C_11  and  C_12
REMARK   11  A    between atoms: C_15  and  C_16
REMARK   12  A    between atoms: C_15  and  O_18
REMARK   13  A    between atoms: C_16  and  O_17
REMARK   14  A    between atoms: O_18  and  C_19
REMARK   15  A    between atoms: C_22  and  C_24
REMARK   16  A    between atoms: C_24  and  O_25
REMARK   17  A    between atoms: C_26  and  O_28
REMARK   18  A    between atoms: C_29  and  O_31
REMARK   19  A    between atoms: C_32  and  O_34
REMARK   20  A    between atoms: C_35  and  O_37
REMARK   21  A    between atoms: C_38  and  O_40
REMARK                            x       y       z     vdW  Elec       q    Type
REMARK                         _______ _______ _______ _____ _____    ______ ____
ROOT
ATOM      1  C   UNL     1       7.041  -2.702  22.848  0.00  0.00    +0.190 C 
ATOM      2  C   UNL     1       6.870  -4.023  22.103  0.00  0.00    +0.180 C 
ATOM      3  C   UNL     1       7.149  -5.114  23.142  0.00  0.00    +0.207 C 
ATOM      4  C   UNL     1       7.622  -4.363  24.412  0.00  0.00    +0.225 C 
ATOM      5  O   UNL     1       7.123  -3.029  24.242  0.00  0.00    -0.335 OA
ENDROOT
BRANCH   2   6
ATOM      6  O   UNL     1       5.509  -4.145  21.646  0.00  0.00    -0.386 OA
ATOM      7  H   UNL     1       5.420  -3.690  20.789  0.00  0.00    +0.210 HD
ENDBRANCH   2   6
BRANCH   3   8
ATOM      8  O   UNL     1       8.074  -6.090  22.662  0.00  0.00    -0.384 OA
ATOM      9  H   UNL     1       7.733  -6.373  21.789  0.00  0.00    +0.210 HD
ENDBRANCH   3   8
BRANCH   1  10
ATOM     10  C   UNL     1       8.289  -1.912  22.449  0.00  0.00    +0.266 C 
BRANCH  10  11
ATOM     11  O   UNL     1       8.688  -1.013  23.491  0.00  0.00    -0.462 OA
BRANCH  11  12
ATOM     12  C   UNL     1       9.807  -0.282  23.233  0.00  0.00    +0.307 C 
ATOM     13  O   UNL     1      10.782  -0.196  23.966  0.00  0.00    -0.251 OA
BRANCH  12  14
ATOM     14  C   UNL     1       9.733   0.335  21.864  0.00  0.00    +0.120 C 
BRANCH  14  15
ATOM     15  C   UNL     1       9.979   1.837  21.903  0.00  0.00    +0.011 C 
BRANCH  15  16
ATOM     16  C   UNL     1       8.934   2.534  22.764  0.00  0.00    +0.001 C 
BRANCH  16  17
ATOM     17  C   UNL     1       9.569   3.648  23.590  0.00  0.00    +0.000 C 
BRANCH  17  18
ATOM     18  C   UNL     1      11.081   3.683  23.387  0.00  0.00    -0.000 C 
BRANCH  18  20
ATOM     19  C   UNL     1      13.061   5.192  23.064  0.00  0.00    +0.004 C 
ATOM     20  C   UNL     1      11.626   5.098  23.555  0.00  0.00    -0.003 C 
ENDBRANCH  18  20
ENDBRANCH  17  18
ENDBRANCH  16  17
ENDBRANCH  15  16
ENDBRANCH  14  15
ENDBRANCH  12  14
ENDBRANCH  11  12
ENDBRANCH  10  11
ENDBRANCH   1  10
BRANCH   4  21
ATOM     21  C   UNL     1       9.170  -4.361  24.574  0.00  0.00    +0.223 C 
BRANCH  21  22
ATOM     22  O   UNL     1       9.708  -5.652  24.845  0.00  0.00    -0.390 OA
ATOM     23  H   UNL     1       9.426  -5.871  25.756  0.00  0.00    +0.210 HD
ENDBRANCH  21  22
ENDBRANCH   4  21
BRANCH   4  24
ATOM     24  O   UNL     1       6.955  -5.009  25.530  0.00  0.00    -0.313 OA
BRANCH  24  25
ATOM     25  C   UNL     1       5.689  -5.607  25.210  0.00  0.00    +0.285 C 
ATOM     26  C   UNL     1       4.522  -4.566  25.214  0.00  0.00    +0.201 C 
ATOM     27  C   UNL     1       3.755  -4.435  26.549  0.00  0.00    +0.179 C 
ATOM     28  C   UNL     1       3.671  -5.765  27.308  0.00  0.00    +0.177 C 
ATOM     29  C   UNL     1       5.014  -6.488  27.382  0.00  0.00    +0.178 C 
ATOM     30  O   UNL     1       5.442  -6.744  26.038  0.00  0.00    -0.340 OA
BRANCH  28  31
ATOM     31  O   UNL     1       2.739  -6.617  26.594  0.00  0.00    -0.386 OA
ATOM     32  H   UNL     1       2.369  -6.096  25.854  0.00  0.00    +0.210 HD
ENDBRANCH  28  31
BRANCH  27  33
ATOM     33  O   UNL     1       4.252  -3.367  27.356  0.00  0.00    -0.386 OA
ATOM     34  H   UNL     1       5.231  -3.379  27.346  0.00  0.00    +0.210 HD
ENDBRANCH  27  33
BRANCH  26  35
ATOM     35  O   UNL     1       3.583  -4.943  24.178  0.00  0.00    -0.384 OA
ATOM     36  H   UNL     1       3.037  -4.165  23.956  0.00  0.00    +0.210 HD
ENDBRANCH  26  35
BRANCH  29  37
ATOM     37  C   UNL     1       6.060  -5.862  28.325  0.00  0.00    +0.190 C 
BRANCH  37  38
ATOM     38  O   UNL     1       7.397  -6.294  28.101  0.00  0.00    -0.392 OA
ATOM     39  H   UNL     1       7.794  -5.650  27.478  0.00  0.00    +0.210 HD
ENDBRANCH  37  38
ENDBRANCH  29  37
ENDBRANCH  24  25
ENDBRANCH   4  24
TORSDOF 20
ENDMDL
MODEL 8
REMARK VINA RESULT:      -6.2      2.388      4.646
REMARK  Name = 
REMARK  21 active torsions:
REMARK  status: ('A' for Active; 'I' for Inactive)
REMARK    1  A    between atoms: C_1  and  C_2
REMARK    2  A    between atoms: C_2  and  C_3
REMARK    3  A    between atoms: C_3  and  C_4
REMARK    4  A    between atoms: C_4  and  C_5
REMARK    5  A    between atoms: C_5  and  C_6
REMARK    6  A    between atoms: C_6  and  C_7
REMARK    7  A    between atoms: C_7  and  C_8
REMARK    8  A    between atoms: C_8  and  O_10
REMARK    9  A    between atoms: O_10  and  C_11
REMARK   10  A    between atoms: C_11  and  C_12
REMARK   11  A    between atoms: C_15  and  C_16
REMARK   12  A    between atoms: C_15  and  O_18
REMARK   13  A    between atoms: C_16  and  O_17
REMARK   14  A    between atoms: O_18  and  C_19
REMARK   15  A    between atoms: C_22  and  C_24
REMARK   16  A    between atoms: C_24  and  O_25
REMARK   17  A    between atoms: C_26  and  O_28
REMARK   18  A    between atoms: C_29  and  O_31
REMARK   19  A    between atoms: C_32  and  O_34
REMARK   20  A    between atoms: C_35  and  O_37
REMARK   21  A    between atoms: C_38  and  O_40
REMARK                            x       y       z     vdW  Elec       q    Type
REMARK                         _______ _______ _______ _____ _____    ______ ____
ROOT
ATOM      1  C   UNL     1       7.907  -2.370  23.610  0.00  0.00    +0.190 C 
ATOM      2  C   UNL     1       7.533  -3.516  22.674  0.00  0.00    +0.180 C 
ATOM      3  C   UNL     1       7.553  -4.776  23.547  0.00  0.00    +0.207 C 
ATOM      4  C   UNL     1       8.092  -4.315  24.924  0.00  0.00    +0.225 C 
ATOM      5  O   UNL     1       7.857  -2.900  24.942  0.00  0.00    -0.335 OA
ENDROOT
BRANCH   2   6
ATOM      6  O   UNL     1       6.198  -3.312  22.173  0.00  0.00    -0.386 OA
ATOM      7  H   UNL     1       5.866  -2.454  22.496  0.00  0.00    +0.210 HD
ENDBRANCH   2   6
BRANCH   3   8
ATOM      8  O   UNL     1       8.306  -5.831  22.948  0.00  0.00    -0.384 OA
ATOM      9  H   UNL     1       8.969  -6.098  23.617  0.00  0.00    +0.210 HD
ENDBRANCH   3   8
BRANCH   1  10
ATOM     10  C   UNL     1       9.298  -1.783  23.361  0.00  0.00    +0.266 C 
BRANCH  10  11
ATOM     11  O   UNL     1       9.849  -1.229  24.562  0.00  0.00    -0.462 OA
BRANCH  11  12
ATOM     12  C   UNL     1       9.586   0.090  24.769  0.00  0.00    +0.307 C 
ATOM     13  O   UNL     1       8.619   0.535  25.370  0.00  0.00    -0.251 OA
BRANCH  12  14
ATOM     14  C   UNL     1      10.709   0.943  24.246  0.00  0.00    +0.120 C 
BRANCH  14  15
ATOM     15  C   UNL     1      10.203   2.056  23.340  0.00  0.00    +0.011 C 
BRANCH  15  16
ATOM     16  C   UNL     1      10.050   1.561  21.907  0.00  0.00    +0.001 C 
BRANCH  16  17
ATOM     17  C   UNL     1       8.577   1.457  21.525  0.00  0.00    +0.000 C 
BRANCH  17  18
ATOM     18  C   UNL     1       7.785   2.635  22.084  0.00  0.00    -0.000 C 
BRANCH  18  20
ATOM     19  C   UNL     1       6.281   2.818  24.086  0.00  0.00    +0.004 C 
ATOM     20  C   UNL     1       6.483   2.165  22.729  0.00  0.00    -0.003 C 
ENDBRANCH  18  20
ENDBRANCH  17  18
ENDBRANCH  16  17
ENDBRANCH  15  16
ENDBRANCH  14  15
ENDBRANCH  12  14
ENDBRANCH  11  12
ENDBRANCH  10  11
ENDBRANCH   1  10
BRANCH   4  21
ATOM     21  C   UNL     1       9.604  -4.630  25.120  0.00  0.00    +0.223 C 
BRANCH  21  22
ATOM     22  O   UNL     1       9.874  -6.021  25.265  0.00  0.00    -0.390 OA
ATOM     23  H   UNL     1      10.414  -6.103  26.076  0.00  0.00    +0.210 HD
ENDBRANCH  21  22
ENDBRANCH   4  21
BRANCH   4  24
ATOM     24  O   UNL     1       7.262  -4.974  25.918  0.00  0.00    -0.313 OA
BRANCH  24  25
ATOM     25  C   UNL     1       5.985  -5.419  25.436  0.00  0.00    +0.285 C 
ATOM     26  C   UNL     1       4.905  -4.288  25.480  0.00  0.00    +0.201 C 
ATOM     27  C   UNL     1       4.042  -4.247  26.762  0.00  0.00    +0.179 C 
ATOM     28  C   UNL     1       3.793  -5.643  27.344  0.00  0.00    +0.177 C 
ATOM     29  C   UNL     1       5.065  -6.484  27.428  0.00  0.00    +0.178 C 
ATOM     30  O   UNL     1       5.584  -6.618  26.098  0.00  0.00    -0.340 OA
BRANCH  28  31
ATOM     31  O   UNL     1       2.861  -6.323  26.464  0.00  0.00    -0.386 OA
ATOM     32  H   UNL     1       3.073  -6.059  25.548  0.00  0.00    +0.210 HD
ENDBRANCH  28  31
BRANCH  27  33
ATOM     33  O   UNL     1       4.551  -3.327  27.728  0.00  0.00    -0.386 OA
ATOM     34  H   UNL     1       5.178  -3.789  28.321  0.00  0.00    +0.210 HD
ENDBRANCH  27  33
BRANCH  26  35
ATOM     35  O   UNL     1       4.030  -4.461  24.340  0.00  0.00    -0.384 OA
ATOM     36  H   UNL     1       3.482  -5.255  24.486  0.00  0.00    +0.210 HD
ENDBRANCH  26  35
BRANCH  29  37
ATOM     37  C   UNL     1       6.074  -6.064  28.515  0.00  0.00    +0.190 C 
BRANCH  37  38
ATOM     38  O   UNL     1       7.425  -6.419  28.242  0.00  0.00    -0.392 OA
ATOM     39  H   UNL     1       7.423  -7.380  28.047  0.00  0.00    +0.210 HD
ENDBRANCH  37  38
ENDBRANCH  29  37
ENDBRANCH  24  25
ENDBRANCH   4  24
TORSDOF 20
ENDMDL
MODEL 9
REMARK VINA RESULT:      -6.2      2.377      4.562
REMARK  Name = 
REMARK  21 active torsions:
REMARK  status: ('A' for Active; 'I' for Inactive)
REMARK    1  A    between atoms: C_1  and  C_2
REMARK    2  A    between atoms: C_2  and  C_3
REMARK    3  A    between atoms: C_3  and  C_4
REMARK    4  A    between atoms: C_4  and  C_5
REMARK    5  A    between atoms: C_5  and  C_6
REMARK    6  A    between atoms: C_6  and  C_7
REMARK    7  A    between atoms: C_7  and  C_8
REMARK    8  A    between atoms: C_8  and  O_10
REMARK    9  A    between atoms: O_10  and  C_11
REMARK   10  A    between atoms: C_11  and  C_12
REMARK   11  A    between atoms: C_15  and  C_16
REMARK   12  A    between atoms: C_15  and  O_18
REMARK   13  A    between atoms: C_16  and  O_17
REMARK   14  A    between atoms: O_18  and  C_19
REMARK   15  A    between atoms: C_22  and  C_24
REMARK   16  A    between atoms: C_24  and  O_25
REMARK   17  A    between atoms: C_26  and  O_28
REMARK   18  A    between atoms: C_29  and  O_31
REMARK   19  A    between atoms: C_32  and  O_34
REMARK   20  A    between atoms: C_35  and  O_37
REMARK   21  A    between atoms: C_38  and  O_40
REMARK                            x       y       z     vdW  Elec       q    Type
REMARK                         _______ _______ _______ _____ _____    ______ ____
ROOT
ATOM      1  C   UNL     1       7.270  -2.466  24.174  0.00  0.00    +0.190 C 
ATOM      2  C   UNL     1       8.166  -3.388  23.352  0.00  0.00    +0.180 C 
ATOM      3  C   UNL     1       7.878  -4.802  23.869  0.00  0.00    +0.207 C 
ATOM      4  C   UNL     1       6.934  -4.612  25.082  0.00  0.00    +0.225 C 
ATOM      5  O   UNL     1       6.356  -3.314  24.884  0.00  0.00    -0.335 OA
ENDROOT
BRANCH   2   6
ATOM      6  O   UNL     1       7.791  -3.311  21.963  0.00  0.00    -0.386 OA
ATOM      7  H   UNL     1       7.305  -2.479  21.812  0.00  0.00    +0.210 HD
ENDBRANCH   2   6
BRANCH   3   8
ATOM      8  O   UNL     1       9.077  -5.518  24.168  0.00  0.00    -0.384 OA
ATOM      9  H   UNL     1       8.798  -6.437  24.357  0.00  0.00    +0.210 HD
ENDBRANCH   3   8
BRANCH   1  10
ATOM     10  C   UNL     1       8.022  -1.594  25.181  0.00  0.00    +0.266 C 
BRANCH  10  11
ATOM     11  O   UNL     1       9.437  -1.661  24.970  0.00  0.00    -0.462 OA
BRANCH  11  12
ATOM     12  C   UNL     1      10.025  -0.495  24.584  0.00  0.00    +0.307 C 
ATOM     13  O   UNL     1      10.449   0.369  25.339  0.00  0.00    -0.251 OA
BRANCH  12  14
ATOM     14  C   UNL     1      10.183  -0.451  23.089  0.00  0.00    +0.120 C 
BRANCH  14  15
ATOM     15  C   UNL     1       9.244   0.560  22.448  0.00  0.00    +0.011 C 
BRANCH  15  16
ATOM     16  C   UNL     1      10.011   1.794  21.987  0.00  0.00    +0.001 C 
BRANCH  16  17
ATOM     17  C   UNL     1       9.902   2.915  23.016  0.00  0.00    +0.000 C 
BRANCH  17  18
ATOM     18  C   UNL     1      11.283   3.350  23.497  0.00  0.00    -0.000 C 
BRANCH  18  20
ATOM     19  C   UNL     1      12.767   5.315  23.011  0.00  0.00    +0.004 C 
ATOM     20  C   UNL     1      11.404   4.871  23.515  0.00  0.00    -0.003 C 
ENDBRANCH  18  20
ENDBRANCH  17  18
ENDBRANCH  16  17
ENDBRANCH  15  16
ENDBRANCH  14  15
ENDBRANCH  12  14
ENDBRANCH  11  12
ENDBRANCH  10  11
ENDBRANCH   1  10
BRANCH   4  21
ATOM     21  C   UNL     1       7.678  -4.686  26.448  0.00  0.00    +0.223 C 
BRANCH  21  22
ATOM     22  O   UNL     1       8.206  -5.979  26.731  0.00  0.00    -0.390 OA
ATOM     23  H   UNL     1       7.432  -6.544  26.927  0.00  0.00    +0.210 HD
ENDBRANCH  21  22
ENDBRANCH   4  21
BRANCH   4  24
ATOM     24  O   UNL     1       5.913  -5.639  24.958  0.00  0.00    -0.313 OA
BRANCH  24  25
ATOM     25  C   UNL     1       4.896  -5.601  25.972  0.00  0.00    +0.285 C 
ATOM     26  C   UNL     1       4.317  -7.019  26.287  0.00  0.00    +0.201 C 
ATOM     27  C   UNL     1       3.051  -7.410  25.491  0.00  0.00    +0.179 C 
ATOM     28  C   UNL     1       2.152  -6.203  25.194  0.00  0.00    +0.177 C 
ATOM     29  C   UNL     1       2.931  -5.005  24.656  0.00  0.00    +0.178 C 
ATOM     30  O   UNL     1       3.896  -4.635  25.649  0.00  0.00    -0.340 OA
BRANCH  28  31
ATOM     31  O   UNL     1       1.524  -5.809  26.441  0.00  0.00    -0.386 OA
ATOM     32  H   UNL     1       0.797  -5.195  26.224  0.00  0.00    +0.210 HD
ENDBRANCH  28  31
BRANCH  27  33
ATOM     33  O   UNL     1       3.359  -8.172  24.324  0.00  0.00    -0.386 OA
ATOM     34  H   UNL     1       3.685  -9.056  24.588  0.00  0.00    +0.210 HD
ENDBRANCH  27  33
BRANCH  26  35
ATOM     35  O   UNL     1       4.008  -7.072  27.701  0.00  0.00    -0.384 OA
ATOM     36  H   UNL     1       4.826  -6.900  28.204  0.00  0.00    +0.210 HD
ENDBRANCH  26  35
BRANCH  29  37
ATOM     37  C   UNL     1       3.455  -5.140  23.213  0.00  0.00    +0.190 C 
BRANCH  37  38
ATOM     38  O   UNL     1       4.390  -4.141  22.823  0.00  0.00    -0.392 OA
ATOM     39  H   UNL     1       5.240  -4.379  23.249  0.00  0.00    +0.210 HD
ENDBRANCH  37  38
ENDBRANCH  29  37
ENDBRANCH  24  25
ENDBRANCH   4  24
TORSDOF 20
ENDMDL
