MODEL 1
REMARK VINA RESULT:      -7.4      0.000      0.000
REMARK  Name = 
REMARK  9 active torsions:
REMARK  status: ('A' for Active; 'I' for Inactive)
REMARK    1  A    between atoms: C_2  and  C_26
REMARK    2  A    between atoms: N_3  and  S_15
REMARK    3  A    between atoms: C_8  and  O_9
REMARK    4  A    between atoms: C_10  and  O_11
REMARK    5  A    between atoms: O_11  and  C_12
REMARK    6  A    between atoms: S_15  and  C_18
REMARK    7  A    between atoms: C_21  and  O_22
REMARK    8  A    between atoms: O_22  and  C_23
REMARK    9  A    between atoms: N_28  and  O_29
REMARK                            x       y       z     vdW  Elec       q    Type
REMARK                         _______ _______ _______ _____ _____    ______ ____
ROOT
ATOM      1  C   UNL     1       6.488  -5.283  24.930  0.00  0.00    +0.198 C 
ATOM      2  C   UNL     1       5.088  -5.488  24.344  0.00  0.00    -0.013 A 
ATOM      3  C   UNL     1       4.344  -4.411  23.837  0.00  0.00    -0.037 A 
ATOM      4  C   UNL     1       3.036  -4.632  23.381  0.00  0.00    +0.053 A 
ATOM      5  C   UNL     1       2.464  -5.908  23.438  0.00  0.00    +0.159 A 
ATOM      6  C   UNL     1       3.200  -6.992  23.923  0.00  0.00    +0.162 A 
ATOM      7  C   UNL     1       4.964  -3.043  23.702  0.00  0.00    +0.052 C 
ATOM      8  C   UNL     1       6.181  -2.850  24.605  0.00  0.00    +0.115 C 
ATOM      9  C   UNL     1       4.511  -6.769  24.363  0.00  0.00    +0.055 A 
ATOM     10  N   UNL     1       7.108  -4.004  24.451  0.00  0.00    -0.160 NA
ENDROOT
BRANCH   1  11
ATOM     11  C   UNL     1       6.497  -5.488  26.460  0.00  0.00    +0.259 C 
ATOM     12  N   UNL     1       7.626  -6.069  27.003  0.00  0.00    -0.196 N 
ATOM     13  H   UNL     1       8.544  -5.883  26.604  0.00  0.00    +0.182 HD
ATOM     14  O   UNL     1       5.547  -5.180  27.184  0.00  0.00    -0.272 OA
BRANCH  12  15
ATOM     15  O   UNL     1       7.600  -6.174  28.419  0.00  0.00    -0.295 OA
ATOM     16  H   UNL     1       7.386  -5.254  28.694  0.00  0.00    +0.241 HD
ENDBRANCH  12  15
ENDBRANCH   1  11
BRANCH  10  17
ATOM     17  S   UNL     1       8.694  -3.652  24.973  0.00  0.00    +0.062 S 
ATOM     18  O   UNL     1       9.507  -4.815  24.689  0.00  0.00    -0.153 OA
ATOM     19  O   UNL     1       8.594  -3.144  26.325  0.00  0.00    -0.153 OA
BRANCH  17  20
ATOM     20  C   UNL     1       9.202  -2.306  23.939  0.00  0.00    +0.106 A 
ATOM     21  C   UNL     1       8.976  -2.367  22.562  0.00  0.00    +0.032 A 
ATOM     22  C   UNL     1       9.238  -1.251  21.766  0.00  0.00    +0.047 A 
ATOM     23  C   UNL     1       9.754  -0.088  22.339  0.00  0.00    +0.120 A 
ATOM     24  C   UNL     1      10.022  -0.056  23.712  0.00  0.00    +0.047 A 
ATOM     25  C   UNL     1       9.757  -1.165  24.518  0.00  0.00    +0.032 A 
BRANCH  23  26
ATOM     26  O   UNL     1       9.976   1.089  21.678  0.00  0.00    -0.495 OA
ATOM     27  C   UNL     1      10.179   2.241  22.489  0.00  0.00    +0.277 C 
ENDBRANCH  23  26
ENDBRANCH  17  20
ENDBRANCH  10  17
BRANCH   6  28
ATOM     28  O   UNL     1       2.821  -8.299  24.048  0.00  0.00    -0.491 OA
ATOM     29  C   UNL     1       1.971  -8.653  25.128  0.00  0.00    +0.277 C 
ENDBRANCH   6  28
BRANCH   5  30
ATOM     30  O   UNL     1       1.177  -6.059  23.002  0.00  0.00    -0.503 OA
ATOM     31  H   UNL     1       0.590  -6.193  23.764  0.00  0.00    +0.292 HD
ENDBRANCH   5  30
TORSDOF 7
ENDMDL
MODEL 2
REMARK VINA RESULT:      -7.1      2.424      3.944
REMARK  Name = 
REMARK  9 active torsions:
REMARK  status: ('A' for Active; 'I' for Inactive)
REMARK    1  A    between atoms: C_2  and  C_26
REMARK    2  A    between atoms: N_3  and  S_15
REMARK    3  A    between atoms: C_8  and  O_9
REMARK    4  A    between atoms: C_10  and  O_11
REMARK    5  A    between atoms: O_11  and  C_12
REMARK    6  A    between atoms: S_15  and  C_18
REMARK    7  A    between atoms: C_21  and  O_22
REMARK    8  A    between atoms: O_22  and  C_23
REMARK    9  A    between atoms: N_28  and  O_29
REMARK                            x       y       z     vdW  Elec       q    Type
REMARK                         _______ _______ _______ _____ _____    ______ ____
ROOT
ATOM      1  C   UNL     1       7.018  -4.209  24.147  0.00  0.00    +0.198 C 
ATOM      2  C   UNL     1       6.552  -5.003  25.370  0.00  0.00    -0.013 A 
ATOM      3  C   UNL     1       7.381  -5.171  26.490  0.00  0.00    -0.037 A 
ATOM      4  C   UNL     1       6.944  -5.971  27.557  0.00  0.00    +0.053 A 
ATOM      5  C   UNL     1       5.700  -6.611  27.509  0.00  0.00    +0.159 A 
ATOM      6  C   UNL     1       4.858  -6.437  26.407  0.00  0.00    +0.162 A 
ATOM      7  C   UNL     1       8.694  -4.435  26.594  0.00  0.00    +0.052 C 
ATOM      8  C   UNL     1       9.226  -3.976  25.238  0.00  0.00    +0.115 C 
ATOM      9  C   UNL     1       5.292  -5.625  25.352  0.00  0.00    +0.055 A 
ATOM     10  N   UNL     1       8.146  -3.281  24.485  0.00  0.00    -0.160 NA
ENDROOT
BRANCH   1  11
ATOM     11  C   UNL     1       7.262  -5.129  22.933  0.00  0.00    +0.259 C 
ATOM     12  N   UNL     1       6.356  -5.044  21.895  0.00  0.00    -0.196 N 
ATOM     13  H   UNL     1       5.925  -4.153  21.659  0.00  0.00    +0.182 HD
ATOM     14  O   UNL     1       8.200  -5.930  22.875  0.00  0.00    -0.272 OA
BRANCH  12  15
ATOM     15  O   UNL     1       6.669  -5.869  20.782  0.00  0.00    -0.295 OA
ATOM     16  H   UNL     1       7.636  -6.011  20.890  0.00  0.00    +0.241 HD
ENDBRANCH  12  15
ENDBRANCH   1  11
BRANCH  10  17
ATOM     17  S   UNL     1       8.748  -2.282  23.239  0.00  0.00    +0.062 S 
ATOM     18  O   UNL     1       7.792  -2.330  22.153  0.00  0.00    -0.153 OA
ATOM     19  O   UNL     1      10.126  -2.664  23.015  0.00  0.00    -0.153 OA
BRANCH  17  20
ATOM     20  C   UNL     1       8.758  -0.660  23.949  0.00  0.00    +0.106 A 
ATOM     21  C   UNL     1       9.959   0.044  24.053  0.00  0.00    +0.032 A 
ATOM     22  C   UNL     1       9.950   1.376  24.473  0.00  0.00    +0.047 A 
ATOM     23  C   UNL     1       8.746   1.992  24.819  0.00  0.00    +0.120 A 
ATOM     24  C   UNL     1       7.554   1.261  24.759  0.00  0.00    +0.047 A 
ATOM     25  C   UNL     1       7.553  -0.069  24.333  0.00  0.00    +0.032 A 
BRANCH  23  26
ATOM     26  O   UNL     1       8.602   3.307  25.167  0.00  0.00    -0.495 OA
ATOM     27  C   UNL     1       9.136   4.263  24.258  0.00  0.00    +0.277 C 
ENDBRANCH  23  26
ENDBRANCH  17  20
ENDBRANCH  10  17
BRANCH   6  28
ATOM     28  O   UNL     1       3.617  -6.967  26.185  0.00  0.00    -0.491 OA
ATOM     29  C   UNL     1       3.274  -7.342  24.859  0.00  0.00    +0.277 C 
ENDBRANCH   6  28
BRANCH   5  30
ATOM     30  O   UNL     1       5.338  -7.398  28.566  0.00  0.00    -0.503 OA
ATOM     31  H   UNL     1       4.845  -8.169  28.243  0.00  0.00    +0.292 HD
ENDBRANCH   5  30
TORSDOF 7
ENDMDL
MODEL 3
REMARK VINA RESULT:      -6.9      2.072      7.085
REMARK  Name = 
REMARK  9 active torsions:
REMARK  status: ('A' for Active; 'I' for Inactive)
REMARK    1  A    between atoms: C_2  and  C_26
REMARK    2  A    between atoms: N_3  and  S_15
REMARK    3  A    between atoms: C_8  and  O_9
REMARK    4  A    between atoms: C_10  and  O_11
REMARK    5  A    between atoms: O_11  and  C_12
REMARK    6  A    between atoms: S_15  and  C_18
REMARK    7  A    between atoms: C_21  and  O_22
REMARK    8  A    between atoms: O_22  and  C_23
REMARK    9  A    between atoms: N_28  and  O_29
REMARK                            x       y       z     vdW  Elec       q    Type
REMARK                         _______ _______ _______ _____ _____    ______ ____
ROOT
ATOM      1  C   UNL     1       7.552  -2.218  24.172  0.00  0.00    +0.198 C 
ATOM      2  C   UNL     1       7.932  -0.976  23.360  0.00  0.00    -0.013 A 
ATOM      3  C   UNL     1       9.245  -0.775  22.906  0.00  0.00    -0.037 A 
ATOM      4  C   UNL     1       9.566   0.413  22.233  0.00  0.00    +0.053 A 
ATOM      5  C   UNL     1       8.597   1.401  22.022  0.00  0.00    +0.159 A 
ATOM      6  C   UNL     1       7.282   1.205  22.454  0.00  0.00    +0.162 A 
ATOM      7  C   UNL     1      10.286  -1.855  23.059  0.00  0.00    +0.052 C 
ATOM      8  C   UNL     1       9.940  -2.864  24.152  0.00  0.00    +0.115 C 
ATOM      9  C   UNL     1       6.963   0.011  23.111  0.00  0.00    +0.055 A 
ATOM     10  N   UNL     1       8.537  -3.331  23.977  0.00  0.00    -0.160 NA
ENDROOT
BRANCH   1  11
ATOM     11  C   UNL     1       7.242  -1.861  25.641  0.00  0.00    +0.259 C 
ATOM     12  N   UNL     1       5.981  -2.178  26.106  0.00  0.00    -0.196 N 
ATOM     13  H   UNL     1       5.504  -3.013  25.773  0.00  0.00    +0.182 HD
ATOM     14  O   UNL     1       8.054  -1.298  26.380  0.00  0.00    -0.272 OA
BRANCH  12  15
ATOM     15  O   UNL     1       5.778  -1.882  27.480  0.00  0.00    -0.295 OA
ATOM     16  H   UNL     1       6.664  -2.063  27.868  0.00  0.00    +0.241 HD
ENDBRANCH  12  15
ENDBRANCH   1  11
BRANCH  10  17
ATOM     17  S   UNL     1       8.229  -4.808  24.775  0.00  0.00    +0.062 S 
ATOM     18  O   UNL     1       8.142  -4.519  26.191  0.00  0.00    -0.153 OA
ATOM     19  O   UNL     1       9.196  -5.767  24.284  0.00  0.00    -0.153 OA
BRANCH  17  20
ATOM     20  C   UNL     1       6.639  -5.303  24.172  0.00  0.00    +0.106 A 
ATOM     21  C   UNL     1       5.584  -5.484  25.067  0.00  0.00    +0.032 A 
ATOM     22  C   UNL     1       4.297  -5.728  24.584  0.00  0.00    +0.047 A 
ATOM     23  C   UNL     1       4.071  -5.823  23.210  0.00  0.00    +0.120 A 
ATOM     24  C   UNL     1       5.145  -5.688  22.324  0.00  0.00    +0.047 A 
ATOM     25  C   UNL     1       6.435  -5.437  22.798  0.00  0.00    +0.032 A 
BRANCH  23  26
ATOM     26  O   UNL     1       2.848  -5.979  22.619  0.00  0.00    -0.495 OA
ATOM     27  C   UNL     1       1.746  -5.356  23.270  0.00  0.00    +0.277 C 
ENDBRANCH  23  26
ENDBRANCH  17  20
ENDBRANCH  10  17
BRANCH   6  28
ATOM     28  O   UNL     1       6.207   2.041  22.334  0.00  0.00    -0.491 OA
ATOM     29  C   UNL     1       5.622   2.559  23.519  0.00  0.00    +0.277 C 
ENDBRANCH   6  28
BRANCH   5  30
ATOM     30  O   UNL     1       8.973   2.548  21.382  0.00  0.00    -0.503 OA
ATOM     31  H   UNL     1       8.225   2.895  20.870  0.00  0.00    +0.292 HD
ENDBRANCH   5  30
TORSDOF 7
ENDMDL
MODEL 4
REMARK VINA RESULT:      -6.8      2.377      3.464
REMARK  Name = 
REMARK  9 active torsions:
REMARK  status: ('A' for Active; 'I' for Inactive)
REMARK    1  A    between atoms: C_2  and  C_26
REMARK    2  A    between atoms: N_3  and  S_15
REMARK    3  A    between atoms: C_8  and  O_9
REMARK    4  A    between atoms: C_10  and  O_11
REMARK    5  A    between atoms: O_11  and  C_12
REMARK    6  A    between atoms: S_15  and  C_18
REMARK    7  A    between atoms: C_21  and  O_22
REMARK    8  A    between atoms: O_22  and  C_23
REMARK    9  A    between atoms: N_28  and  O_29
REMARK                            x       y       z     vdW  Elec       q    Type
REMARK                         _______ _______ _______ _____ _____    ______ ____
ROOT
ATOM      1  C   UNL     1       7.426  -3.414  24.087  0.00  0.00    +0.198 C 
ATOM      2  C   UNL     1       6.360  -3.431  25.187  0.00  0.00    -0.013 A 
ATOM      3  C   UNL     1       6.434  -2.564  26.288  0.00  0.00    -0.037 A 
ATOM      4  C   UNL     1       5.480  -2.667  27.311  0.00  0.00    +0.053 A 
ATOM      5  C   UNL     1       4.466  -3.632  27.250  0.00  0.00    +0.159 A 
ATOM      6  C   UNL     1       4.372  -4.489  26.151  0.00  0.00    +0.162 A 
ATOM      7  C   UNL     1       7.473  -1.472  26.340  0.00  0.00    +0.052 C 
ATOM      8  C   UNL     1       8.666  -1.743  25.425  0.00  0.00    +0.115 C 
ATOM      9  C   UNL     1       5.318  -4.372  25.125  0.00  0.00    +0.055 A 
ATOM     10  N   UNL     1       8.183  -2.120  24.068  0.00  0.00    -0.160 NA
ENDROOT
BRANCH   1  11
ATOM     11  C   UNL     1       8.297  -4.687  24.121  0.00  0.00    +0.259 C 
ATOM     12  N   UNL     1       9.164  -4.819  25.188  0.00  0.00    -0.196 N 
ATOM     13  H   UNL     1       8.907  -4.468  26.107  0.00  0.00    +0.182 HD
ATOM     14  O   UNL     1       8.259  -5.550  23.240  0.00  0.00    -0.272 OA
BRANCH  12  15
ATOM     15  O   UNL     1       9.892  -6.039  25.196  0.00  0.00    -0.295 OA
ATOM     16  H   UNL     1       9.195  -6.698  25.414  0.00  0.00    +0.241 HD
ENDBRANCH  12  15
ENDBRANCH   1  11
BRANCH  10  17
ATOM     17  S   UNL     1       9.374  -1.918  22.864  0.00  0.00    +0.062 S 
ATOM     18  O   UNL     1       8.741  -2.176  21.588  0.00  0.00    -0.153 OA
ATOM     19  O   UNL     1      10.529  -2.689  23.274  0.00  0.00    -0.153 OA
BRANCH  17  20
ATOM     20  C   UNL     1       9.816  -0.206  22.972  0.00  0.00    +0.106 A 
ATOM     21  C   UNL     1       9.302   0.702  22.044  0.00  0.00    +0.032 A 
ATOM     22  C   UNL     1       9.525   2.069  22.214  0.00  0.00    +0.047 A 
ATOM     23  C   UNL     1      10.289   2.525  23.289  0.00  0.00    +0.120 A 
ATOM     24  C   UNL     1      10.841   1.602  24.184  0.00  0.00    +0.047 A 
ATOM     25  C   UNL     1      10.616   0.233  24.027  0.00  0.00    +0.032 A 
BRANCH  23  26
ATOM     26  O   UNL     1      10.510   3.838  23.601  0.00  0.00    -0.495 OA
ATOM     27  C   UNL     1      11.801   4.353  23.293  0.00  0.00    +0.277 C 
ENDBRANCH  23  26
ENDBRANCH  17  20
ENDBRANCH  10  17
BRANCH   6  28
ATOM     28  O   UNL     1       3.459  -5.478  25.911  0.00  0.00    -0.491 OA
ATOM     29  C   UNL     1       3.857  -6.825  26.116  0.00  0.00    +0.277 C 
ENDBRANCH   6  28
BRANCH   5  30
ATOM     30  O   UNL     1       3.579  -3.702  28.287  0.00  0.00    -0.503 OA
ATOM     31  H   UNL     1       3.993  -3.352  29.093  0.00  0.00    +0.292 HD
ENDBRANCH   5  30
TORSDOF 7
ENDMDL
MODEL 5
REMARK VINA RESULT:      -6.8      2.255      7.142
REMARK  Name = 
REMARK  9 active torsions:
REMARK  status: ('A' for Active; 'I' for Inactive)
REMARK    1  A    between atoms: C_2  and  C_26
REMARK    2  A    between atoms: N_3  and  S_15
REMARK    3  A    between atoms: C_8  and  O_9
REMARK    4  A    between atoms: C_10  and  O_11
REMARK    5  A    between atoms: O_11  and  C_12
REMARK    6  A    between atoms: S_15  and  C_18
REMARK    7  A    between atoms: C_21  and  O_22
REMARK    8  A    between atoms: O_22  and  C_23
REMARK    9  A    between atoms: N_28  and  O_29
REMARK                            x       y       z     vdW  Elec       q    Type
REMARK                         _______ _______ _______ _____ _____    ______ ____
ROOT
ATOM      1  C   UNL     1       7.778  -1.981  24.582  0.00  0.00    +0.198 C 
ATOM      2  C   UNL     1       7.889  -0.792  23.623  0.00  0.00    -0.013 A 
ATOM      3  C   UNL     1       9.006  -0.629  22.788  0.00  0.00    -0.037 A 
ATOM      4  C   UNL     1       9.102   0.516  21.983  0.00  0.00    +0.053 A 
ATOM      5  C   UNL     1       8.105   1.498  22.012  0.00  0.00    +0.159 A 
ATOM      6  C   UNL     1       6.980   1.340  22.826  0.00  0.00    +0.162 A 
ATOM      7  C   UNL     1      10.055  -1.707  22.688  0.00  0.00    +0.052 C 
ATOM      8  C   UNL     1      10.058  -2.648  23.891  0.00  0.00    +0.115 C 
ATOM      9  C   UNL     1       6.882   0.188  23.616  0.00  0.00    +0.055 A 
ATOM     10  N   UNL     1       8.670  -3.112  24.168  0.00  0.00    -0.160 NA
ENDROOT
BRANCH   1  11
ATOM     11  C   UNL     1       7.915  -1.537  26.053  0.00  0.00    +0.259 C 
ATOM     12  N   UNL     1       9.086  -0.893  26.403  0.00  0.00    -0.196 N 
ATOM     13  H   UNL     1       9.554  -0.280  25.740  0.00  0.00    +0.182 HD
ATOM     14  O   UNL     1       7.048  -1.755  26.903  0.00  0.00    -0.272 OA
BRANCH  12  15
ATOM     15  O   UNL     1       9.126  -0.455  27.753  0.00  0.00    -0.295 OA
ATOM     16  H   UNL     1       8.441  -1.019  28.178  0.00  0.00    +0.241 HD
ENDBRANCH  12  15
ENDBRANCH   1  11
BRANCH  10  17
ATOM     17  S   UNL     1       8.626  -4.537  25.105  0.00  0.00    +0.062 S 
ATOM     18  O   UNL     1       9.067  -4.187  26.438  0.00  0.00    -0.153 OA
ATOM     19  O   UNL     1       9.319  -5.563  24.354  0.00  0.00    -0.153 OA
BRANCH  17  20
ATOM     20  C   UNL     1       6.911  -4.978  25.143  0.00  0.00    +0.106 A 
ATOM     21  C   UNL     1       6.222  -5.188  23.948  0.00  0.00    +0.032 A 
ATOM     22  C   UNL     1       4.916  -5.679  23.976  0.00  0.00    +0.047 A 
ATOM     23  C   UNL     1       4.287  -5.928  25.197  0.00  0.00    +0.120 A 
ATOM     24  C   UNL     1       4.971  -5.666  26.390  0.00  0.00    +0.047 A 
ATOM     25  C   UNL     1       6.280  -5.182  26.371  0.00  0.00    +0.032 A 
BRANCH  23  26
ATOM     26  O   UNL     1       3.046  -6.480  25.350  0.00  0.00    -0.495 OA
ATOM     27  C   UNL     1       2.809  -7.704  24.661  0.00  0.00    +0.277 C 
ENDBRANCH  23  26
ENDBRANCH  17  20
ENDBRANCH  10  17
BRANCH   6  28
ATOM     28  O   UNL     1       5.911   2.176  22.982  0.00  0.00    -0.491 OA
ATOM     29  C   UNL     1       5.198   2.135  24.209  0.00  0.00    +0.277 C 
ENDBRANCH   6  28
BRANCH   5  30
ATOM     30  O   UNL     1       8.265   2.603  21.224  0.00  0.00    -0.503 OA
ATOM     31  H   UNL     1       9.212   2.792  21.117  0.00  0.00    +0.292 HD
ENDBRANCH   5  30
TORSDOF 7
ENDMDL
MODEL 6
REMARK VINA RESULT:      -6.8      1.702      7.531
REMARK  Name = 
REMARK  9 active torsions:
REMARK  status: ('A' for Active; 'I' for Inactive)
REMARK    1  A    between atoms: C_2  and  C_26
REMARK    2  A    between atoms: N_3  and  S_15
REMARK    3  A    between atoms: C_8  and  O_9
REMARK    4  A    between atoms: C_10  and  O_11
REMARK    5  A    between atoms: O_11  and  C_12
REMARK    6  A    between atoms: S_15  and  C_18
REMARK    7  A    between atoms: C_21  and  O_22
REMARK    8  A    between atoms: O_22  and  C_23
REMARK    9  A    between atoms: N_28  and  O_29
REMARK                            x       y       z     vdW  Elec       q    Type
REMARK                         _______ _______ _______ _____ _____    ______ ____
ROOT
ATOM      1  C   UNL     1       7.366  -3.484  25.250  0.00  0.00    +0.198 C 
ATOM      2  C   UNL     1       8.001  -2.571  24.197  0.00  0.00    -0.013 A 
ATOM      3  C   UNL     1       7.737  -2.742  22.829  0.00  0.00    -0.037 A 
ATOM      4  C   UNL     1       8.401  -1.934  21.893  0.00  0.00    +0.053 A 
ATOM      5  C   UNL     1       9.331  -0.973  22.309  0.00  0.00    +0.159 A 
ATOM      6  C   UNL     1       9.590  -0.782  23.669  0.00  0.00    +0.162 A 
ATOM      7  C   UNL     1       6.689  -3.721  22.363  0.00  0.00    +0.052 C 
ATOM      8  C   UNL     1       6.379  -4.798  23.401  0.00  0.00    +0.115 C 
ATOM      9  C   UNL     1       8.913  -1.580  24.599  0.00  0.00    +0.055 A 
ATOM     10  N   UNL     1       6.136  -4.163  24.726  0.00  0.00    -0.160 NA
ENDROOT
BRANCH   1  11
ATOM     11  C   UNL     1       8.410  -4.417  25.897  0.00  0.00    +0.259 C 
ATOM     12  N   UNL     1       9.150  -5.211  25.042  0.00  0.00    -0.196 N 
ATOM     13  H   UNL     1       9.413  -4.870  24.121  0.00  0.00    +0.182 HD
ATOM     14  O   UNL     1       8.582  -4.489  27.116  0.00  0.00    -0.272 OA
BRANCH  12  15
ATOM     15  O   UNL     1      10.136  -6.000  25.691  0.00  0.00    -0.295 OA
ATOM     16  H   UNL     1      10.972  -5.568  25.406  0.00  0.00    +0.241 HD
ENDBRANCH  12  15
ENDBRANCH   1  11
BRANCH  10  17
ATOM     17  S   UNL     1       5.277  -5.177  25.796  0.00  0.00    +0.062 S 
ATOM     18  O   UNL     1       4.813  -4.350  26.889  0.00  0.00    -0.153 OA
ATOM     19  O   UNL     1       6.114  -6.329  26.057  0.00  0.00    -0.153 OA
BRANCH  17  20
ATOM     20  C   UNL     1       3.891  -5.736  24.845  0.00  0.00    +0.106 A 
ATOM     21  C   UNL     1       3.052  -4.805  24.229  0.00  0.00    +0.032 A 
ATOM     22  C   UNL     1       2.051  -5.240  23.360  0.00  0.00    +0.047 A 
ATOM     23  C   UNL     1       1.866  -6.604  23.132  0.00  0.00    +0.120 A 
ATOM     24  C   UNL     1       2.681  -7.530  23.793  0.00  0.00    +0.047 A 
ATOM     25  C   UNL     1       3.690  -7.104  24.659  0.00  0.00    +0.032 A 
BRANCH  23  26
ATOM     26  O   UNL     1       0.975  -7.145  22.247  0.00  0.00    -0.495 OA
ATOM     27  C   UNL     1       0.573  -8.488  22.496  0.00  0.00    +0.277 C 
ENDBRANCH  23  26
ENDBRANCH  17  20
ENDBRANCH  10  17
BRANCH   6  28
ATOM     28  O   UNL     1      10.447   0.102  24.262  0.00  0.00    -0.491 OA
ATOM     29  C   UNL     1      10.049   1.460  24.364  0.00  0.00    +0.277 C 
ENDBRANCH   6  28
BRANCH   5  30
ATOM     30  O   UNL     1       9.965  -0.233  21.352  0.00  0.00    -0.503 OA
ATOM     31  H   UNL     1       9.536   0.635  21.276  0.00  0.00    +0.292 HD
ENDBRANCH   5  30
TORSDOF 7
ENDMDL
MODEL 7
REMARK VINA RESULT:      -6.7      2.615      3.893
REMARK  Name = 
REMARK  9 active torsions:
REMARK  status: ('A' for Active; 'I' for Inactive)
REMARK    1  A    between atoms: C_2  and  C_26
REMARK    2  A    between atoms: N_3  and  S_15
REMARK    3  A    between atoms: C_8  and  O_9
REMARK    4  A    between atoms: C_10  and  O_11
REMARK    5  A    between atoms: O_11  and  C_12
REMARK    6  A    between atoms: S_15  and  C_18
REMARK    7  A    between atoms: C_21  and  O_22
REMARK    8  A    between atoms: O_22  and  C_23
REMARK    9  A    between atoms: N_28  and  O_29
REMARK                            x       y       z     vdW  Elec       q    Type
REMARK                         _______ _______ _______ _____ _____    ______ ____
ROOT
ATOM      1  C   UNL     1       7.061  -3.290  23.824  0.00  0.00    +0.198 C 
ATOM      2  C   UNL     1       6.202  -3.589  25.057  0.00  0.00    -0.013 A 
ATOM      3  C   UNL     1       6.714  -3.441  26.356  0.00  0.00    -0.037 A 
ATOM      4  C   UNL     1       5.920  -3.801  27.454  0.00  0.00    +0.053 A 
ATOM      5  C   UNL     1       4.631  -4.316  27.268  0.00  0.00    +0.159 A 
ATOM      6  C   UNL     1       4.104  -4.452  25.981  0.00  0.00    +0.162 A 
ATOM      7  C   UNL     1       8.071  -2.822  26.583  0.00  0.00    +0.052 C 
ATOM      8  C   UNL     1       8.968  -2.887  25.348  0.00  0.00    +0.115 C 
ATOM      9  C   UNL     1       4.896  -4.077  24.889  0.00  0.00    +0.055 A 
ATOM     10  N   UNL     1       8.219  -2.397  24.158  0.00  0.00    -0.160 NA
ENDROOT
BRANCH   1  11
ATOM     11  C   UNL     1       7.421  -4.579  23.058  0.00  0.00    +0.259 C 
ATOM     12  N   UNL     1       6.797  -4.776  21.842  0.00  0.00    -0.196 N 
ATOM     13  H   UNL     1       6.578  -3.984  21.241  0.00  0.00    +0.182 HD
ATOM     14  O   UNL     1       8.207  -5.423  23.497  0.00  0.00    -0.272 OA
BRANCH  12  15
ATOM     15  O   UNL     1       7.216  -5.947  21.157  0.00  0.00    -0.295 OA
ATOM     16  H   UNL     1       7.735  -5.578  20.408  0.00  0.00    +0.241 HD
ENDBRANCH  12  15
ENDBRANCH   1  11
BRANCH  10  17
ATOM     17  S   UNL     1       9.246  -1.925  22.880  0.00  0.00    +0.062 S 
ATOM     18  O   UNL     1       8.542  -2.195  21.643  0.00  0.00    -0.153 OA
ATOM     19  O   UNL     1      10.539  -2.524  23.129  0.00  0.00    -0.153 OA
BRANCH  17  20
ATOM     20  C   UNL     1       9.424  -0.175  23.091  0.00  0.00    +0.106 A 
ATOM     21  C   UNL     1       9.164   0.403  24.335  0.00  0.00    +0.032 A 
ATOM     22  C   UNL     1       9.446   1.754  24.545  0.00  0.00    +0.047 A 
ATOM     23  C   UNL     1       9.956   2.533  23.505  0.00  0.00    +0.120 A 
ATOM     24  C   UNL     1      10.165   1.954  22.248  0.00  0.00    +0.047 A 
ATOM     25  C   UNL     1       9.893   0.601  22.031  0.00  0.00    +0.032 A 
BRANCH  23  26
ATOM     26  O   UNL     1      10.342   3.840  23.612  0.00  0.00    -0.495 OA
ATOM     27  C   UNL     1      11.707   4.121  23.321  0.00  0.00    +0.277 C 
ENDBRANCH  23  26
ENDBRANCH  17  20
ENDBRANCH  10  17
BRANCH   6  28
ATOM     28  O   UNL     1       2.877  -4.922  25.603  0.00  0.00    -0.491 OA
ATOM     29  C   UNL     1       1.791  -4.009  25.559  0.00  0.00    +0.277 C 
ENDBRANCH   6  28
BRANCH   5  30
ATOM     30  O   UNL     1       3.912  -4.672  28.374  0.00  0.00    -0.503 OA
ATOM     31  H   UNL     1       3.036  -4.992  28.103  0.00  0.00    +0.292 HD
ENDBRANCH   5  30
TORSDOF 7
ENDMDL
MODEL 8
REMARK VINA RESULT:      -6.6      3.051      4.875
REMARK  Name = 
REMARK  9 active torsions:
REMARK  status: ('A' for Active; 'I' for Inactive)
REMARK    1  A    between atoms: C_2  and  C_26
REMARK    2  A    between atoms: N_3  and  S_15
REMARK    3  A    between atoms: C_8  and  O_9
REMARK    4  A    between atoms: C_10  and  O_11
REMARK    5  A    between atoms: O_11  and  C_12
REMARK    6  A    between atoms: S_15  and  C_18
REMARK    7  A    between atoms: C_21  and  O_22
REMARK    8  A    between atoms: O_22  and  C_23
REMARK    9  A    between atoms: N_28  and  O_29
REMARK                            x       y       z     vdW  Elec       q    Type
REMARK                         _______ _______ _______ _____ _____    ______ ____
ROOT
ATOM      1  C   UNL     1       8.105  -1.516  22.732  0.00  0.00    +0.198 C 
ATOM      2  C   UNL     1       6.806  -2.258  23.060  0.00  0.00    -0.013 A 
ATOM      3  C   UNL     1       5.968  -1.836  24.105  0.00  0.00    -0.037 A 
ATOM      4  C   UNL     1       4.829  -2.591  24.422  0.00  0.00    +0.053 A 
ATOM      5  C   UNL     1       4.528  -3.763  23.717  0.00  0.00    +0.159 A 
ATOM      6  C   UNL     1       5.344  -4.185  22.665  0.00  0.00    +0.162 A 
ATOM      7  C   UNL     1       6.234  -0.540  24.829  0.00  0.00    +0.052 C 
ATOM      8  C   UNL     1       7.681  -0.070  24.694  0.00  0.00    +0.115 C 
ATOM      9  C   UNL     1       6.472  -3.419  22.343  0.00  0.00    +0.055 A 
ATOM     10  N   UNL     1       8.092  -0.114  23.264  0.00  0.00    -0.160 NA
ENDROOT
BRANCH   1  11
ATOM     11  C   UNL     1       9.346  -2.353  23.107  0.00  0.00    +0.259 C 
ATOM     12  N   UNL     1       9.231  -3.178  24.208  0.00  0.00    -0.196 N 
ATOM     13  H   UNL     1       8.346  -3.632  24.422  0.00  0.00    +0.182 HD
ATOM     14  O   UNL     1      10.410  -2.289  22.485  0.00  0.00    -0.272 OA
BRANCH  12  15
ATOM     15  O   UNL     1      10.384  -3.967  24.464  0.00  0.00    -0.295 OA
ATOM     16  H   UNL     1      10.001  -4.864  24.592  0.00  0.00    +0.241 HD
ENDBRANCH  12  15
ENDBRANCH   1  11
BRANCH  10  17
ATOM     17  S   UNL     1       9.448   0.867  22.936  0.00  0.00    +0.062 S 
ATOM     18  O   UNL     1       9.840   0.613  21.566  0.00  0.00    -0.153 OA
ATOM     19  O   UNL     1      10.393   0.663  24.014  0.00  0.00    -0.153 OA
BRANCH  17  20
ATOM     20  C   UNL     1       8.832   2.522  23.080  0.00  0.00    +0.106 A 
ATOM     21  C   UNL     1       7.823   2.962  22.222  0.00  0.00    +0.032 A 
ATOM     22  C   UNL     1       7.232   4.210  22.427  0.00  0.00    +0.047 A 
ATOM     23  C   UNL     1       7.671   5.029  23.468  0.00  0.00    +0.120 A 
ATOM     24  C   UNL     1       8.717   4.598  24.291  0.00  0.00    +0.047 A 
ATOM     25  C   UNL     1       9.309   3.348  24.097  0.00  0.00    +0.032 A 
BRANCH  23  26
ATOM     26  O   UNL     1       7.119   6.232  23.814  0.00  0.00    -0.495 OA
ATOM     27  C   UNL     1       5.949   6.180  24.624  0.00  0.00    +0.277 C 
ENDBRANCH  23  26
ENDBRANCH  17  20
ENDBRANCH  10  17
BRANCH   6  28
ATOM     28  O   UNL     1       5.211  -5.285  21.864  0.00  0.00    -0.491 OA
ATOM     29  C   UNL     1       6.310  -5.659  21.047  0.00  0.00    +0.277 C 
ENDBRANCH   6  28
BRANCH   5  30
ATOM     30  O   UNL     1       3.418  -4.470  24.086  0.00  0.00    -0.503 OA
ATOM     31  H   UNL     1       3.576  -4.898  24.944  0.00  0.00    +0.292 HD
ENDBRANCH   5  30
TORSDOF 7
ENDMDL
MODEL 9
REMARK VINA RESULT:      -6.5      3.723      8.598
REMARK  Name = 
REMARK  9 active torsions:
REMARK  status: ('A' for Active; 'I' for Inactive)
REMARK    1  A    between atoms: C_2  and  C_26
REMARK    2  A    between atoms: N_3  and  S_15
REMARK    3  A    between atoms: C_8  and  O_9
REMARK    4  A    between atoms: C_10  and  O_11
REMARK    5  A    between atoms: O_11  and  C_12
REMARK    6  A    between atoms: S_15  and  C_18
REMARK    7  A    between atoms: C_21  and  O_22
REMARK    8  A    between atoms: O_22  and  C_23
REMARK    9  A    between atoms: N_28  and  O_29
REMARK                            x       y       z     vdW  Elec       q    Type
REMARK                         _______ _______ _______ _____ _____    ______ ____
ROOT
ATOM      1  C   UNL     1       7.398   1.357  24.895  0.00  0.00    +0.198 C 
ATOM      2  C   UNL     1       8.483   2.294  24.355  0.00  0.00    -0.013 A 
ATOM      3  C   UNL     1       9.807   1.858  24.190  0.00  0.00    -0.037 A 
ATOM      4  C   UNL     1      10.785   2.770  23.767  0.00  0.00    +0.053 A 
ATOM      5  C   UNL     1      10.456   4.109  23.521  0.00  0.00    +0.159 A 
ATOM      6  C   UNL     1       9.138   4.551  23.665  0.00  0.00    +0.162 A 
ATOM      7  C   UNL     1      10.169   0.406  24.380  0.00  0.00    +0.052 C 
ATOM      8  C   UNL     1       9.153  -0.353  25.232  0.00  0.00    +0.115 C 
ATOM      9  C   UNL     1       8.163   3.633  24.073  0.00  0.00    +0.055 A 
ATOM     10  N   UNL     1       7.777  -0.084  24.731  0.00  0.00    -0.160 NA
ENDROOT
BRANCH   1  11
ATOM     11  C   UNL     1       6.952   1.765  26.315  0.00  0.00    +0.259 C 
ATOM     12  N   UNL     1       7.738   1.329  27.363  0.00  0.00    -0.196 N 
ATOM     13  H   UNL     1       8.746   1.248  27.253  0.00  0.00    +0.182 HD
ATOM     14  O   UNL     1       5.935   2.428  26.534  0.00  0.00    -0.272 OA
BRANCH  12  15
ATOM     15  O   UNL     1       7.312   1.788  28.637  0.00  0.00    -0.295 OA
ATOM     16  H   UNL     1       6.628   2.455  28.403  0.00  0.00    +0.241 HD
ENDBRANCH  12  15
ENDBRANCH   1  11
BRANCH  10  17
ATOM     17  S   UNL     1       6.649  -1.260  25.236  0.00  0.00    +0.062 S 
ATOM     18  O   UNL     1       5.329  -0.729  24.971  0.00  0.00    -0.153 OA
ATOM     19  O   UNL     1       7.020  -1.657  26.578  0.00  0.00    -0.153 OA
BRANCH  17  20
ATOM     20  C   UNL     1       6.957  -2.642  24.172  0.00  0.00    +0.106 A 
ATOM     21  C   UNL     1       7.579  -3.784  24.680  0.00  0.00    +0.032 A 
ATOM     22  C   UNL     1       7.688  -4.927  23.886  0.00  0.00    +0.047 A 
ATOM     23  C   UNL     1       7.206  -4.918  22.577  0.00  0.00    +0.120 A 
ATOM     24  C   UNL     1       6.629  -3.752  22.062  0.00  0.00    +0.047 A 
ATOM     25  C   UNL     1       6.509  -2.606  22.851  0.00  0.00    +0.032 A 
BRANCH  23  26
ATOM     26  O   UNL     1       7.185  -5.995  21.734  0.00  0.00    -0.495 OA
ATOM     27  C   UNL     1       6.169  -5.998  20.737  0.00  0.00    +0.277 C 
ENDBRANCH  23  26
ENDBRANCH  17  20
ENDBRANCH  10  17
BRANCH   6  28
ATOM     28  O   UNL     1       8.628   5.804  23.465  0.00  0.00    -0.491 OA
ATOM     29  C   UNL     1       7.616   5.970  22.483  0.00  0.00    +0.277 C 
ENDBRANCH   6  28
BRANCH   5  30
ATOM     30  O   UNL     1      11.455   4.958  23.134  0.00  0.00    -0.503 OA
ATOM     31  H   UNL     1      11.578   4.898  22.172  0.00  0.00    +0.292 HD
ENDBRANCH   5  30
TORSDOF 7
ENDMDL
