MODEL 1
REMARK VINA RESULT:      -4.4      0.000      0.000
REMARK  Name = 
REMARK  2 active torsions:
REMARK  status: ('A' for Active; 'I' for Inactive)
REMARK    1  A    between atoms: O_1  and  C_2
REMARK    2  A    between atoms: C_2  and  C_3
REMARK                            x       y       z     vdW  Elec       q    Type
REMARK                         _______ _______ _______ _____ _____    ______ ____
ROOT
ATOM      1  C   UNL     1      11.738   5.136  23.246  0.00  0.00    -0.021 A 
ATOM      2  C   UNL     1      11.569   3.745  23.307  0.00  0.00    +0.020 A 
ATOM      3  C   UNL     1      10.370   3.202  23.776  0.00  0.00    +0.014 A 
ATOM      4  I   UNL     1      10.135   1.137  23.859  0.00  0.00    -0.044 I 
ATOM      5  C   UNL     1       9.330   4.034  24.191  0.00  0.00    +0.014 A 
ATOM      6  C   UNL     1       9.490   5.417  24.133  0.00  0.00    +0.001 A 
ATOM      7  C   UNL     1      10.685   5.965  23.664  0.00  0.00    +0.006 A 
ENDROOT
BRANCH   1   8
ATOM      8  C   UNL     1      13.034   5.733  22.771  0.00  0.00    +0.191 C 
BRANCH   8   9
ATOM      9  O   UNL     1      14.121   4.950  23.240  0.00  0.00    -0.390 OA
ATOM     10  H   UNL     1      13.740   4.236  23.776  0.00  0.00    +0.210 HD
ENDBRANCH   8   9
ENDBRANCH   1   8
TORSDOF 2
ENDMDL
MODEL 2
REMARK VINA RESULT:      -4.2      2.084      2.628
REMARK  Name = 
REMARK  2 active torsions:
REMARK  status: ('A' for Active; 'I' for Inactive)
REMARK    1  A    between atoms: O_1  and  C_2
REMARK    2  A    between atoms: C_2  and  C_3
REMARK                            x       y       z     vdW  Elec       q    Type
REMARK                         _______ _______ _______ _____ _____    ______ ____
ROOT
ATOM      1  C   UNL     1      11.803   5.084  23.172  0.00  0.00    -0.021 A 
ATOM      2  C   UNL     1      10.884   6.020  23.669  0.00  0.00    +0.020 A 
ATOM      3  C   UNL     1       9.663   5.594  24.198  0.00  0.00    +0.014 A 
ATOM      4  I   UNL     1       8.311   6.995  24.932  0.00  0.00    -0.044 I 
ATOM      5  C   UNL     1       9.342   4.237  24.236  0.00  0.00    +0.014 A 
ATOM      6  C   UNL     1      10.250   3.302  23.745  0.00  0.00    +0.001 A 
ATOM      7  C   UNL     1      11.472   3.721  23.216  0.00  0.00    +0.006 A 
ENDROOT
BRANCH   1   8
ATOM      8  C   UNL     1      13.108   5.532  22.573  0.00  0.00    +0.191 C 
BRANCH   8   9
ATOM      9  O   UNL     1      14.186   4.933  23.276  0.00  0.00    -0.390 OA
ATOM     10  H   UNL     1      14.556   4.252  22.691  0.00  0.00    +0.210 HD
ENDBRANCH   8   9
ENDBRANCH   1   8
TORSDOF 2
ENDMDL
MODEL 3
REMARK VINA RESULT:      -4.0      7.724      8.930
REMARK  Name = 
REMARK  2 active torsions:
REMARK  status: ('A' for Active; 'I' for Inactive)
REMARK    1  A    between atoms: O_1  and  C_2
REMARK    2  A    between atoms: C_2  and  C_3
REMARK                            x       y       z     vdW  Elec       q    Type
REMARK                         _______ _______ _______ _____ _____    ______ ____
ROOT
ATOM      1  C   UNL     1       8.923  -4.016  24.440  0.00  0.00    -0.021 A 
ATOM      2  C   UNL     1       9.444  -2.812  23.945  0.00  0.00    +0.020 A 
ATOM      3  C   UNL     1       8.861  -2.197  22.836  0.00  0.00    +0.014 A 
ATOM      4  I   UNL     1       9.645  -0.410  22.114  0.00  0.00    -0.044 I 
ATOM      5  C   UNL     1       7.756  -2.771  22.206  0.00  0.00    +0.014 A 
ATOM      6  C   UNL     1       7.233  -3.967  22.692  0.00  0.00    +0.001 A 
ATOM      7  C   UNL     1       7.812  -4.586  23.801  0.00  0.00    +0.006 A 
ENDROOT
BRANCH   1   8
ATOM      8  C   UNL     1       9.561  -4.704  25.616  0.00  0.00    +0.191 C 
BRANCH   8   9
ATOM      9  O   UNL     1       9.931  -6.026  25.254  0.00  0.00    -0.390 OA
ATOM     10  H   UNL     1       9.325  -6.302  24.548  0.00  0.00    +0.210 HD
ENDBRANCH   8   9
ENDBRANCH   1   8
TORSDOF 2
ENDMDL
MODEL 4
REMARK VINA RESULT:      -4.0      3.724      4.858
REMARK  Name = 
REMARK  2 active torsions:
REMARK  status: ('A' for Active; 'I' for Inactive)
REMARK    1  A    between atoms: O_1  and  C_2
REMARK    2  A    between atoms: C_2  and  C_3
REMARK                            x       y       z     vdW  Elec       q    Type
REMARK                         _______ _______ _______ _____ _____    ______ ____
ROOT
ATOM      1  C   UNL     1      10.178   0.999  23.204  0.00  0.00    -0.021 A 
ATOM      2  C   UNL     1       9.981  -0.178  23.941  0.00  0.00    +0.020 A 
ATOM      3  C   UNL     1       9.472  -1.320  23.318  0.00  0.00    +0.014 A 
ATOM      4  I   UNL     1       9.188  -3.059  24.425  0.00  0.00    -0.044 I 
ATOM      5  C   UNL     1       9.152  -1.304  21.961  0.00  0.00    +0.014 A 
ATOM      6  C   UNL     1       9.345  -0.139  21.222  0.00  0.00    +0.001 A 
ATOM      7  C   UNL     1       9.854   1.005  21.839  0.00  0.00    +0.006 A 
ENDROOT
BRANCH   1   8
ATOM      8  C   UNL     1      10.697   2.244  23.869  0.00  0.00    +0.191 C 
BRANCH   8   9
ATOM      9  O   UNL     1      10.786   3.293  22.916  0.00  0.00    -0.390 OA
ATOM     10  H   UNL     1      10.710   2.882  22.041  0.00  0.00    +0.210 HD
ENDBRANCH   8   9
ENDBRANCH   1   8
TORSDOF 2
ENDMDL
MODEL 5
REMARK VINA RESULT:      -4.0      8.426      9.567
REMARK  Name = 
REMARK  2 active torsions:
REMARK  status: ('A' for Active; 'I' for Inactive)
REMARK    1  A    between atoms: O_1  and  C_2
REMARK    2  A    between atoms: C_2  and  C_3
REMARK                            x       y       z     vdW  Elec       q    Type
REMARK                         _______ _______ _______ _____ _____    ______ ____
ROOT
ATOM      1  C   UNL     1       8.669  -4.182  25.049  0.00  0.00    -0.021 A 
ATOM      2  C   UNL     1       7.913  -4.978  24.176  0.00  0.00    +0.020 A 
ATOM      3  C   UNL     1       7.506  -4.474  22.939  0.00  0.00    +0.014 A 
ATOM      4  I   UNL     1       6.387  -5.668  21.655  0.00  0.00    -0.044 I 
ATOM      5  C   UNL     1       7.842  -3.175  22.558  0.00  0.00    +0.014 A 
ATOM      6  C   UNL     1       8.593  -2.378  23.420  0.00  0.00    +0.001 A 
ATOM      7  C   UNL     1       9.003  -2.877  24.657  0.00  0.00    +0.006 A 
ENDROOT
BRANCH   1   8
ATOM      8  C   UNL     1       9.089  -4.704  26.396  0.00  0.00    +0.191 C 
BRANCH   8   9
ATOM      9  O   UNL     1       8.304  -5.837  26.735  0.00  0.00    -0.390 OA
ATOM     10  H   UNL     1       8.849  -6.619  26.554  0.00  0.00    +0.210 HD
ENDBRANCH   8   9
ENDBRANCH   1   8
TORSDOF 2
ENDMDL
MODEL 6
REMARK VINA RESULT:      -4.0      3.946      5.027
REMARK  Name = 
REMARK  2 active torsions:
REMARK  status: ('A' for Active; 'I' for Inactive)
REMARK    1  A    between atoms: O_1  and  C_2
REMARK    2  A    between atoms: C_2  and  C_3
REMARK                            x       y       z     vdW  Elec       q    Type
REMARK                         _______ _______ _______ _____ _____    ______ ____
ROOT
ATOM      1  C   UNL     1       9.435   0.528  22.228  0.00  0.00    -0.021 A 
ATOM      2  C   UNL     1       8.546   1.596  22.033  0.00  0.00    +0.020 A 
ATOM      3  C   UNL     1       8.572   2.698  22.891  0.00  0.00    +0.014 A 
ATOM      4  I   UNL     1       7.248   4.273  22.588  0.00  0.00    -0.044 I 
ATOM      5  C   UNL     1       9.478   2.750  23.950  0.00  0.00    +0.014 A 
ATOM      6  C   UNL     1      10.365   1.694  24.150  0.00  0.00    +0.001 A 
ATOM      7  C   UNL     1      10.343   0.591  23.295  0.00  0.00    +0.006 A 
ENDROOT
BRANCH   1   8
ATOM      8  C   UNL     1       9.397  -0.677  21.329  0.00  0.00    +0.191 C 
BRANCH   8   9
ATOM      9  O   UNL     1      10.434  -1.576  21.692  0.00  0.00    -0.390 OA
ATOM     10  H   UNL     1      10.121  -2.467  21.471  0.00  0.00    +0.210 HD
ENDBRANCH   8   9
ENDBRANCH   1   8
TORSDOF 2
ENDMDL
MODEL 7
REMARK VINA RESULT:      -3.9      4.650      5.688
REMARK  Name = 
REMARK  2 active torsions:
REMARK  status: ('A' for Active; 'I' for Inactive)
REMARK    1  A    between atoms: O_1  and  C_2
REMARK    2  A    between atoms: C_2  and  C_3
REMARK                            x       y       z     vdW  Elec       q    Type
REMARK                         _______ _______ _______ _____ _____    ______ ____
ROOT
ATOM      1  C   UNL     1       9.205   0.252  22.464  0.00  0.00    -0.021 A 
ATOM      2  C   UNL     1       8.722   0.247  23.781  0.00  0.00    +0.020 A 
ATOM      3  C   UNL     1       8.967  -0.846  24.615  0.00  0.00    +0.014 A 
ATOM      4  I   UNL     1       8.245  -0.838  26.566  0.00  0.00    -0.044 I 
ATOM      5  C   UNL     1       9.691  -1.944  24.151  0.00  0.00    +0.014 A 
ATOM      6  C   UNL     1      10.175  -1.946  22.844  0.00  0.00    +0.001 A 
ATOM      7  C   UNL     1       9.934  -0.856  22.006  0.00  0.00    +0.006 A 
ENDROOT
BRANCH   1   8
ATOM      8  C   UNL     1       8.923   1.410  21.546  0.00  0.00    +0.191 C 
BRANCH   8   9
ATOM      9  O   UNL     1      10.041   2.283  21.520  0.00  0.00    -0.390 OA
ATOM     10  H   UNL     1       9.691   3.187  21.571  0.00  0.00    +0.210 HD
ENDBRANCH   8   9
ENDBRANCH   1   8
TORSDOF 2
ENDMDL
MODEL 8
REMARK VINA RESULT:      -3.9      7.221      8.455
REMARK  Name = 
REMARK  2 active torsions:
REMARK  status: ('A' for Active; 'I' for Inactive)
REMARK    1  A    between atoms: O_1  and  C_2
REMARK    2  A    between atoms: C_2  and  C_3
REMARK                            x       y       z     vdW  Elec       q    Type
REMARK                         _______ _______ _______ _____ _____    ______ ____
ROOT
ATOM      1  C   UNL     1       8.779  -2.501  23.003  0.00  0.00    -0.021 A 
ATOM      2  C   UNL     1       7.720  -3.311  22.566  0.00  0.00    +0.020 A 
ATOM      3  C   UNL     1       7.424  -4.501  23.235  0.00  0.00    +0.014 A 
ATOM      4  I   UNL     1       5.850  -5.691  22.577  0.00  0.00    -0.044 I 
ATOM      5  C   UNL     1       8.176  -4.899  24.341  0.00  0.00    +0.014 A 
ATOM      6  C   UNL     1       9.229  -4.098  24.780  0.00  0.00    +0.001 A 
ATOM      7  C   UNL     1       9.529  -2.908  24.116  0.00  0.00    +0.006 A 
ENDROOT
BRANCH   1   8
ATOM      8  C   UNL     1       9.126  -1.232  22.273  0.00  0.00    +0.191 C 
BRANCH   8   9
ATOM      9  O   UNL     1      10.222  -1.467  21.402  0.00  0.00    -0.390 OA
ATOM     10  H   UNL     1      10.045  -0.967  20.589  0.00  0.00    +0.210 HD
ENDBRANCH   8   9
ENDBRANCH   1   8
TORSDOF 2
ENDMDL
MODEL 9
REMARK VINA RESULT:      -3.9      4.678      5.906
REMARK  Name = 
REMARK  2 active torsions:
REMARK  status: ('A' for Active; 'I' for Inactive)
REMARK    1  A    between atoms: O_1  and  C_2
REMARK    2  A    between atoms: C_2  and  C_3
REMARK                            x       y       z     vdW  Elec       q    Type
REMARK                         _______ _______ _______ _____ _____    ______ ____
ROOT
ATOM      1  C   UNL     1       8.680   0.607  22.232  0.00  0.00    -0.021 A 
ATOM      2  C   UNL     1       7.639   0.093  23.019  0.00  0.00    +0.020 A 
ATOM      3  C   UNL     1       7.532  -1.283  23.231  0.00  0.00    +0.014 A 
ATOM      4  I   UNL     1       5.984  -2.030  24.403  0.00  0.00    -0.044 I 
ATOM      5  C   UNL     1       8.455  -2.162  22.663  0.00  0.00    +0.014 A 
ATOM      6  C   UNL     1       9.492  -1.659  21.880  0.00  0.00    +0.001 A 
ATOM      7  C   UNL     1       9.604  -0.284  21.665  0.00  0.00    +0.006 A 
ENDROOT
BRANCH   1   8
ATOM      8  C   UNL     1       8.789   2.084  21.971  0.00  0.00    +0.191 C 
BRANCH   8   9
ATOM      9  O   UNL     1      10.114   2.403  21.574  0.00  0.00    -0.390 OA
ATOM     10  H   UNL     1      10.667   1.642  21.811  0.00  0.00    +0.210 HD
ENDBRANCH   8   9
ENDBRANCH   1   8
TORSDOF 2
ENDMDL
