MODEL 1
REMARK VINA RESULT:      -6.0      0.000      0.000
REMARK  Name = 
REMARK  5 active torsions:
REMARK  status: ('A' for Active; 'I' for Inactive)
REMARK    1  A    between atoms: O_1  and  C_2
REMARK    2  A    between atoms: C_2  and  C_4
REMARK    3  A    between atoms: C_4  and  N_5
REMARK    4  A    between atoms: C_6  and  C_8
REMARK    5  A    between atoms: C_10  and  O_11
REMARK                            x       y       z     vdW  Elec       q    Type
REMARK                         _______ _______ _______ _____ _____    ______ ____
ROOT
ATOM      1  N   UNL     1      11.723   3.622  23.344  0.00  0.00    -0.301 N 
ATOM      2  H   UNL     1      12.506   2.985  23.267  0.00  0.00    +0.150 HD
ATOM      3  C   UNL     1      10.442   3.142  23.480  0.00  0.00    +0.245 C 
ATOM      4  O   UNL     1       9.488   3.904  23.596  0.00  0.00    -0.270 OA
ENDROOT
BRANCH   3   5
ATOM      5  C   UNL     1      10.253   1.674  23.399  0.00  0.00    +0.040 A 
ATOM      6  C   UNL     1      10.229   0.934  24.587  0.00  0.00    +0.013 A 
ATOM      7  C   UNL     1       9.989  -0.440  24.547  0.00  0.00    +0.004 A 
ATOM      8  C   UNL     1       9.760  -1.070  23.324  0.00  0.00    +0.045 A 
ATOM      9  C   UNL     1       9.773  -0.326  22.148  0.00  0.00    +0.118 A 
ATOM     10  C   UNL     1      10.022   1.044  22.169  0.00  0.00    +0.058 A 
BRANCH   9  11
ATOM     11  O   UNL     1       9.514  -0.983  20.981  0.00  0.00    -0.507 OA
ATOM     12  H   UNL     1       8.567  -0.914  20.775  0.00  0.00    +0.292 HD
ENDBRANCH   9  11
ENDBRANCH   3   5
BRANCH   1  13
ATOM     13  C   UNL     1      12.013   5.049  23.401  0.00  0.00    +0.225 C 
BRANCH  13  14
ATOM     14  C   UNL     1      13.290   5.407  22.652  0.00  0.00    +0.322 C 
ATOM     15  O   UNL     1      13.303   5.941  21.550  0.00  0.00    -0.249 OA
BRANCH  14  16
ATOM     16  O   UNL     1      14.427   5.019  23.282  0.00  0.00    -0.480 OA
ATOM     17  H   UNL     1      14.250   4.679  24.192  0.00  0.00    +0.295 HD
ENDBRANCH  14  16
ENDBRANCH  13  14
ENDBRANCH   1  13
TORSDOF 5
ENDMDL
MODEL 2
REMARK VINA RESULT:      -5.9      3.800      7.237
REMARK  Name = 
REMARK  5 active torsions:
REMARK  status: ('A' for Active; 'I' for Inactive)
REMARK    1  A    between atoms: O_1  and  C_2
REMARK    2  A    between atoms: C_2  and  C_4
REMARK    3  A    between atoms: C_4  and  N_5
REMARK    4  A    between atoms: C_6  and  C_8
REMARK    5  A    between atoms: C_10  and  O_11
REMARK                            x       y       z     vdW  Elec       q    Type
REMARK                         _______ _______ _______ _____ _____    ______ ____
ROOT
ATOM      1  N   UNL     1       8.982  -3.158  24.249  0.00  0.00    -0.301 N 
ATOM      2  H   UNL     1       9.489  -2.888  25.082  0.00  0.00    +0.150 HD
ATOM      3  C   UNL     1       8.866  -2.290  23.190  0.00  0.00    +0.245 C 
ATOM      4  O   UNL     1       8.274  -2.614  22.166  0.00  0.00    -0.270 OA
ENDROOT
BRANCH   3   5
ATOM      5  C   UNL     1       9.412  -0.923  23.367  0.00  0.00    +0.040 A 
ATOM      6  C   UNL     1      10.002  -0.590  24.593  0.00  0.00    +0.013 A 
ATOM      7  C   UNL     1      10.580   0.667  24.768  0.00  0.00    +0.004 A 
ATOM      8  C   UNL     1      10.582   1.584  23.717  0.00  0.00    +0.045 A 
ATOM      9  C   UNL     1      10.007   1.242  22.498  0.00  0.00    +0.118 A 
ATOM     10  C   UNL     1       9.415  -0.004  22.309  0.00  0.00    +0.058 A 
BRANCH   9  11
ATOM     11  O   UNL     1      10.061   2.161  21.492  0.00  0.00    -0.507 OA
ATOM     12  H   UNL     1      10.819   2.752  21.635  0.00  0.00    +0.292 HD
ENDBRANCH   9  11
ENDBRANCH   3   5
BRANCH   1  13
ATOM     13  C   UNL     1       8.472  -4.521  24.177  0.00  0.00    +0.225 C 
BRANCH  13  14
ATOM     14  C   UNL     1       8.934  -5.371  25.354  0.00  0.00    +0.322 C 
ATOM     15  O   UNL     1       8.196  -5.729  26.263  0.00  0.00    -0.249 OA
BRANCH  14  16
ATOM     16  O   UNL     1      10.262  -5.644  25.350  0.00  0.00    -0.480 OA
ATOM     17  H   UNL     1      10.803  -4.856  25.100  0.00  0.00    +0.295 HD
ENDBRANCH  14  16
ENDBRANCH  13  14
ENDBRANCH   1  13
TORSDOF 5
ENDMDL
MODEL 3
REMARK VINA RESULT:      -5.9      1.110      1.704
REMARK  Name = 
REMARK  5 active torsions:
REMARK  status: ('A' for Active; 'I' for Inactive)
REMARK    1  A    between atoms: O_1  and  C_2
REMARK    2  A    between atoms: C_2  and  C_4
REMARK    3  A    between atoms: C_4  and  N_5
REMARK    4  A    between atoms: C_6  and  C_8
REMARK    5  A    between atoms: C_10  and  O_11
REMARK                            x       y       z     vdW  Elec       q    Type
REMARK                         _______ _______ _______ _____ _____    ______ ____
ROOT
ATOM      1  N   UNL     1      11.513   3.751  23.056  0.00  0.00    -0.301 N 
ATOM      2  H   UNL     1      12.137   3.152  22.531  0.00  0.00    +0.150 HD
ATOM      3  C   UNL     1      10.329   3.263  23.554  0.00  0.00    +0.245 C 
ATOM      4  O   UNL     1       9.576   3.974  24.211  0.00  0.00    -0.270 OA
ENDROOT
BRANCH   3   5
ATOM      5  C   UNL     1       9.961   1.873  23.196  0.00  0.00    +0.040 A 
ATOM      6  C   UNL     1       9.715   1.569  21.851  0.00  0.00    +0.013 A 
ATOM      7  C   UNL     1       9.430   0.257  21.475  0.00  0.00    +0.004 A 
ATOM      8  C   UNL     1       9.404  -0.753  22.437  0.00  0.00    +0.045 A 
ATOM      9  C   UNL     1       9.663  -0.446  23.769  0.00  0.00    +0.118 A 
ATOM     10  C   UNL     1       9.938   0.860  24.164  0.00  0.00    +0.058 A 
BRANCH   9  11
ATOM     11  O   UNL     1       9.656  -1.473  24.667  0.00  0.00    -0.507 OA
ATOM     12  H   UNL     1      10.547  -1.585  25.037  0.00  0.00    +0.292 HD
ENDBRANCH   9  11
ENDBRANCH   3   5
BRANCH   1  13
ATOM     13  C   UNL     1      11.960   5.108  23.345  0.00  0.00    +0.225 C 
BRANCH  13  14
ATOM     14  C   UNL     1      13.279   5.437  22.657  0.00  0.00    +0.322 C 
ATOM     15  O   UNL     1      13.358   5.989  21.567  0.00  0.00    -0.249 OA
BRANCH  14  16
ATOM     16  O   UNL     1      14.375   5.000  23.327  0.00  0.00    -0.480 OA
ATOM     17  H   UNL     1      14.141   4.376  24.055  0.00  0.00    +0.295 HD
ENDBRANCH  14  16
ENDBRANCH  13  14
ENDBRANCH   1  13
TORSDOF 5
ENDMDL
MODEL 4
REMARK VINA RESULT:      -5.6      3.505      7.267
REMARK  Name = 
REMARK  5 active torsions:
REMARK  status: ('A' for Active; 'I' for Inactive)
REMARK    1  A    between atoms: O_1  and  C_2
REMARK    2  A    between atoms: C_2  and  C_4
REMARK    3  A    between atoms: C_4  and  N_5
REMARK    4  A    between atoms: C_6  and  C_8
REMARK    5  A    between atoms: C_10  and  O_11
REMARK                            x       y       z     vdW  Elec       q    Type
REMARK                         _______ _______ _______ _____ _____    ______ ____
ROOT
ATOM      1  N   UNL     1       7.985  -2.666  22.864  0.00  0.00    -0.301 N 
ATOM      2  H   UNL     1       7.360  -1.934  22.552  0.00  0.00    +0.150 HD
ATOM      3  C   UNL     1       9.192  -2.355  23.442  0.00  0.00    +0.245 C 
ATOM      4  O   UNL     1       9.948  -3.233  23.845  0.00  0.00    -0.270 OA
ENDROOT
BRANCH   3   5
ATOM      5  C   UNL     1       9.579  -0.925  23.482  0.00  0.00    +0.040 A 
ATOM      6  C   UNL     1      10.161  -0.420  24.652  0.00  0.00    +0.013 A 
ATOM      7  C   UNL     1      10.594   0.905  24.698  0.00  0.00    +0.004 A 
ATOM      8  C   UNL     1      10.458   1.721  23.574  0.00  0.00    +0.045 A 
ATOM      9  C   UNL     1       9.891   1.209  22.412  0.00  0.00    +0.118 A 
ATOM     10  C   UNL     1       9.444  -0.108  22.352  0.00  0.00    +0.058 A 
BRANCH   9  11
ATOM     11  O   UNL     1       9.809   2.037  21.331  0.00  0.00    -0.507 OA
ATOM     12  H   UNL     1       9.343   2.852  21.582  0.00  0.00    +0.292 HD
ENDBRANCH   9  11
ENDBRANCH   3   5
BRANCH   1  13
ATOM     13  C   UNL     1       7.517  -4.044  22.769  0.00  0.00    +0.225 C 
BRANCH  13  14
ATOM     14  C   UNL     1       6.366  -4.193  21.782  0.00  0.00    +0.322 C 
ATOM     15  O   UNL     1       5.439  -3.398  21.695  0.00  0.00    -0.249 OA
BRANCH  14  16
ATOM     16  O   UNL     1       6.415  -5.330  21.045  0.00  0.00    -0.480 OA
ATOM     17  H   UNL     1       5.544  -5.795  21.020  0.00  0.00    +0.295 HD
ENDBRANCH  14  16
ENDBRANCH  13  14
ENDBRANCH   1  13
TORSDOF 5
ENDMDL
MODEL 5
REMARK VINA RESULT:      -5.5      3.644      5.645
REMARK  Name = 
REMARK  5 active torsions:
REMARK  status: ('A' for Active; 'I' for Inactive)
REMARK    1  A    between atoms: O_1  and  C_2
REMARK    2  A    between atoms: C_2  and  C_4
REMARK    3  A    between atoms: C_4  and  N_5
REMARK    4  A    between atoms: C_6  and  C_8
REMARK    5  A    between atoms: C_10  and  O_11
REMARK                            x       y       z     vdW  Elec       q    Type
REMARK                         _______ _______ _______ _____ _____    ______ ____
ROOT
ATOM      1  N   UNL     1       9.430  -0.705  23.656  0.00  0.00    -0.301 N 
ATOM      2  H   UNL     1       8.561  -0.467  24.117  0.00  0.00    +0.150 HD
ATOM      3  C   UNL     1       9.742  -2.017  23.389  0.00  0.00    +0.245 C 
ATOM      4  O   UNL     1      10.782  -2.317  22.811  0.00  0.00    -0.270 OA
ENDROOT
BRANCH   3   5
ATOM      5  C   UNL     1       8.815  -3.055  23.899  0.00  0.00    +0.040 A 
ATOM      6  C   UNL     1       7.561  -3.191  23.291  0.00  0.00    +0.013 A 
ATOM      7  C   UNL     1       6.692  -4.201  23.707  0.00  0.00    +0.004 A 
ATOM      8  C   UNL     1       7.081  -5.081  24.717  0.00  0.00    +0.045 A 
ATOM      9  C   UNL     1       8.334  -4.948  25.307  0.00  0.00    +0.118 A 
ATOM     10  C   UNL     1       9.209  -3.939  24.912  0.00  0.00    +0.058 A 
BRANCH   9  11
ATOM     11  O   UNL     1       8.680  -5.851  26.268  0.00  0.00    -0.507 OA
ATOM     12  H   UNL     1       9.559  -5.632  26.618  0.00  0.00    +0.292 HD
ENDBRANCH   9  11
ENDBRANCH   3   5
BRANCH   1  13
ATOM     13  C   UNL     1      10.280   0.388  23.205  0.00  0.00    +0.225 C 
BRANCH  13  14
ATOM     14  C   UNL     1       9.801   0.982  21.886  0.00  0.00    +0.322 C 
ATOM     15  O   UNL     1       9.135   0.364  21.066  0.00  0.00    -0.249 OA
BRANCH  14  16
ATOM     16  O   UNL     1      10.236   2.247  21.660  0.00  0.00    -0.480 OA
ATOM     17  H   UNL     1      11.215   2.326  21.752  0.00  0.00    +0.295 HD
ENDBRANCH  14  16
ENDBRANCH  13  14
ENDBRANCH   1  13
TORSDOF 5
ENDMDL
MODEL 6
REMARK VINA RESULT:      -5.4      4.118      8.087
REMARK  Name = 
REMARK  5 active torsions:
REMARK  status: ('A' for Active; 'I' for Inactive)
REMARK    1  A    between atoms: O_1  and  C_2
REMARK    2  A    between atoms: C_2  and  C_4
REMARK    3  A    between atoms: C_4  and  N_5
REMARK    4  A    between atoms: C_6  and  C_8
REMARK    5  A    between atoms: C_10  and  O_11
REMARK                            x       y       z     vdW  Elec       q    Type
REMARK                         _______ _______ _______ _____ _____    ______ ____
ROOT
ATOM      1  N   UNL     1       7.780  -3.656  22.828  0.00  0.00    -0.301 N 
ATOM      2  H   UNL     1       7.282  -3.037  22.201  0.00  0.00    +0.150 HD
ATOM      3  C   UNL     1       8.875  -3.209  23.528  0.00  0.00    +0.245 C 
ATOM      4  O   UNL     1       9.474  -3.943  24.307  0.00  0.00    -0.270 OA
ENDROOT
BRANCH   3   5
ATOM      5  C   UNL     1       9.352  -1.835  23.241  0.00  0.00    +0.040 A 
ATOM      6  C   UNL     1       9.321  -1.376  21.918  0.00  0.00    +0.013 A 
ATOM      7  C   UNL     1       9.703  -0.066  21.627  0.00  0.00    +0.004 A 
ATOM      8  C   UNL     1      10.100   0.788  22.656  0.00  0.00    +0.045 A 
ATOM      9  C   UNL     1      10.115   0.330  23.969  0.00  0.00    +0.118 A 
ATOM     10  C   UNL     1       9.748  -0.978  24.277  0.00  0.00    +0.058 A 
BRANCH   9  11
ATOM     11  O   UNL     1      10.482   1.212  24.942  0.00  0.00    -0.507 OA
ATOM     12  H   UNL     1      10.341   0.808  25.815  0.00  0.00    +0.292 HD
ENDBRANCH   9  11
ENDBRANCH   3   5
BRANCH   1  13
ATOM     13  C   UNL     1       7.240  -4.994  23.031  0.00  0.00    +0.225 C 
BRANCH  13  14
ATOM     14  C   UNL     1       6.343  -5.432  21.880  0.00  0.00    +0.322 C 
ATOM     15  O   UNL     1       5.890  -4.664  21.042  0.00  0.00    -0.249 OA
BRANCH  14  16
ATOM     16  O   UNL     1       6.024  -6.751  21.900  0.00  0.00    -0.480 OA
ATOM     17  H   UNL     1       5.422  -6.977  22.649  0.00  0.00    +0.295 HD
ENDBRANCH  14  16
ENDBRANCH  13  14
ENDBRANCH   1  13
TORSDOF 5
ENDMDL
MODEL 7
REMARK VINA RESULT:      -5.4      4.991      7.338
REMARK  Name = 
REMARK  5 active torsions:
REMARK  status: ('A' for Active; 'I' for Inactive)
REMARK    1  A    between atoms: O_1  and  C_2
REMARK    2  A    between atoms: C_2  and  C_4
REMARK    3  A    between atoms: C_4  and  N_5
REMARK    4  A    between atoms: C_6  and  C_8
REMARK    5  A    between atoms: C_10  and  O_11
REMARK                            x       y       z     vdW  Elec       q    Type
REMARK                         _______ _______ _______ _____ _____    ______ ____
ROOT
ATOM      1  N   UNL     1       8.158  -3.492  24.014  0.00  0.00    -0.301 N 
ATOM      2  H   UNL     1       7.217  -3.125  23.960  0.00  0.00    +0.150 HD
ATOM      3  C   UNL     1       9.235  -2.708  23.673  0.00  0.00    +0.245 C 
ATOM      4  O   UNL     1      10.382  -3.134  23.756  0.00  0.00    -0.270 OA
ENDROOT
BRANCH   3   5
ATOM      5  C   UNL     1       8.950  -1.361  23.125  0.00  0.00    +0.040 A 
ATOM      6  C   UNL     1       9.938  -0.722  22.366  0.00  0.00    +0.013 A 
ATOM      7  C   UNL     1       9.676   0.518  21.784  0.00  0.00    +0.004 A 
ATOM      8  C   UNL     1       8.425   1.113  21.948  0.00  0.00    +0.045 A 
ATOM      9  C   UNL     1       7.443   0.466  22.691  0.00  0.00    +0.118 A 
ATOM     10  C   UNL     1       7.691  -0.766  23.289  0.00  0.00    +0.058 A 
BRANCH   9  11
ATOM     11  O   UNL     1       6.227   1.074  22.796  0.00  0.00    -0.507 OA
ATOM     12  H   UNL     1       6.041   1.569  21.981  0.00  0.00    +0.292 HD
ENDBRANCH   9  11
ENDBRANCH   3   5
BRANCH   1  13
ATOM     13  C   UNL     1       8.333  -4.834  24.554  0.00  0.00    +0.225 C 
BRANCH  13  14
ATOM     14  C   UNL     1       9.054  -4.823  25.896  0.00  0.00    +0.322 C 
ATOM     15  O   UNL     1       8.607  -4.289  26.903  0.00  0.00    -0.249 OA
BRANCH  14  16
ATOM     16  O   UNL     1      10.280  -5.403  25.869  0.00  0.00    -0.480 OA
ATOM     17  H   UNL     1      10.309  -6.184  25.266  0.00  0.00    +0.295 HD
ENDBRANCH  14  16
ENDBRANCH  13  14
ENDBRANCH   1  13
TORSDOF 5
ENDMDL
MODEL 8
REMARK VINA RESULT:      -5.3      4.573      7.967
REMARK  Name = 
REMARK  5 active torsions:
REMARK  status: ('A' for Active; 'I' for Inactive)
REMARK    1  A    between atoms: O_1  and  C_2
REMARK    2  A    between atoms: C_2  and  C_4
REMARK    3  A    between atoms: C_4  and  N_5
REMARK    4  A    between atoms: C_6  and  C_8
REMARK    5  A    between atoms: C_10  and  O_11
REMARK                            x       y       z     vdW  Elec       q    Type
REMARK                         _______ _______ _______ _____ _____    ______ ____
ROOT
ATOM      1  N   UNL     1       7.978  -3.435  25.205  0.00  0.00    -0.301 N 
ATOM      2  H   UNL     1       8.259  -2.747  25.892  0.00  0.00    +0.150 HD
ATOM      3  C   UNL     1       8.319  -3.283  23.882  0.00  0.00    +0.245 C 
ATOM      4  O   UNL     1       8.003  -4.121  23.045  0.00  0.00    -0.270 OA
ENDROOT
BRANCH   3   5
ATOM      5  C   UNL     1       9.010  -2.029  23.498  0.00  0.00    +0.040 A 
ATOM      6  C   UNL     1       9.039  -1.667  22.145  0.00  0.00    +0.013 A 
ATOM      7  C   UNL     1       9.626  -0.461  21.760  0.00  0.00    +0.004 A 
ATOM      8  C   UNL     1      10.169   0.387  22.724  0.00  0.00    +0.045 A 
ATOM      9  C   UNL     1      10.124   0.028  24.067  0.00  0.00    +0.118 A 
ATOM     10  C   UNL     1       9.553  -1.177  24.468  0.00  0.00    +0.058 A 
BRANCH   9  11
ATOM     11  O   UNL     1      10.642   0.906  24.974  0.00  0.00    -0.507 OA
ATOM     12  H   UNL     1      10.336   0.667  25.865  0.00  0.00    +0.292 HD
ENDBRANCH   9  11
ENDBRANCH   3   5
BRANCH   1  13
ATOM     13  C   UNL     1       7.290  -4.628  25.682  0.00  0.00    +0.225 C 
BRANCH  13  14
ATOM     14  C   UNL     1       7.954  -5.216  26.921  0.00  0.00    +0.322 C 
ATOM     15  O   UNL     1       7.354  -5.863  27.770  0.00  0.00    -0.249 OA
BRANCH  14  16
ATOM     16  O   UNL     1       9.268  -4.903  27.045  0.00  0.00    -0.480 OA
ATOM     17  H   UNL     1       9.852  -5.683  26.888  0.00  0.00    +0.295 HD
ENDBRANCH  14  16
ENDBRANCH  13  14
ENDBRANCH   1  13
TORSDOF 5
ENDMDL
MODEL 9
REMARK VINA RESULT:      -5.3      3.770      6.969
REMARK  Name = 
REMARK  5 active torsions:
REMARK  status: ('A' for Active; 'I' for Inactive)
REMARK    1  A    between atoms: O_1  and  C_2
REMARK    2  A    between atoms: C_2  and  C_4
REMARK    3  A    between atoms: C_4  and  N_5
REMARK    4  A    between atoms: C_6  and  C_8
REMARK    5  A    between atoms: C_10  and  O_11
REMARK                            x       y       z     vdW  Elec       q    Type
REMARK                         _______ _______ _______ _____ _____    ______ ____
ROOT
ATOM      1  N   UNL     1       8.907  -2.425  24.953  0.00  0.00    -0.301 N 
ATOM      2  H   UNL     1       8.888  -2.770  24.002  0.00  0.00    +0.150 HD
ATOM      3  C   UNL     1       9.138  -1.094  25.209  0.00  0.00    +0.245 C 
ATOM      4  O   UNL     1       9.142  -0.660  26.356  0.00  0.00    -0.270 OA
ENDROOT
BRANCH   3   5
ATOM      5  C   UNL     1       9.462  -0.225  24.053  0.00  0.00    +0.040 A 
ATOM      6  C   UNL     1       9.379  -0.765  22.763  0.00  0.00    +0.013 A 
ATOM      7  C   UNL     1       9.617   0.046  21.653  0.00  0.00    +0.004 A 
ATOM      8  C   UNL     1       9.922   1.395  21.829  0.00  0.00    +0.045 A 
ATOM      9  C   UNL     1       9.989   1.928  23.112  0.00  0.00    +0.118 A 
ATOM     10  C   UNL     1       9.767   1.131  24.232  0.00  0.00    +0.058 A 
BRANCH   9  11
ATOM     11  O   UNL     1      10.262   3.259  23.231  0.00  0.00    -0.507 OA
ATOM     12  H   UNL     1       9.432   3.749  23.355  0.00  0.00    +0.292 HD
ENDBRANCH   9  11
ENDBRANCH   3   5
BRANCH   1  13
ATOM     13  C   UNL     1       8.588  -3.363  26.022  0.00  0.00    +0.225 C 
BRANCH  13  14
ATOM     14  C   UNL     1       9.204  -4.736  25.784  0.00  0.00    +0.322 C 
ATOM     15  O   UNL     1      10.127  -4.940  25.006  0.00  0.00    -0.249 OA
BRANCH  14  16
ATOM     16  O   UNL     1       8.594  -5.739  26.463  0.00  0.00    -0.480 OA
ATOM     17  H   UNL     1       8.848  -5.752  27.416  0.00  0.00    +0.295 HD
ENDBRANCH  14  16
ENDBRANCH  13  14
ENDBRANCH   1  13
TORSDOF 5
ENDMDL
