MODEL 1
REMARK VINA RESULT:      -7.9      0.000      0.000
REMARK  Name = 
REMARK  12 active torsions:
REMARK  status: ('A' for Active; 'I' for Inactive)
REMARK    1  A    between atoms: N_1  and  C_2
REMARK    2  A    between atoms: C_2  and  C_4
REMARK    3  A    between atoms: C_2  and  C_12
REMARK    4  A    between atoms: C_4  and  C_5
REMARK    5  A    between atoms: C_8  and  O_9
REMARK    6  A    between atoms: N_14  and  S_15
REMARK    7  A    between atoms: S_15  and  O_18
REMARK    8  A    between atoms: O_18  and  C_19
REMARK    9  A    between atoms: C_19  and  C_20
REMARK   10  A    between atoms: C_23  and  N_31
REMARK   11  A    between atoms: C_25  and  O_27
REMARK   12  A    between atoms: C_28  and  O_30
REMARK                            x       y       z     vdW  Elec       q    Type
REMARK                         _______ _______ _______ _____ _____    ______ ____
ROOT
ATOM      1  C   UNL     1       7.321  -4.451  27.091  0.00  0.00    +0.229 C 
ENDROOT
BRANCH   1   2
ATOM      2  C   UNL     1       8.679  -4.250  26.404  0.00  0.00    +0.180 C 
ATOM      3  C   UNL     1       9.002  -5.291  25.341  0.00  0.00    +0.178 C 
ATOM      4  C   UNL     1       8.693  -4.620  24.004  0.00  0.00    +0.195 C 
ATOM      5  C   UNL     1       8.299  -3.182  24.374  0.00  0.00    +0.253 C 
ATOM      6  O   UNL     1       8.754  -2.975  25.733  0.00  0.00    -0.346 OA
BRANCH   5   7
ATOM      7  N   UNL     1       8.848  -2.136  23.524  0.00  0.00    -0.286 N 
ATOM      8  C   UNL     1       8.250  -0.945  23.199  0.00  0.00    +0.167 A 
ATOM      9  N   UNL     1       6.984  -0.561  23.440  0.00  0.00    -0.216 NA
ATOM     10  C   UNL     1       6.764   0.687  22.971  0.00  0.00    +0.225 A 
ATOM     11  N   UNL     1       7.635   1.527  22.372  0.00  0.00    -0.219 NA
ATOM     12  C   UNL     1       8.908   1.109  22.191  0.00  0.00    +0.147 A 
ATOM     13  N   UNL     1       9.815   1.995  21.628  0.00  0.00    -0.341 N 
ATOM     14  H   UNL     1      10.640   1.558  21.236  0.00  0.00    +0.144 HD
ATOM     15  H   UNL     1       9.374   2.747  21.117  0.00  0.00    +0.144 HD
ATOM     16  C   UNL     1       9.245  -0.198  22.584  0.00  0.00    +0.147 A 
ATOM     17  N   UNL     1      10.416  -0.922  22.492  0.00  0.00    -0.231 NA
ATOM     18  C   UNL     1      10.145  -2.071  23.076  0.00  0.00    +0.203 A 
ENDBRANCH   5   7
BRANCH   3  19
ATOM     19  O   UNL     1      10.408  -5.594  25.410  0.00  0.00    -0.386 OA
ATOM     20  H   UNL     1      10.742  -5.717  24.502  0.00  0.00    +0.210 HD
ENDBRANCH   3  19
BRANCH   4  21
ATOM     21  O   UNL     1       7.632  -5.305  23.335  0.00  0.00    -0.385 OA
ATOM     22  H   UNL     1       8.049  -5.844  22.634  0.00  0.00    +0.210 HD
ENDBRANCH   4  21
ENDBRANCH   1   2
BRANCH   1  23
ATOM     23  O   UNL     1       7.254  -5.670  27.811  0.00  0.00    -0.220 OA
BRANCH  23  24
ATOM     24  S   UNL     1       5.791  -6.298  28.143  0.00  0.00    +0.169 S 
ATOM     25  O   UNL     1       5.970  -7.507  28.913  0.00  0.00    -0.126 OA
ATOM     26  O   UNL     1       4.951  -5.226  28.633  0.00  0.00    -0.126 OA
BRANCH  24  28
ATOM     27  C   UNL     1       3.787  -7.062  26.527  0.00  0.00    +0.251 C 
ATOM     28  N   UNL     1       5.137  -6.732  26.688  0.00  0.00    -0.164 N 
ATOM     29  H   UNL     1       5.797  -6.871  25.928  0.00  0.00    +0.179 HD
ATOM     30  O   UNL     1       3.028  -7.105  27.482  0.00  0.00    -0.272 OA
BRANCH  27  31
ATOM     31  C   UNL     1       3.391  -7.478  25.096  0.00  0.00    +0.144 C 
BRANCH  31  32
ATOM     32  N   UNL     1       2.688  -8.789  25.161  0.00  0.00    -0.320 NA
ATOM     33  H   UNL     1       2.660  -9.194  24.221  0.00  0.00    +0.119 HD
ATOM     34  H   UNL     1       3.252  -9.441  25.709  0.00  0.00    +0.119 HD
ENDBRANCH  31  32
BRANCH  31  35
ATOM     35  C   UNL     1       2.523  -6.390  24.423  0.00  0.00    +0.063 C 
BRANCH  35  36
ATOM     36  C   UNL     1       3.097  -4.997  24.578  0.00  0.00    -0.045 A 
ATOM     37  C   UNL     1       2.606  -4.146  25.582  0.00  0.00    +0.007 A 
ATOM     38  C   UNL     1       3.218  -2.919  25.838  0.00  0.00    +0.045 A 
ATOM     39  C   UNL     1       4.317  -2.535  25.085  0.00  0.00    +0.117 A 
ATOM     40  C   UNL     1       4.789  -3.336  24.051  0.00  0.00    +0.045 A 
ATOM     41  C   UNL     1       4.173  -4.565  23.792  0.00  0.00    +0.007 A 
BRANCH  39  42
ATOM     42  O   UNL     1       4.924  -1.355  25.402  0.00  0.00    -0.507 OA
ATOM     43  H   UNL     1       5.846  -1.537  25.646  0.00  0.00    +0.292 HD
ENDBRANCH  39  42
ENDBRANCH  35  36
ENDBRANCH  31  35
ENDBRANCH  27  31
ENDBRANCH  24  28
ENDBRANCH  23  24
ENDBRANCH   1  23
TORSDOF 12
ENDMDL
MODEL 2
REMARK VINA RESULT:      -7.9      3.586      8.910
REMARK  Name = 
REMARK  12 active torsions:
REMARK  status: ('A' for Active; 'I' for Inactive)
REMARK    1  A    between atoms: N_1  and  C_2
REMARK    2  A    between atoms: C_2  and  C_4
REMARK    3  A    between atoms: C_2  and  C_12
REMARK    4  A    between atoms: C_4  and  C_5
REMARK    5  A    between atoms: C_8  and  O_9
REMARK    6  A    between atoms: N_14  and  S_15
REMARK    7  A    between atoms: S_15  and  O_18
REMARK    8  A    between atoms: O_18  and  C_19
REMARK    9  A    between atoms: C_19  and  C_20
REMARK   10  A    between atoms: C_23  and  N_31
REMARK   11  A    between atoms: C_25  and  O_27
REMARK   12  A    between atoms: C_28  and  O_30
REMARK                            x       y       z     vdW  Elec       q    Type
REMARK                         _______ _______ _______ _____ _____    ______ ____
ROOT
ATOM      1  C   UNL     1       6.755  -2.375  22.295  0.00  0.00    +0.229 C 
ENDROOT
BRANCH   1   2
ATOM      2  C   UNL     1       6.204  -3.802  22.167  0.00  0.00    +0.180 C 
ATOM      3  C   UNL     1       7.275  -4.877  22.047  0.00  0.00    +0.178 C 
ATOM      4  C   UNL     1       7.394  -5.493  23.440  0.00  0.00    +0.195 C 
ATOM      5  C   UNL     1       6.303  -4.796  24.267  0.00  0.00    +0.253 C 
ATOM      6  O   UNL     1       5.410  -4.172  23.313  0.00  0.00    -0.346 OA
BRANCH   5   7
ATOM      7  N   UNL     1       5.531  -5.656  25.150  0.00  0.00    -0.286 N 
ATOM      8  C   UNL     1       5.847  -6.001  26.440  0.00  0.00    +0.167 A 
ATOM      9  N   UNL     1       6.997  -5.775  27.100  0.00  0.00    -0.216 NA
ATOM     10  C   UNL     1       6.930  -6.262  28.359  0.00  0.00    +0.225 A 
ATOM     11  N   UNL     1       5.892  -6.867  28.974  0.00  0.00    -0.219 NA
ATOM     12  C   UNL     1       4.743  -7.033  28.281  0.00  0.00    +0.147 A 
ATOM     13  N   UNL     1       3.660  -7.602  28.932  0.00  0.00    -0.341 N 
ATOM     14  H   UNL     1       2.951  -7.982  28.317  0.00  0.00    +0.144 HD
ATOM     15  H   UNL     1       3.919  -8.126  29.757  0.00  0.00    +0.144 HD
ATOM     16  C   UNL     1       4.708  -6.620  26.936  0.00  0.00    +0.147 A 
ATOM     17  N   UNL     1       3.729  -6.694  25.968  0.00  0.00    -0.231 NA
ATOM     18  C   UNL     1       4.251  -6.095  24.918  0.00  0.00    +0.203 A 
ENDBRANCH   5   7
BRANCH   3  19
ATOM     19  O   UNL     1       6.816  -5.879  21.120  0.00  0.00    -0.386 OA
ATOM     20  H   UNL     1       7.404  -6.653  21.186  0.00  0.00    +0.210 HD
ENDBRANCH   3  19
BRANCH   4  21
ATOM     21  O   UNL     1       8.697  -5.261  23.978  0.00  0.00    -0.385 OA
ATOM     22  H   UNL     1       9.103  -4.560  23.429  0.00  0.00    +0.210 HD
ENDBRANCH   4  21
ENDBRANCH   1   2
BRANCH   1  23
ATOM     23  O   UNL     1       8.151  -2.309  22.056  0.00  0.00    -0.220 OA
BRANCH  23  24
ATOM     24  S   UNL     1       9.097  -1.587  23.164  0.00  0.00    +0.169 S 
ATOM     25  O   UNL     1       8.839  -2.185  24.454  0.00  0.00    -0.126 OA
ATOM     26  O   UNL     1      10.440  -1.533  22.630  0.00  0.00    -0.126 OA
BRANCH  24  28
ATOM     27  C   UNL     1       8.646   0.857  22.148  0.00  0.00    +0.251 C 
ATOM     28  N   UNL     1       8.596  -0.013  23.241  0.00  0.00    -0.164 N 
ATOM     29  H   UNL     1       8.361   0.333  24.168  0.00  0.00    +0.179 HD
ATOM     30  O   UNL     1       9.128   0.507  21.082  0.00  0.00    -0.272 OA
BRANCH  27  31
ATOM     31  C   UNL     1       8.168   2.292  22.444  0.00  0.00    +0.144 C 
BRANCH  31  32
ATOM     32  N   UNL     1       6.683   2.325  22.352  0.00  0.00    -0.320 NA
ATOM     33  H   UNL     1       6.417   2.787  21.478  0.00  0.00    +0.119 HD
ATOM     34  H   UNL     1       6.335   1.369  22.258  0.00  0.00    +0.119 HD
ENDBRANCH  31  32
BRANCH  31  35
ATOM     35  C   UNL     1       8.672   2.771  23.825  0.00  0.00    +0.063 C 
BRANCH  35  36
ATOM     36  C   UNL     1       9.783   3.796  23.726  0.00  0.00    -0.045 A 
ATOM     37  C   UNL     1       9.562   5.111  24.167  0.00  0.00    +0.007 A 
ATOM     38  C   UNL     1      10.611   6.029  24.223  0.00  0.00    +0.045 A 
ATOM     39  C   UNL     1      11.882   5.636  23.831  0.00  0.00    +0.117 A 
ATOM     40  C   UNL     1      12.115   4.357  23.341  0.00  0.00    +0.045 A 
ATOM     41  C   UNL     1      11.062   3.437  23.282  0.00  0.00    +0.007 A 
BRANCH  39  42
ATOM     42  O   UNL     1      12.893   6.544  23.954  0.00  0.00    -0.507 OA
ATOM     43  H   UNL     1      12.802   7.205  23.248  0.00  0.00    +0.292 HD
ENDBRANCH  39  42
ENDBRANCH  35  36
ENDBRANCH  31  35
ENDBRANCH  27  31
ENDBRANCH  24  28
ENDBRANCH  23  24
ENDBRANCH   1  23
TORSDOF 12
ENDMDL
MODEL 3
REMARK VINA RESULT:      -7.9      3.079      6.598
REMARK  Name = 
REMARK  12 active torsions:
REMARK  status: ('A' for Active; 'I' for Inactive)
REMARK    1  A    between atoms: N_1  and  C_2
REMARK    2  A    between atoms: C_2  and  C_4
REMARK    3  A    between atoms: C_2  and  C_12
REMARK    4  A    between atoms: C_4  and  C_5
REMARK    5  A    between atoms: C_8  and  O_9
REMARK    6  A    between atoms: N_14  and  S_15
REMARK    7  A    between atoms: S_15  and  O_18
REMARK    8  A    between atoms: O_18  and  C_19
REMARK    9  A    between atoms: C_19  and  C_20
REMARK   10  A    between atoms: C_23  and  N_31
REMARK   11  A    between atoms: C_25  and  O_27
REMARK   12  A    between atoms: C_28  and  O_30
REMARK                            x       y       z     vdW  Elec       q    Type
REMARK                         _______ _______ _______ _____ _____    ______ ____
ROOT
ATOM      1  C   UNL     1       4.296  -6.268  23.650  0.00  0.00    +0.229 C 
ENDROOT
BRANCH   1   2
ATOM      2  C   UNL     1       4.083  -6.046  25.154  0.00  0.00    +0.180 C 
ATOM      3  C   UNL     1       5.222  -6.550  26.028  0.00  0.00    +0.178 C 
ATOM      4  C   UNL     1       6.043  -5.312  26.384  0.00  0.00    +0.195 C 
ATOM      5  C   UNL     1       5.264  -4.140  25.768  0.00  0.00    +0.253 C 
ATOM      6  O   UNL     1       3.940  -4.646  25.472  0.00  0.00    -0.346 OA
BRANCH   5   7
ATOM      7  N   UNL     1       5.145  -2.952  26.600  0.00  0.00    -0.286 N 
ATOM      8  C   UNL     1       6.119  -2.014  26.834  0.00  0.00    +0.167 A 
ATOM      9  N   UNL     1       7.421  -2.072  26.503  0.00  0.00    -0.216 NA
ATOM     10  C   UNL     1       8.067  -0.953  26.901  0.00  0.00    +0.225 A 
ATOM     11  N   UNL     1       7.561   0.139  27.510  0.00  0.00    -0.219 NA
ATOM     12  C   UNL     1       6.237   0.166  27.784  0.00  0.00    +0.147 A 
ATOM     13  N   UNL     1       5.709   1.313  28.357  0.00  0.00    -0.341 N 
ATOM     14  H   UNL     1       4.815   1.180  28.816  0.00  0.00    +0.144 HD
ATOM     15  H   UNL     1       6.404   1.892  28.807  0.00  0.00    +0.144 HD
ATOM     16  C   UNL     1       5.466  -0.968  27.471  0.00  0.00    +0.147 A 
ATOM     17  N   UNL     1       4.134  -1.267  27.664  0.00  0.00    -0.231 NA
ATOM     18  C   UNL     1       3.975  -2.455  27.118  0.00  0.00    +0.203 A 
ENDBRANCH   5   7
BRANCH   3  19
ATOM     19  O   UNL     1       4.662  -7.113  27.229  0.00  0.00    -0.386 OA
ATOM     20  H   UNL     1       5.331  -7.059  27.937  0.00  0.00    +0.210 HD
ENDBRANCH   3  19
BRANCH   4  21
ATOM     21  O   UNL     1       7.362  -5.415  25.842  0.00  0.00    -0.385 OA
ATOM     22  H   UNL     1       7.265  -5.381  24.869  0.00  0.00    +0.210 HD
ENDBRANCH   4  21
ENDBRANCH   1   2
BRANCH   1  23
ATOM     23  O   UNL     1       5.668  -6.317  23.299  0.00  0.00    -0.220 OA
BRANCH  23  24
ATOM     24  S   UNL     1       6.261  -5.166  22.314  0.00  0.00    +0.169 S 
ATOM     25  O   UNL     1       6.867  -5.804  21.169  0.00  0.00    -0.126 OA
ATOM     26  O   UNL     1       5.236  -4.159  22.144  0.00  0.00    -0.126 OA
BRANCH  24  28
ATOM     27  C   UNL     1       7.965  -3.153  22.822  0.00  0.00    +0.251 C 
ATOM     28  N   UNL     1       7.469  -4.417  23.159  0.00  0.00    -0.164 N 
ATOM     29  H   UNL     1       7.928  -4.979  23.870  0.00  0.00    +0.179 HD
ATOM     30  O   UNL     1       7.563  -2.559  21.834  0.00  0.00    -0.272 OA
BRANCH  27  31
ATOM     31  C   UNL     1       9.119  -2.654  23.713  0.00  0.00    +0.144 C 
BRANCH  31  32
ATOM     32  N   UNL     1       9.664  -3.812  24.474  0.00  0.00    -0.320 NA
ATOM     33  H   UNL     1      10.256  -3.459  25.232  0.00  0.00    +0.119 HD
ATOM     34  H   UNL     1       8.895  -4.291  24.946  0.00  0.00    +0.119 HD
ENDBRANCH  31  32
BRANCH  31  35
ATOM     35  C   UNL     1      10.208  -1.954  22.870  0.00  0.00    +0.063 C 
BRANCH  35  36
ATOM     36  C   UNL     1      10.138  -0.443  22.951  0.00  0.00    -0.045 A 
ATOM     37  C   UNL     1      10.545   0.214  24.124  0.00  0.00    +0.007 A 
ATOM     38  C   UNL     1      10.629   1.606  24.169  0.00  0.00    +0.045 A 
ATOM     39  C   UNL     1      10.298   2.345  23.043  0.00  0.00    +0.117 A 
ATOM     40  C   UNL     1       9.841   1.721  21.888  0.00  0.00    +0.045 A 
ATOM     41  C   UNL     1       9.754   0.326  21.845  0.00  0.00    +0.007 A 
BRANCH  39  42
ATOM     42  O   UNL     1      10.447   3.700  23.107  0.00  0.00    -0.507 OA
ATOM     43  H   UNL     1       9.879   4.040  23.818  0.00  0.00    +0.292 HD
ENDBRANCH  39  42
ENDBRANCH  35  36
ENDBRANCH  31  35
ENDBRANCH  27  31
ENDBRANCH  24  28
ENDBRANCH  23  24
ENDBRANCH   1  23
TORSDOF 12
ENDMDL
MODEL 4
REMARK VINA RESULT:      -7.9      3.411      8.471
REMARK  Name = 
REMARK  12 active torsions:
REMARK  status: ('A' for Active; 'I' for Inactive)
REMARK    1  A    between atoms: N_1  and  C_2
REMARK    2  A    between atoms: C_2  and  C_4
REMARK    3  A    between atoms: C_2  and  C_12
REMARK    4  A    between atoms: C_4  and  C_5
REMARK    5  A    between atoms: C_8  and  O_9
REMARK    6  A    between atoms: N_14  and  S_15
REMARK    7  A    between atoms: S_15  and  O_18
REMARK    8  A    between atoms: O_18  and  C_19
REMARK    9  A    between atoms: C_19  and  C_20
REMARK   10  A    between atoms: C_23  and  N_31
REMARK   11  A    between atoms: C_25  and  O_27
REMARK   12  A    between atoms: C_28  and  O_30
REMARK                            x       y       z     vdW  Elec       q    Type
REMARK                         _______ _______ _______ _____ _____    ______ ____
ROOT
ATOM      1  C   UNL     1       6.793  -2.429  22.222  0.00  0.00    +0.229 C 
ENDROOT
BRANCH   1   2
ATOM      2  C   UNL     1       5.940  -3.698  22.091  0.00  0.00    +0.180 C 
ATOM      3  C   UNL     1       6.710  -4.923  21.616  0.00  0.00    +0.178 C 
ATOM      4  C   UNL     1       6.992  -5.742  22.874  0.00  0.00    +0.195 C 
ATOM      5  C   UNL     1       6.274  -4.982  24.000  0.00  0.00    +0.253 C 
ATOM      6  O   UNL     1       5.349  -4.077  23.351  0.00  0.00    -0.346 OA
BRANCH   5   7
ATOM      7  N   UNL     1       5.546  -5.805  24.954  0.00  0.00    -0.286 N 
ATOM      8  C   UNL     1       5.881  -6.031  26.265  0.00  0.00    +0.167 A 
ATOM      9  N   UNL     1       7.021  -5.700  26.898  0.00  0.00    -0.216 NA
ATOM     10  C   UNL     1       6.980  -6.088  28.192  0.00  0.00    +0.225 A 
ATOM     11  N   UNL     1       5.973  -6.689  28.860  0.00  0.00    -0.219 NA
ATOM     12  C   UNL     1       4.832  -6.963  28.189  0.00  0.00    +0.147 A 
ATOM     13  N   UNL     1       3.778  -7.528  28.891  0.00  0.00    -0.341 N 
ATOM     14  H   UNL     1       3.085  -7.988  28.312  0.00  0.00    +0.144 HD
ATOM     15  H   UNL     1       4.063  -7.972  29.753  0.00  0.00    +0.144 HD
ATOM     16  C   UNL     1       4.773  -6.660  26.816  0.00  0.00    +0.147 A 
ATOM     17  N   UNL     1       3.796  -6.856  25.864  0.00  0.00    -0.231 NA
ATOM     18  C   UNL     1       4.287  -6.319  24.766  0.00  0.00    +0.203 A 
ENDBRANCH   5   7
BRANCH   3  19
ATOM     19  O   UNL     1       5.863  -5.681  20.732  0.00  0.00    -0.386 OA
ATOM     20  H   UNL     1       6.039  -6.629  20.874  0.00  0.00    +0.210 HD
ENDBRANCH   3  19
BRANCH   4  21
ATOM     21  O   UNL     1       8.399  -5.831  23.107  0.00  0.00    -0.385 OA
ATOM     22  H   UNL     1       8.810  -6.046  22.245  0.00  0.00    +0.210 HD
ENDBRANCH   4  21
ENDBRANCH   1   2
BRANCH   1  23
ATOM     23  O   UNL     1       8.178  -2.688  22.066  0.00  0.00    -0.220 OA
BRANCH  23  24
ATOM     24  S   UNL     1       9.213  -2.069  23.157  0.00  0.00    +0.169 S 
ATOM     25  O   UNL     1       9.194  -2.901  24.337  0.00  0.00    -0.126 OA
ATOM     26  O   UNL     1      10.456  -1.782  22.474  0.00  0.00    -0.126 OA
BRANCH  24  28
ATOM     27  C   UNL     1       9.235   0.261  24.493  0.00  0.00    +0.251 C 
ATOM     28  N   UNL     1       8.602  -0.593  23.585  0.00  0.00    -0.164 N 
ATOM     29  H   UNL     1       7.666  -0.385  23.246  0.00  0.00    +0.179 HD
ATOM     30  O   UNL     1      10.258  -0.076  25.070  0.00  0.00    -0.272 OA
BRANCH  27  31
ATOM     31  C   UNL     1       8.477   1.571  24.784  0.00  0.00    +0.144 C 
BRANCH  31  32
ATOM     32  N   UNL     1       8.020   1.549  26.201  0.00  0.00    -0.320 NA
ATOM     33  H   UNL     1       8.828   1.373  26.804  0.00  0.00    +0.119 HD
ATOM     34  H   UNL     1       7.700   2.484  26.460  0.00  0.00    +0.119 HD
ENDBRANCH  31  32
BRANCH  31  35
ATOM     35  C   UNL     1       9.362   2.802  24.482  0.00  0.00    +0.063 C 
BRANCH  35  36
ATOM     36  C   UNL     1       8.629   3.882  23.713  0.00  0.00    -0.045 A 
ATOM     37  C   UNL     1       9.093   5.207  23.756  0.00  0.00    +0.007 A 
ATOM     38  C   UNL     1       8.525   6.187  22.941  0.00  0.00    +0.045 A 
ATOM     39  C   UNL     1       7.487   5.846  22.087  0.00  0.00    +0.117 A 
ATOM     40  C   UNL     1       6.975   4.553  22.066  0.00  0.00    +0.045 A 
ATOM     41  C   UNL     1       7.542   3.572  22.885  0.00  0.00    +0.007 A 
BRANCH  39  42
ATOM     42  O   UNL     1       6.995   6.817  21.265  0.00  0.00    -0.507 OA
ATOM     43  H   UNL     1       7.742   7.268  20.838  0.00  0.00    +0.292 HD
ENDBRANCH  39  42
ENDBRANCH  35  36
ENDBRANCH  31  35
ENDBRANCH  27  31
ENDBRANCH  24  28
ENDBRANCH  23  24
ENDBRANCH   1  23
TORSDOF 12
ENDMDL
MODEL 5
REMARK VINA RESULT:      -7.8      3.483      8.836
REMARK  Name = 
REMARK  12 active torsions:
REMARK  status: ('A' for Active; 'I' for Inactive)
REMARK    1  A    between atoms: N_1  and  C_2
REMARK    2  A    between atoms: C_2  and  C_4
REMARK    3  A    between atoms: C_2  and  C_12
REMARK    4  A    between atoms: C_4  and  C_5
REMARK    5  A    between atoms: C_8  and  O_9
REMARK    6  A    between atoms: N_14  and  S_15
REMARK    7  A    between atoms: S_15  and  O_18
REMARK    8  A    between atoms: O_18  and  C_19
REMARK    9  A    between atoms: C_19  and  C_20
REMARK   10  A    between atoms: C_23  and  N_31
REMARK   11  A    between atoms: C_25  and  O_27
REMARK   12  A    between atoms: C_28  and  O_30
REMARK                            x       y       z     vdW  Elec       q    Type
REMARK                         _______ _______ _______ _____ _____    ______ ____
ROOT
ATOM      1  C   UNL     1       6.925  -1.519  23.111  0.00  0.00    +0.229 C 
ENDROOT
BRANCH   1   2
ATOM      2  C   UNL     1       5.987  -2.619  22.592  0.00  0.00    +0.180 C 
ATOM      3  C   UNL     1       6.692  -3.741  21.843  0.00  0.00    +0.178 C 
ATOM      4  C   UNL     1       6.808  -4.890  22.843  0.00  0.00    +0.195 C 
ATOM      5  C   UNL     1       6.067  -4.392  24.094  0.00  0.00    +0.253 C 
ATOM      6  O   UNL     1       5.271  -3.260  23.667  0.00  0.00    -0.346 OA
BRANCH   5   7
ATOM      7  N   UNL     1       5.204  -5.364  24.746  0.00  0.00    -0.286 N 
ATOM      8  C   UNL     1       4.085  -5.955  24.214  0.00  0.00    +0.167 A 
ATOM      9  N   UNL     1       3.450  -5.645  23.070  0.00  0.00    -0.216 NA
ATOM     10  C   UNL     1       2.384  -6.454  22.879  0.00  0.00    +0.225 A 
ATOM     11  N   UNL     1       1.959  -7.481  23.645  0.00  0.00    -0.219 NA
ATOM     12  C   UNL     1       2.658  -7.779  24.764  0.00  0.00    +0.147 A 
ATOM     13  N   UNL     1       2.253  -8.870  25.518  0.00  0.00    -0.341 N 
ATOM     14  H   UNL     1       2.592  -8.870  26.473  0.00  0.00    +0.144 HD
ATOM     15  H   UNL     1       1.297  -9.146  25.342  0.00  0.00    +0.144 HD
ATOM     16  C   UNL     1       3.756  -6.968  25.103  0.00  0.00    +0.147 A 
ATOM     17  N   UNL     1       4.621  -6.979  26.177  0.00  0.00    -0.231 NA
ATOM     18  C   UNL     1       5.481  -6.015  25.923  0.00  0.00    +0.203 A 
ENDBRANCH   5   7
BRANCH   3  19
ATOM     19  O   UNL     1       5.859  -4.149  20.742  0.00  0.00    -0.386 OA
ATOM     20  H   UNL     1       6.295  -3.885  19.911  0.00  0.00    +0.210 HD
ENDBRANCH   3  19
BRANCH   4  21
ATOM     21  O   UNL     1       8.181  -5.174  23.119  0.00  0.00    -0.385 OA
ATOM     22  H   UNL     1       8.700  -4.445  22.723  0.00  0.00    +0.210 HD
ENDBRANCH   4  21
ENDBRANCH   1   2
BRANCH   1  23
ATOM     23  O   UNL     1       8.139  -1.457  22.383  0.00  0.00    -0.220 OA
BRANCH  23  24
ATOM     24  S   UNL     1       9.540  -1.642  23.189  0.00  0.00    +0.169 S 
ATOM     25  O   UNL     1       9.314  -2.520  24.313  0.00  0.00    -0.126 OA
ATOM     26  O   UNL     1      10.573  -1.934  22.219  0.00  0.00    -0.126 OA
BRANCH  24  28
ATOM     27  C   UNL     1       9.989   0.999  23.005  0.00  0.00    +0.251 C 
ATOM     28  N   UNL     1       9.922  -0.153  23.796  0.00  0.00    -0.164 N 
ATOM     29  H   UNL     1      10.232  -0.134  24.764  0.00  0.00    +0.179 HD
ATOM     30  O   UNL     1       9.825   0.946  21.796  0.00  0.00    -0.272 OA
BRANCH  27  31
ATOM     31  C   UNL     1      10.402   2.277  23.760  0.00  0.00    +0.144 C 
BRANCH  31  32
ATOM     32  N   UNL     1      10.991   3.235  22.784  0.00  0.00    -0.320 NA
ATOM     33  H   UNL     1      12.006   3.257  22.917  0.00  0.00    +0.119 HD
ATOM     34  H   UNL     1      10.859   2.869  21.840  0.00  0.00    +0.119 HD
ENDBRANCH  31  32
BRANCH  31  35
ATOM     35  C   UNL     1       9.199   2.888  24.514  0.00  0.00    +0.063 C 
BRANCH  35  36
ATOM     36  C   UNL     1       8.489   3.965  23.719  0.00  0.00    -0.045 A 
ATOM     37  C   UNL     1       8.907   5.302  23.824  0.00  0.00    +0.007 A 
ATOM     38  C   UNL     1       8.368   6.284  22.993  0.00  0.00    +0.045 A 
ATOM     39  C   UNL     1       7.403   5.933  22.061  0.00  0.00    +0.117 A 
ATOM     40  C   UNL     1       6.934   4.628  21.975  0.00  0.00    +0.045 A 
ATOM     41  C   UNL     1       7.473   3.643  22.810  0.00  0.00    +0.007 A 
BRANCH  39  42
ATOM     42  O   UNL     1       6.940   6.910  21.228  0.00  0.00    -0.507 OA
ATOM     43  H   UNL     1       6.041   7.151  21.504  0.00  0.00    +0.292 HD
ENDBRANCH  39  42
ENDBRANCH  35  36
ENDBRANCH  31  35
ENDBRANCH  27  31
ENDBRANCH  24  28
ENDBRANCH  23  24
ENDBRANCH   1  23
TORSDOF 12
ENDMDL
MODEL 6
REMARK VINA RESULT:      -7.7      3.063      8.160
REMARK  Name = 
REMARK  12 active torsions:
REMARK  status: ('A' for Active; 'I' for Inactive)
REMARK    1  A    between atoms: N_1  and  C_2
REMARK    2  A    between atoms: C_2  and  C_4
REMARK    3  A    between atoms: C_2  and  C_12
REMARK    4  A    between atoms: C_4  and  C_5
REMARK    5  A    between atoms: C_8  and  O_9
REMARK    6  A    between atoms: N_14  and  S_15
REMARK    7  A    between atoms: S_15  and  O_18
REMARK    8  A    between atoms: O_18  and  C_19
REMARK    9  A    between atoms: C_19  and  C_20
REMARK   10  A    between atoms: C_23  and  N_31
REMARK   11  A    between atoms: C_25  and  O_27
REMARK   12  A    between atoms: C_28  and  O_30
REMARK                            x       y       z     vdW  Elec       q    Type
REMARK                         _______ _______ _______ _____ _____    ______ ____
ROOT
ATOM      1  C   UNL     1       6.834  -2.178  22.568  0.00  0.00    +0.229 C 
ENDROOT
BRANCH   1   2
ATOM      2  C   UNL     1       5.954  -3.420  22.362  0.00  0.00    +0.180 C 
ATOM      3  C   UNL     1       6.702  -4.636  21.835  0.00  0.00    +0.178 C 
ATOM      4  C   UNL     1       6.949  -5.525  23.052  0.00  0.00    +0.195 C 
ATOM      5  C   UNL     1       6.233  -4.806  24.207  0.00  0.00    +0.253 C 
ATOM      6  O   UNL     1       5.338  -3.848  23.594  0.00  0.00    -0.346 OA
BRANCH   5   7
ATOM      7  N   UNL     1       5.474  -5.659  25.109  0.00  0.00    -0.286 N 
ATOM      8  C   UNL     1       5.814  -6.004  26.393  0.00  0.00    +0.167 A 
ATOM      9  N   UNL     1       6.980  -5.785  27.027  0.00  0.00    -0.216 NA
ATOM     10  C   UNL     1       6.936  -6.270  28.289  0.00  0.00    +0.225 A 
ATOM     11  N   UNL     1       5.906  -6.865  28.927  0.00  0.00    -0.219 NA
ATOM     12  C   UNL     1       4.742  -7.023  28.259  0.00  0.00    +0.147 A 
ATOM     13  N   UNL     1       3.668  -7.582  28.935  0.00  0.00    -0.341 N 
ATOM     14  H   UNL     1       2.943  -7.957  28.335  0.00  0.00    +0.144 HD
ATOM     15  H   UNL     1       3.941  -8.106  29.755  0.00  0.00    +0.144 HD
ATOM     16  C   UNL     1       4.681  -6.612  26.914  0.00  0.00    +0.147 A 
ATOM     17  N   UNL     1       3.681  -6.680  25.968  0.00  0.00    -0.231 NA
ATOM     18  C   UNL     1       4.185  -6.088  24.905  0.00  0.00    +0.203 A 
ENDBRANCH   5   7
BRANCH   3  19
ATOM     19  O   UNL     1       5.851  -5.328  20.903  0.00  0.00    -0.386 OA
ATOM     20  H   UNL     1       6.109  -6.268  20.888  0.00  0.00    +0.210 HD
ENDBRANCH   3  19
BRANCH   4  21
ATOM     21  O   UNL     1       8.350  -5.657  23.298  0.00  0.00    -0.385 OA
ATOM     22  H   UNL     1       8.441  -6.246  24.074  0.00  0.00    +0.210 HD
ENDBRANCH   4  21
ENDBRANCH   1   2
BRANCH   1  23
ATOM     23  O   UNL     1       8.202  -2.435  22.304  0.00  0.00    -0.220 OA
BRANCH  23  24
ATOM     24  S   UNL     1       9.317  -1.837  23.326  0.00  0.00    +0.169 S 
ATOM     25  O   UNL     1       8.768  -1.839  24.662  0.00  0.00    -0.126 OA
ATOM     26  O   UNL     1      10.574  -2.495  23.043  0.00  0.00    -0.126 OA
BRANCH  24  28
ATOM     27  C   UNL     1      10.287   0.645  23.653  0.00  0.00    +0.251 C 
ATOM     28  N   UNL     1       9.544  -0.259  22.888  0.00  0.00    -0.164 N 
ATOM     29  H   UNL     1       9.005   0.062  22.088  0.00  0.00    +0.179 HD
ATOM     30  O   UNL     1      10.762   0.322  24.731  0.00  0.00    -0.272 OA
BRANCH  27  31
ATOM     31  C   UNL     1      10.341   2.078  23.087  0.00  0.00    +0.144 C 
BRANCH  31  32
ATOM     32  N   UNL     1       9.952   2.034  21.650  0.00  0.00    -0.320 NA
ATOM     33  H   UNL     1       9.211   1.337  21.531  0.00  0.00    +0.119 HD
ATOM     34  H   UNL     1       9.516   2.923  21.397  0.00  0.00    +0.119 HD
ENDBRANCH  31  32
BRANCH  31  35
ATOM     35  C   UNL     1       9.436   3.030  23.901  0.00  0.00    +0.063 C 
BRANCH  35  36
ATOM     36  C   UNL     1       7.964   2.861  23.584  0.00  0.00    -0.045 A 
ATOM     37  C   UNL     1       7.199   1.924  24.298  0.00  0.00    +0.007 A 
ATOM     38  C   UNL     1       5.816   1.855  24.128  0.00  0.00    +0.045 A 
ATOM     39  C   UNL     1       5.196   2.718  23.237  0.00  0.00    +0.117 A 
ATOM     40  C   UNL     1       5.937   3.618  22.480  0.00  0.00    +0.045 A 
ATOM     41  C   UNL     1       7.324   3.684  22.649  0.00  0.00    +0.007 A 
BRANCH  39  42
ATOM     42  O   UNL     1       3.836   2.661  23.139  0.00  0.00    -0.507 OA
ATOM     43  H   UNL     1       3.585   1.771  22.842  0.00  0.00    +0.292 HD
ENDBRANCH  39  42
ENDBRANCH  35  36
ENDBRANCH  31  35
ENDBRANCH  27  31
ENDBRANCH  24  28
ENDBRANCH  23  24
ENDBRANCH   1  23
TORSDOF 12
ENDMDL
MODEL 7
REMARK VINA RESULT:      -7.7      1.531      1.984
REMARK  Name = 
REMARK  12 active torsions:
REMARK  status: ('A' for Active; 'I' for Inactive)
REMARK    1  A    between atoms: N_1  and  C_2
REMARK    2  A    between atoms: C_2  and  C_4
REMARK    3  A    between atoms: C_2  and  C_12
REMARK    4  A    between atoms: C_4  and  C_5
REMARK    5  A    between atoms: C_8  and  O_9
REMARK    6  A    between atoms: N_14  and  S_15
REMARK    7  A    between atoms: S_15  and  O_18
REMARK    8  A    between atoms: O_18  and  C_19
REMARK    9  A    between atoms: C_19  and  C_20
REMARK   10  A    between atoms: C_23  and  N_31
REMARK   11  A    between atoms: C_25  and  O_27
REMARK   12  A    between atoms: C_28  and  O_30
REMARK                            x       y       z     vdW  Elec       q    Type
REMARK                         _______ _______ _______ _____ _____    ______ ____
ROOT
ATOM      1  C   UNL     1       6.509  -4.787  26.801  0.00  0.00    +0.229 C 
ENDROOT
BRANCH   1   2
ATOM      2  C   UNL     1       7.924  -4.206  26.930  0.00  0.00    +0.180 C 
ATOM      3  C   UNL     1       8.961  -4.884  26.045  0.00  0.00    +0.178 C 
ATOM      4  C   UNL     1       9.140  -3.958  24.843  0.00  0.00    +0.195 C 
ATOM      5  C   UNL     1       8.258  -2.740  25.158  0.00  0.00    +0.253 C 
ATOM      6  O   UNL     1       7.963  -2.809  26.574  0.00  0.00    -0.346 OA
BRANCH   5   7
ATOM      7  N   UNL     1       8.842  -1.441  24.856  0.00  0.00    -0.286 N 
ATOM      8  C   UNL     1       9.113  -0.934  23.610  0.00  0.00    +0.167 A 
ATOM      9  N   UNL     1       9.070  -1.574  22.428  0.00  0.00    -0.216 NA
ATOM     10  C   UNL     1       9.402  -0.738  21.419  0.00  0.00    +0.225 A 
ATOM     11  N   UNL     1       9.707   0.575  21.479  0.00  0.00    -0.219 NA
ATOM     12  C   UNL     1       9.696   1.182  22.687  0.00  0.00    +0.147 A 
ATOM     13  N   UNL     1       9.953   2.544  22.740  0.00  0.00    -0.341 N 
ATOM     14  H   UNL     1      10.235   2.883  23.651  0.00  0.00    +0.144 HD
ATOM     15  H   UNL     1      10.434   2.892  21.922  0.00  0.00    +0.144 HD
ATOM     16  C   UNL     1       9.422   0.402  23.825  0.00  0.00    +0.147 A 
ATOM     17  N   UNL     1       9.385   0.704  25.170  0.00  0.00    -0.231 NA
ATOM     18  C   UNL     1       9.021  -0.419  25.755  0.00  0.00    +0.203 A 
ENDBRANCH   5   7
BRANCH   3  19
ATOM     19  O   UNL     1      10.201  -4.966  26.773  0.00  0.00    -0.386 OA
ATOM     20  H   UNL     1      10.566  -5.863  26.662  0.00  0.00    +0.210 HD
ENDBRANCH   3  19
BRANCH   4  21
ATOM     21  O   UNL     1       8.729  -4.614  23.642  0.00  0.00    -0.385 OA
ATOM     22  H   UNL     1       8.999  -5.550  23.732  0.00  0.00    +0.210 HD
ENDBRANCH   4  21
ENDBRANCH   1   2
BRANCH   1  23
ATOM     23  O   UNL     1       5.897  -5.008  28.060  0.00  0.00    -0.220 OA
BRANCH  23  24
ATOM     24  S   UNL     1       5.379  -6.507  28.421  0.00  0.00    +0.169 S 
ATOM     25  O   UNL     1       6.494  -7.271  28.932  0.00  0.00    -0.126 OA
ATOM     26  O   UNL     1       4.157  -6.380  29.185  0.00  0.00    -0.126 OA
BRANCH  24  28
ATOM     27  C   UNL     1       3.788  -6.799  26.278  0.00  0.00    +0.251 C 
ATOM     28  N   UNL     1       4.926  -7.194  26.987  0.00  0.00    -0.164 N 
ATOM     29  H   UNL     1       5.454  -8.015  26.702  0.00  0.00    +0.179 HD
ATOM     30  O   UNL     1       3.027  -5.953  26.723  0.00  0.00    -0.272 OA
BRANCH  27  31
ATOM     31  C   UNL     1       3.524  -7.595  24.985  0.00  0.00    +0.144 C 
BRANCH  31  32
ATOM     32  N   UNL     1       2.668  -8.767  25.317  0.00  0.00    -0.320 NA
ATOM     33  H   UNL     1       2.458  -9.276  24.454  0.00  0.00    +0.119 HD
ATOM     34  H   UNL     1       3.210  -9.424  25.882  0.00  0.00    +0.119 HD
ENDBRANCH  31  32
BRANCH  31  35
ATOM     35  C   UNL     1       2.880  -6.698  23.903  0.00  0.00    +0.063 C 
BRANCH  35  36
ATOM     36  C   UNL     1       3.870  -5.757  23.250  0.00  0.00    -0.045 A 
ATOM     37  C   UNL     1       3.884  -4.398  23.607  0.00  0.00    +0.007 A 
ATOM     38  C   UNL     1       4.880  -3.546  23.130  0.00  0.00    +0.045 A 
ATOM     39  C   UNL     1       5.861  -4.049  22.288  0.00  0.00    +0.117 A 
ATOM     40  C   UNL     1       5.838  -5.377  21.878  0.00  0.00    +0.045 A 
ATOM     41  C   UNL     1       4.837  -6.230  22.354  0.00  0.00    +0.007 A 
BRANCH  39  42
ATOM     42  O   UNL     1       6.851  -3.199  21.888  0.00  0.00    -0.507 OA
ATOM     43  H   UNL     1       7.238  -2.784  22.676  0.00  0.00    +0.292 HD
ENDBRANCH  39  42
ENDBRANCH  35  36
ENDBRANCH  31  35
ENDBRANCH  27  31
ENDBRANCH  24  28
ENDBRANCH  23  24
ENDBRANCH   1  23
TORSDOF 12
ENDMDL
MODEL 8
REMARK VINA RESULT:      -7.5      3.057      6.224
REMARK  Name = 
REMARK  12 active torsions:
REMARK  status: ('A' for Active; 'I' for Inactive)
REMARK    1  A    between atoms: N_1  and  C_2
REMARK    2  A    between atoms: C_2  and  C_4
REMARK    3  A    between atoms: C_2  and  C_12
REMARK    4  A    between atoms: C_4  and  C_5
REMARK    5  A    between atoms: C_8  and  O_9
REMARK    6  A    between atoms: N_14  and  S_15
REMARK    7  A    between atoms: S_15  and  O_18
REMARK    8  A    between atoms: O_18  and  C_19
REMARK    9  A    between atoms: C_19  and  C_20
REMARK   10  A    between atoms: C_23  and  N_31
REMARK   11  A    between atoms: C_25  and  O_27
REMARK   12  A    between atoms: C_28  and  O_30
REMARK                            x       y       z     vdW  Elec       q    Type
REMARK                         _______ _______ _______ _____ _____    ______ ____
ROOT
ATOM      1  C   UNL     1       5.531  -6.350  24.225  0.00  0.00    +0.229 C 
ENDROOT
BRANCH   1   2
ATOM      2  C   UNL     1       5.120  -5.407  25.364  0.00  0.00    +0.180 C 
ATOM      3  C   UNL     1       5.544  -5.876  26.749  0.00  0.00    +0.178 C 
ATOM      4  C   UNL     1       6.795  -5.069  27.090  0.00  0.00    +0.195 C 
ATOM      5  C   UNL     1       6.965  -4.100  25.909  0.00  0.00    +0.253 C 
ATOM      6  O   UNL     1       5.699  -4.095  25.206  0.00  0.00    -0.346 OA
BRANCH   5   7
ATOM      7  N   UNL     1       7.322  -2.734  26.258  0.00  0.00    -0.286 N 
ATOM      8  C   UNL     1       6.489  -1.777  26.781  0.00  0.00    +0.167 A 
ATOM      9  N   UNL     1       5.152  -1.828  26.918  0.00  0.00    -0.216 NA
ATOM     10  C   UNL     1       4.684  -0.690  27.479  0.00  0.00    +0.225 A 
ATOM     11  N   UNL     1       5.379   0.382  27.914  0.00  0.00    -0.219 NA
ATOM     12  C   UNL     1       6.726   0.366  27.792  0.00  0.00    +0.147 A 
ATOM     13  N   UNL     1       7.442   1.443  28.292  0.00  0.00    -0.341 N 
ATOM     14  H   UNL     1       8.378   1.536  27.916  0.00  0.00    +0.144 HD
ATOM     15  H   UNL     1       6.881   2.275  28.412  0.00  0.00    +0.144 HD
ATOM     16  C   UNL     1       7.328  -0.741  27.167  0.00  0.00    +0.147 A 
ATOM     17  N   UNL     1       8.639  -1.030  26.854  0.00  0.00    -0.231 NA
ATOM     18  C   UNL     1       8.599  -2.235  26.324  0.00  0.00    +0.203 A 
ENDBRANCH   5   7
BRANCH   3  19
ATOM     19  O   UNL     1       4.497  -5.551  27.682  0.00  0.00    -0.386 OA
ATOM     20  H   UNL     1       4.621  -6.088  28.486  0.00  0.00    +0.210 HD
ENDBRANCH   3  19
BRANCH   4  21
ATOM     21  O   UNL     1       7.924  -5.934  27.231  0.00  0.00    -0.385 OA
ATOM     22  H   UNL     1       7.569  -6.844  27.292  0.00  0.00    +0.210 HD
ENDBRANCH   4  21
ENDBRANCH   1   2
BRANCH   1  23
ATOM     23  O   UNL     1       5.429  -5.738  22.951  0.00  0.00    -0.220 OA
BRANCH  23  24
ATOM     24  S   UNL     1       6.780  -5.561  22.062  0.00  0.00    +0.169 S 
ATOM     25  O   UNL     1       7.804  -6.426  22.600  0.00  0.00    -0.126 OA
ATOM     26  O   UNL     1       6.404  -5.638  20.667  0.00  0.00    -0.126 OA
BRANCH  24  28
ATOM     27  C   UNL     1       6.435  -2.899  22.136  0.00  0.00    +0.251 C 
ATOM     28  N   UNL     1       7.280  -4.002  22.293  0.00  0.00    -0.164 N 
ATOM     29  H   UNL     1       8.278  -3.872  22.435  0.00  0.00    +0.179 HD
ATOM     30  O   UNL     1       5.282  -3.034  21.755  0.00  0.00    -0.272 OA
BRANCH  27  31
ATOM     31  C   UNL     1       7.111  -1.532  22.359  0.00  0.00    +0.144 C 
BRANCH  31  32
ATOM     32  N   UNL     1       6.412  -0.834  23.473  0.00  0.00    -0.320 NA
ATOM     33  H   UNL     1       5.499  -0.514  23.139  0.00  0.00    +0.119 HD
ATOM     34  H   UNL     1       6.199  -1.512  24.207  0.00  0.00    +0.119 HD
ENDBRANCH  31  32
BRANCH  31  35
ATOM     35  C   UNL     1       8.621  -1.700  22.640  0.00  0.00    +0.063 C 
BRANCH  35  36
ATOM     36  C   UNL     1       9.358  -0.378  22.718  0.00  0.00    -0.045 A 
ATOM     37  C   UNL     1       9.238   0.552  21.672  0.00  0.00    +0.007 A 
ATOM     38  C   UNL     1       9.785   1.830  21.789  0.00  0.00    +0.045 A 
ATOM     39  C   UNL     1      10.461   2.178  22.949  0.00  0.00    +0.117 A 
ATOM     40  C   UNL     1      10.640   1.258  23.975  0.00  0.00    +0.045 A 
ATOM     41  C   UNL     1      10.094  -0.025  23.856  0.00  0.00    +0.007 A 
BRANCH  39  42
ATOM     42  O   UNL     1      10.933   3.454  23.050  0.00  0.00    -0.507 OA
ATOM     43  H   UNL     1      11.479   3.519  23.851  0.00  0.00    +0.292 HD
ENDBRANCH  39  42
ENDBRANCH  35  36
ENDBRANCH  31  35
ENDBRANCH  27  31
ENDBRANCH  24  28
ENDBRANCH  23  24
ENDBRANCH   1  23
TORSDOF 12
ENDMDL
MODEL 9
REMARK VINA RESULT:      -7.5      3.445      7.391
REMARK  Name = 
REMARK  12 active torsions:
REMARK  status: ('A' for Active; 'I' for Inactive)
REMARK    1  A    between atoms: N_1  and  C_2
REMARK    2  A    between atoms: C_2  and  C_4
REMARK    3  A    between atoms: C_2  and  C_12
REMARK    4  A    between atoms: C_4  and  C_5
REMARK    5  A    between atoms: C_8  and  O_9
REMARK    6  A    between atoms: N_14  and  S_15
REMARK    7  A    between atoms: S_15  and  O_18
REMARK    8  A    between atoms: O_18  and  C_19
REMARK    9  A    between atoms: C_19  and  C_20
REMARK   10  A    between atoms: C_23  and  N_31
REMARK   11  A    between atoms: C_25  and  O_27
REMARK   12  A    between atoms: C_28  and  O_30
REMARK                            x       y       z     vdW  Elec       q    Type
REMARK                         _______ _______ _______ _____ _____    ______ ____
ROOT
ATOM      1  C   UNL     1       7.112   2.080  25.460  0.00  0.00    +0.229 C 
ENDROOT
BRANCH   1   2
ATOM      2  C   UNL     1       7.648   0.768  26.051  0.00  0.00    +0.180 C 
ATOM      3  C   UNL     1       7.412   0.614  27.547  0.00  0.00    +0.178 C 
ATOM      4  C   UNL     1       6.201  -0.308  27.676  0.00  0.00    +0.195 C 
ATOM      5  C   UNL     1       5.867  -0.714  26.233  0.00  0.00    +0.253 C 
ATOM      6  O   UNL     1       7.033  -0.384  25.440  0.00  0.00    -0.346 OA
BRANCH   5   7
ATOM      7  N   UNL     1       5.534  -2.116  26.030  0.00  0.00    -0.286 N 
ATOM      8  C   UNL     1       6.349  -3.194  26.266  0.00  0.00    +0.167 A 
ATOM      9  N   UNL     1       7.662  -3.191  26.558  0.00  0.00    -0.216 NA
ATOM     10  C   UNL     1       8.119  -4.453  26.725  0.00  0.00    +0.225 A 
ATOM     11  N   UNL     1       7.429  -5.612  26.670  0.00  0.00    -0.219 NA
ATOM     12  C   UNL     1       6.102  -5.558  26.415  0.00  0.00    +0.147 A 
ATOM     13  N   UNL     1       5.385  -6.745  26.417  0.00  0.00    -0.341 N 
ATOM     14  H   UNL     1       4.497  -6.700  25.932  0.00  0.00    +0.144 HD
ATOM     15  H   UNL     1       5.966  -7.563  26.293  0.00  0.00    +0.144 HD
ATOM     16  C   UNL     1       5.520  -4.302  26.163  0.00  0.00    +0.147 A 
ATOM     17  N   UNL     1       4.236  -3.924  25.831  0.00  0.00    -0.231 NA
ATOM     18  C   UNL     1       4.279  -2.609  25.774  0.00  0.00    +0.203 A 
ENDBRANCH   5   7
BRANCH   3  19
ATOM     19  O   UNL     1       8.563  -0.026  28.128  0.00  0.00    -0.386 OA
ATOM     20  H   UNL     1       9.364   0.332  27.703  0.00  0.00    +0.210 HD
ENDBRANCH   3  19
BRANCH   4  21
ATOM     21  O   UNL     1       5.114   0.380  28.298  0.00  0.00    -0.385 OA
ATOM     22  H   UNL     1       5.342   0.459  29.246  0.00  0.00    +0.210 HD
ENDBRANCH   4  21
ENDBRANCH   1   2
BRANCH   1  23
ATOM     23  O   UNL     1       7.792   2.459  24.276  0.00  0.00    -0.220 OA
BRANCH  23  24
ATOM     24  S   UNL     1       7.086   2.155  22.842  0.00  0.00    +0.169 S 
ATOM     25  O   UNL     1       5.652   2.200  23.014  0.00  0.00    -0.126 OA
ATOM     26  O   UNL     1       7.738   2.978  21.847  0.00  0.00    -0.126 OA
BRANCH  24  28
ATOM     27  C   UNL     1       8.798   0.115  22.503  0.00  0.00    +0.251 C 
ATOM     28  N   UNL     1       7.487   0.600  22.452  0.00  0.00    -0.164 N 
ATOM     29  H   UNL     1       6.743   0.037  22.048  0.00  0.00    +0.179 HD
ATOM     30  O   UNL     1       9.734   0.848  22.785  0.00  0.00    -0.272 OA
BRANCH  27  31
ATOM     31  C   UNL     1       8.960  -1.353  22.061  0.00  0.00    +0.144 C 
BRANCH  31  32
ATOM     32  N   UNL     1      10.350  -1.546  21.562  0.00  0.00    -0.320 NA
ATOM     33  H   UNL     1      10.965  -0.877  22.034  0.00  0.00    +0.119 HD
ATOM     34  H   UNL     1      10.685  -2.464  21.861  0.00  0.00    +0.119 HD
ENDBRANCH  31  32
BRANCH  31  35
ATOM     35  C   UNL     1       8.623  -2.321  23.217  0.00  0.00    +0.063 C 
BRANCH  35  36
ATOM     36  C   UNL     1       7.515  -3.294  22.869  0.00  0.00    -0.045 A 
ATOM     37  C   UNL     1       7.729  -4.675  23.005  0.00  0.00    +0.007 A 
ATOM     38  C   UNL     1       6.680  -5.579  22.833  0.00  0.00    +0.045 A 
ATOM     39  C   UNL     1       5.416  -5.104  22.517  0.00  0.00    +0.117 A 
ATOM     40  C   UNL     1       5.191  -3.746  22.324  0.00  0.00    +0.045 A 
ATOM     41  C   UNL     1       6.244  -2.840  22.494  0.00  0.00    +0.007 A 
BRANCH  39  42
ATOM     42  O   UNL     1       4.404  -6.013  22.413  0.00  0.00    -0.507 OA
ATOM     43  H   UNL     1       4.462  -6.442  21.543  0.00  0.00    +0.292 HD
ENDBRANCH  39  42
ENDBRANCH  35  36
ENDBRANCH  31  35
ENDBRANCH  27  31
ENDBRANCH  24  28
ENDBRANCH  23  24
ENDBRANCH   1  23
TORSDOF 12
ENDMDL
