MODEL 1
REMARK VINA RESULT:      -6.3      0.000      0.000
REMARK  Name = 
REMARK  4 active torsions:
REMARK  status: ('A' for Active; 'I' for Inactive)
REMARK    1  A    between atoms: C_7  and  N_8
REMARK    2  A    between atoms: C_10  and  C_11
REMARK    3  A    between atoms: C_11  and  S_12
REMARK    4  A    between atoms: S_12  and  C_13
REMARK                            x       y       z     vdW  Elec       q    Type
REMARK                         _______ _______ _______ _____ _____    ______ ____
ROOT
ATOM      1  N   UNL     1      10.161  -5.324  25.541  0.00  0.00    -0.329 N 
ATOM      2  H   UNL     1      10.775  -5.853  26.139  0.00  0.00    +0.145 HD
ATOM      3  H   UNL     1      10.448  -5.233  24.572  0.00  0.00    +0.145 HD
ATOM      4  C   UNL     1       8.822  -5.332  25.739  0.00  0.00    +0.194 A 
ATOM      5  N   UNL     1       8.387  -5.715  26.969  0.00  0.00    -0.295 N 
ATOM      6  H   UNL     1       9.049  -5.971  27.689  0.00  0.00    +0.172 HD
ATOM      7  C   UNL     1       7.073  -5.714  27.345  0.00  0.00    +0.260 A 
ATOM      8  O   UNL     1       6.713  -6.059  28.466  0.00  0.00    -0.267 OA
ATOM      9  C   UNL     1       6.116  -5.294  26.310  0.00  0.00    +0.067 A 
ATOM     10  C   UNL     1       4.753  -5.205  26.603  0.00  0.00    +0.038 A 
ATOM     11  C   UNL     1       3.854  -4.815  25.616  0.00  0.00    +0.026 A 
ATOM     12  C   UNL     1       4.353  -4.440  24.362  0.00  0.00    +0.029 A 
ATOM     13  C   UNL     1       5.735  -4.514  24.059  0.00  0.00    -0.009 A 
ATOM     14  C   UNL     1       6.628  -4.948  25.050  0.00  0.00    +0.084 A 
ATOM     15  N   UNL     1       8.015  -4.986  24.790  0.00  0.00    -0.216 NA
ENDROOT
BRANCH  11  16
ATOM     16  N   UNL     1       2.516  -4.573  25.944  0.00  0.00    -0.358 N 
ATOM     17  H   UNL     1       1.899  -4.455  25.147  0.00  0.00    +0.142 HD
ATOM     18  H   UNL     1       2.135  -5.209  26.639  0.00  0.00    +0.142 HD
ENDBRANCH  11  16
BRANCH  13  19
ATOM     19  C   UNL     1       6.212  -4.134  22.668  0.00  0.00    +0.114 C 
BRANCH  19  20
ATOM     20  S   UNL     1       6.327  -2.328  22.493  0.00  0.00    -0.083 S 
BRANCH  20  21
ATOM     21  C   UNL     1       8.009  -2.040  22.729  0.00  0.00    +0.167 A 
ATOM     22  N   UNL     1       8.514  -2.086  23.994  0.00  0.00    -0.340 N 
ATOM     23  H   UNL     1       7.973  -2.273  24.826  0.00  0.00    +0.167 HD
ATOM     24  C   UNL     1       9.856  -1.835  23.915  0.00  0.00    +0.104 A 
ATOM     25  C   UNL     1      10.097  -1.647  22.574  0.00  0.00    +0.131 A 
ATOM     26  N   UNL     1       8.935  -1.781  21.842  0.00  0.00    -0.230 NA
ENDBRANCH  20  21
ENDBRANCH  19  20
ENDBRANCH  13  19
TORSDOF 4
ENDMDL
MODEL 2
REMARK VINA RESULT:      -6.1      2.437      3.394
REMARK  Name = 
REMARK  4 active torsions:
REMARK  status: ('A' for Active; 'I' for Inactive)
REMARK    1  A    between atoms: C_7  and  N_8
REMARK    2  A    between atoms: C_10  and  C_11
REMARK    3  A    between atoms: C_11  and  S_12
REMARK    4  A    between atoms: S_12  and  C_13
REMARK                            x       y       z     vdW  Elec       q    Type
REMARK                         _______ _______ _______ _____ _____    ______ ____
ROOT
ATOM      1  N   UNL     1       6.640  -5.485  21.774  0.00  0.00    -0.329 N 
ATOM      2  H   UNL     1       6.029  -5.571  20.977  0.00  0.00    +0.145 HD
ATOM      3  H   UNL     1       7.353  -4.767  21.716  0.00  0.00    +0.145 HD
ATOM      4  C   UNL     1       6.191  -5.742  23.025  0.00  0.00    +0.194 A 
ATOM      5  N   UNL     1       5.062  -6.493  23.128  0.00  0.00    -0.295 N 
ATOM      6  H   UNL     1       4.601  -6.839  22.298  0.00  0.00    +0.172 HD
ATOM      7  C   UNL     1       4.521  -6.891  24.318  0.00  0.00    +0.260 A 
ATOM      8  O   UNL     1       3.504  -7.576  24.377  0.00  0.00    -0.267 OA
ATOM      9  C   UNL     1       5.223  -6.426  25.523  0.00  0.00    +0.067 A 
ATOM     10  C   UNL     1       4.785  -6.818  26.791  0.00  0.00    +0.038 A 
ATOM     11  C   UNL     1       5.451  -6.366  27.926  0.00  0.00    +0.026 A 
ATOM     12  C   UNL     1       6.604  -5.587  27.764  0.00  0.00    +0.029 A 
ATOM     13  C   UNL     1       7.062  -5.194  26.482  0.00  0.00    -0.009 A 
ATOM     14  C   UNL     1       6.359  -5.622  25.346  0.00  0.00    +0.084 A 
ATOM     15  N   UNL     1       6.822  -5.284  24.056  0.00  0.00    -0.216 NA
ENDROOT
BRANCH  11  16
ATOM     16  N   UNL     1       5.117  -6.880  29.184  0.00  0.00    -0.358 N 
ATOM     17  H   UNL     1       4.632  -6.228  29.792  0.00  0.00    +0.142 HD
ATOM     18  H   UNL     1       4.670  -7.792  29.156  0.00  0.00    +0.142 HD
ENDBRANCH  11  16
BRANCH  13  19
ATOM     19  C   UNL     1       8.294  -4.312  26.373  0.00  0.00    +0.114 C 
BRANCH  19  20
ATOM     20  S   UNL     1       7.825  -2.571  26.143  0.00  0.00    -0.083 S 
BRANCH  20  21
ATOM     21  C   UNL     1       8.554  -2.189  24.629  0.00  0.00    +0.167 A 
ATOM     22  N   UNL     1       7.907  -2.537  23.481  0.00  0.00    -0.340 N 
ATOM     23  H   UNL     1       7.019  -3.015  23.441  0.00  0.00    +0.167 HD
ATOM     24  C   UNL     1       8.677  -2.122  22.429  0.00  0.00    +0.104 A 
ATOM     25  C   UNL     1       9.774  -1.531  23.011  0.00  0.00    +0.131 A 
ATOM     26  N   UNL     1       9.685  -1.576  24.387  0.00  0.00    -0.230 NA
ENDBRANCH  20  21
ENDBRANCH  19  20
ENDBRANCH  13  19
TORSDOF 4
ENDMDL
MODEL 3
REMARK VINA RESULT:      -6.0      2.593      3.476
REMARK  Name = 
REMARK  4 active torsions:
REMARK  status: ('A' for Active; 'I' for Inactive)
REMARK    1  A    between atoms: C_7  and  N_8
REMARK    2  A    between atoms: C_10  and  C_11
REMARK    3  A    between atoms: C_11  and  S_12
REMARK    4  A    between atoms: S_12  and  C_13
REMARK                            x       y       z     vdW  Elec       q    Type
REMARK                         _______ _______ _______ _____ _____    ______ ____
ROOT
ATOM      1  N   UNL     1       6.536  -5.755  21.169  0.00  0.00    -0.329 N 
ATOM      2  H   UNL     1       5.855  -6.042  20.485  0.00  0.00    +0.145 HD
ATOM      3  H   UNL     1       7.167  -5.012  20.890  0.00  0.00    +0.145 HD
ATOM      4  C   UNL     1       6.249  -5.790  22.492  0.00  0.00    +0.194 A 
ATOM      5  N   UNL     1       5.215  -6.586  22.873  0.00  0.00    -0.295 N 
ATOM      6  H   UNL     1       4.703  -7.123  22.187  0.00  0.00    +0.172 HD
ATOM      7  C   UNL     1       4.843  -6.778  24.174  0.00  0.00    +0.260 A 
ATOM      8  O   UNL     1       3.909  -7.510  24.486  0.00  0.00    -0.267 OA
ATOM      9  C   UNL     1       5.622  -6.033  25.174  0.00  0.00    +0.067 A 
ATOM     10  C   UNL     1       5.361  -6.196  26.537  0.00  0.00    +0.038 A 
ATOM     11  C   UNL     1       6.097  -5.480  27.475  0.00  0.00    +0.026 A 
ATOM     12  C   UNL     1       7.146  -4.665  27.029  0.00  0.00    +0.029 A 
ATOM     13  C   UNL     1       7.425  -4.503  25.650  0.00  0.00    -0.009 A 
ATOM     14  C   UNL     1       6.651  -5.199  24.710  0.00  0.00    +0.084 A 
ATOM     15  N   UNL     1       6.939  -5.091  23.333  0.00  0.00    -0.216 NA
ENDROOT
BRANCH  11  16
ATOM     16  N   UNL     1       5.949  -5.756  28.839  0.00  0.00    -0.358 N 
ATOM     17  H   UNL     1       5.056  -6.167  29.093  0.00  0.00    +0.142 HD
ATOM     18  H   UNL     1       6.735  -6.248  29.253  0.00  0.00    +0.142 HD
ENDBRANCH  11  16
BRANCH  13  19
ATOM     19  C   UNL     1       8.549  -3.573  25.225  0.00  0.00    +0.114 C 
BRANCH  19  20
ATOM     20  S   UNL     1       8.412  -1.966  26.065  0.00  0.00    -0.083 S 
BRANCH  20  21
ATOM     21  C   UNL     1       9.367  -0.942  25.061  0.00  0.00    +0.167 A 
ATOM     22  N   UNL     1       9.929   0.174  25.606  0.00  0.00    -0.340 N 
ATOM     23  H   UNL     1       9.827   0.462  26.568  0.00  0.00    +0.167 HD
ATOM     24  C   UNL     1      10.636   0.806  24.620  0.00  0.00    +0.104 A 
ATOM     25  C   UNL     1      10.459   0.019  23.506  0.00  0.00    +0.131 A 
ATOM     26  N   UNL     1       9.667  -1.072  23.795  0.00  0.00    -0.230 NA
ENDBRANCH  20  21
ENDBRANCH  19  20
ENDBRANCH  13  19
TORSDOF 4
ENDMDL
MODEL 4
REMARK VINA RESULT:      -5.9      2.621      3.692
REMARK  Name = 
REMARK  4 active torsions:
REMARK  status: ('A' for Active; 'I' for Inactive)
REMARK    1  A    between atoms: C_7  and  N_8
REMARK    2  A    between atoms: C_10  and  C_11
REMARK    3  A    between atoms: C_11  and  S_12
REMARK    4  A    between atoms: S_12  and  C_13
REMARK                            x       y       z     vdW  Elec       q    Type
REMARK                         _______ _______ _______ _____ _____    ______ ____
ROOT
ATOM      1  N   UNL     1       5.000  -7.144  28.637  0.00  0.00    -0.329 N 
ATOM      2  H   UNL     1       4.501  -7.964  28.941  0.00  0.00    +0.145 HD
ATOM      3  H   UNL     1       5.786  -6.858  29.211  0.00  0.00    +0.145 HD
ATOM      4  C   UNL     1       5.123  -6.855  27.320  0.00  0.00    +0.194 A 
ATOM      5  N   UNL     1       4.235  -7.445  26.477  0.00  0.00    -0.295 N 
ATOM      6  H   UNL     1       3.519  -8.061  26.838  0.00  0.00    +0.172 HD
ATOM      7  C   UNL     1       4.187  -7.205  25.133  0.00  0.00    +0.260 A 
ATOM      8  O   UNL     1       3.367  -7.749  24.400  0.00  0.00    -0.267 OA
ATOM      9  C   UNL     1       5.199  -6.270  24.618  0.00  0.00    +0.067 A 
ATOM     10  C   UNL     1       5.208  -5.913  23.267  0.00  0.00    +0.038 A 
ATOM     11  C   UNL     1       6.174  -5.035  22.788  0.00  0.00    +0.026 A 
ATOM     12  C   UNL     1       7.074  -4.462  23.696  0.00  0.00    +0.029 A 
ATOM     13  C   UNL     1       7.064  -4.808  25.070  0.00  0.00    -0.009 A 
ATOM     14  C   UNL     1       6.111  -5.726  25.536  0.00  0.00    +0.084 A 
ATOM     15  N   UNL     1       6.050  -6.052  26.907  0.00  0.00    -0.216 NA
ENDROOT
BRANCH  11  16
ATOM     16  N   UNL     1       6.093  -4.553  21.476  0.00  0.00    -0.358 N 
ATOM     17  H   UNL     1       6.977  -4.251  21.081  0.00  0.00    +0.142 HD
ATOM     18  H   UNL     1       5.567  -5.150  20.845  0.00  0.00    +0.142 HD
ENDBRANCH  11  16
BRANCH  13  19
ATOM     19  C   UNL     1       8.092  -4.186  26.000  0.00  0.00    +0.114 C 
BRANCH  19  20
ATOM     20  S   UNL     1       7.618  -2.488  26.446  0.00  0.00    -0.083 S 
BRANCH  20  21
ATOM     21  C   UNL     1       8.743  -1.542  25.547  0.00  0.00    +0.167 A 
ATOM     22  N   UNL     1       9.185  -0.367  26.077  0.00  0.00    -0.340 N 
ATOM     23  H   UNL     1       8.900   0.008  26.970  0.00  0.00    +0.167 HD
ATOM     24  C   UNL     1      10.065   0.185  25.186  0.00  0.00    +0.104 A 
ATOM     25  C   UNL     1      10.108  -0.708  24.141  0.00  0.00    +0.131 A 
ATOM     26  N   UNL     1       9.280  -1.785  24.379  0.00  0.00    -0.230 NA
ENDBRANCH  20  21
ENDBRANCH  19  20
ENDBRANCH  13  19
TORSDOF 4
ENDMDL
MODEL 5
REMARK VINA RESULT:      -5.9      2.804      5.272
REMARK  Name = 
REMARK  4 active torsions:
REMARK  status: ('A' for Active; 'I' for Inactive)
REMARK    1  A    between atoms: C_7  and  N_8
REMARK    2  A    between atoms: C_10  and  C_11
REMARK    3  A    between atoms: C_11  and  S_12
REMARK    4  A    between atoms: S_12  and  C_13
REMARK                            x       y       z     vdW  Elec       q    Type
REMARK                         _______ _______ _______ _____ _____    ______ ____
ROOT
ATOM      1  N   UNL     1       6.382   0.515  22.875  0.00  0.00    -0.329 N 
ATOM      2  H   UNL     1       6.708   1.147  22.161  0.00  0.00    +0.145 HD
ATOM      3  H   UNL     1       5.378   0.386  22.937  0.00  0.00    +0.145 HD
ATOM      4  C   UNL     1       7.118  -0.563  23.236  0.00  0.00    +0.194 A 
ATOM      5  N   UNL     1       8.440  -0.535  22.922  0.00  0.00    -0.295 N 
ATOM      6  H   UNL     1       8.837   0.265  22.448  0.00  0.00    +0.172 HD
ATOM      7  C   UNL     1       9.325  -1.515  23.273  0.00  0.00    +0.260 A 
ATOM      8  O   UNL     1      10.516  -1.457  22.981  0.00  0.00    -0.267 OA
ATOM      9  C   UNL     1       8.753  -2.655  24.005  0.00  0.00    +0.067 A 
ATOM     10  C   UNL     1       9.578  -3.688  24.459  0.00  0.00    +0.038 A 
ATOM     11  C   UNL     1       9.027  -4.767  25.143  0.00  0.00    +0.026 A 
ATOM     12  C   UNL     1       7.657  -4.751  25.433  0.00  0.00    +0.029 A 
ATOM     13  C   UNL     1       6.815  -3.702  24.988  0.00  0.00    -0.009 A 
ATOM     14  C   UNL     1       7.374  -2.639  24.263  0.00  0.00    +0.084 A 
ATOM     15  N   UNL     1       6.566  -1.559  23.849  0.00  0.00    -0.216 NA
ENDROOT
BRANCH  11  16
ATOM     16  N   UNL     1       9.863  -5.720  25.735  0.00  0.00    -0.358 N 
ATOM     17  H   UNL     1       9.593  -6.683  25.564  0.00  0.00    +0.142 HD
ATOM     18  H   UNL     1      10.854  -5.560  25.579  0.00  0.00    +0.142 HD
ENDBRANCH  11  16
BRANCH  13  19
ATOM     19  C   UNL     1       5.328  -3.762  25.296  0.00  0.00    +0.114 C 
BRANCH  19  20
ATOM     20  S   UNL     1       4.561  -5.209  24.509  0.00  0.00    -0.083 S 
BRANCH  20  21
ATOM     21  C   UNL     1       5.291  -5.211  22.948  0.00  0.00    +0.167 A 
ATOM     22  N   UNL     1       6.004  -6.304  22.556  0.00  0.00    -0.340 N 
ATOM     23  H   UNL     1       6.149  -7.131  23.117  0.00  0.00    +0.167 HD
ATOM     24  C   UNL     1       6.469  -6.065  21.292  0.00  0.00    +0.104 A 
ATOM     25  C   UNL     1       6.000  -4.811  20.980  0.00  0.00    +0.131 A 
ATOM     26  N   UNL     1       5.262  -4.288  22.021  0.00  0.00    -0.230 NA
ENDBRANCH  20  21
ENDBRANCH  19  20
ENDBRANCH  13  19
TORSDOF 4
ENDMDL
MODEL 6
REMARK VINA RESULT:      -5.9      6.088      8.760
REMARK  Name = 
REMARK  4 active torsions:
REMARK  status: ('A' for Active; 'I' for Inactive)
REMARK    1  A    between atoms: C_7  and  N_8
REMARK    2  A    between atoms: C_10  and  C_11
REMARK    3  A    between atoms: C_11  and  S_12
REMARK    4  A    between atoms: S_12  and  C_13
REMARK                            x       y       z     vdW  Elec       q    Type
REMARK                         _______ _______ _______ _____ _____    ______ ____
ROOT
ATOM      1  N   UNL     1      13.520   5.040  23.081  0.00  0.00    -0.329 N 
ATOM      2  H   UNL     1      14.028   5.858  23.375  0.00  0.00    +0.145 HD
ATOM      3  H   UNL     1      14.048   4.176  23.035  0.00  0.00    +0.145 HD
ATOM      4  C   UNL     1      12.209   4.890  23.385  0.00  0.00    +0.194 A 
ATOM      5  N   UNL     1      11.525   6.017  23.718  0.00  0.00    -0.295 N 
ATOM      6  H   UNL     1      11.989   6.914  23.724  0.00  0.00    +0.172 HD
ATOM      7  C   UNL     1      10.185   6.041  23.987  0.00  0.00    +0.260 A 
ATOM      8  O   UNL     1       9.595   7.077  24.277  0.00  0.00    -0.267 OA
ATOM      9  C   UNL     1       9.502   4.739  23.930  0.00  0.00    +0.067 A 
ATOM     10  C   UNL     1       8.122   4.657  24.137  0.00  0.00    +0.038 A 
ATOM     11  C   UNL     1       7.486   3.420  24.089  0.00  0.00    +0.026 A 
ATOM     12  C   UNL     1       8.240   2.289  23.751  0.00  0.00    +0.029 A 
ATOM     13  C   UNL     1       9.636   2.365  23.527  0.00  0.00    -0.009 A 
ATOM     14  C   UNL     1      10.275   3.610  23.619  0.00  0.00    +0.084 A 
ATOM     15  N   UNL     1      11.657   3.721  23.354  0.00  0.00    -0.216 NA
ENDROOT
BRANCH  11  16
ATOM     16  N   UNL     1       6.090   3.350  24.137  0.00  0.00    -0.358 N 
ATOM     17  H   UNL     1       5.634   4.203  24.446  0.00  0.00    +0.142 HD
ATOM     18  H   UNL     1       5.662   2.961  23.302  0.00  0.00    +0.142 HD
ENDBRANCH  11  16
BRANCH  13  19
ATOM     19  C   UNL     1      10.407   1.095  23.206  0.00  0.00    +0.114 C 
BRANCH  19  20
ATOM     20  S   UNL     1       9.606   0.175  21.859  0.00  0.00    -0.083 S 
BRANCH  20  21
ATOM     21  C   UNL     1       9.220  -1.325  22.615  0.00  0.00    +0.167 A 
ATOM     22  N   UNL     1       9.955  -1.728  23.690  0.00  0.00    -0.340 N 
ATOM     23  H   UNL     1      10.727  -1.214  24.088  0.00  0.00    +0.167 HD
ATOM     24  C   UNL     1       9.453  -2.930  24.109  0.00  0.00    +0.104 A 
ATOM     25  C   UNL     1       8.417  -3.195  23.244  0.00  0.00    +0.131 A 
ATOM     26  N   UNL     1       8.279  -2.183  22.316  0.00  0.00    -0.230 NA
ENDBRANCH  20  21
ENDBRANCH  19  20
ENDBRANCH  13  19
TORSDOF 4
ENDMDL
MODEL 7
REMARK VINA RESULT:      -5.7      2.818      5.965
REMARK  Name = 
REMARK  4 active torsions:
REMARK  status: ('A' for Active; 'I' for Inactive)
REMARK    1  A    between atoms: C_7  and  N_8
REMARK    2  A    between atoms: C_10  and  C_11
REMARK    3  A    between atoms: C_11  and  S_12
REMARK    4  A    between atoms: S_12  and  C_13
REMARK                            x       y       z     vdW  Elec       q    Type
REMARK                         _______ _______ _______ _____ _____    ______ ____
ROOT
ATOM      1  N   UNL     1       6.493   0.988  22.653  0.00  0.00    -0.329 N 
ATOM      2  H   UNL     1       6.896   1.908  22.570  0.00  0.00    +0.145 HD
ATOM      3  H   UNL     1       5.801   0.737  21.956  0.00  0.00    +0.145 HD
ATOM      4  C   UNL     1       7.222  -0.048  23.130  0.00  0.00    +0.194 A 
ATOM      5  N   UNL     1       8.328   0.264  23.857  0.00  0.00    -0.295 N 
ATOM      6  H   UNL     1       8.572   1.230  24.027  0.00  0.00    +0.172 HD
ATOM      7  C   UNL     1       9.128  -0.665  24.459  0.00  0.00    +0.260 A 
ATOM      8  O   UNL     1      10.117  -0.350  25.115  0.00  0.00    -0.267 OA
ATOM      9  C   UNL     1       8.742  -2.069  24.250  0.00  0.00    +0.067 A 
ATOM     10  C   UNL     1       9.461  -3.098  24.863  0.00  0.00    +0.038 A 
ATOM     11  C   UNL     1       9.093  -4.423  24.653  0.00  0.00    +0.026 A 
ATOM     12  C   UNL     1       7.950  -4.691  23.887  0.00  0.00    +0.029 A 
ATOM     13  C   UNL     1       7.208  -3.653  23.271  0.00  0.00    -0.009 A 
ATOM     14  C   UNL     1       7.612  -2.323  23.457  0.00  0.00    +0.084 A 
ATOM     15  N   UNL     1       6.863  -1.268  22.894  0.00  0.00    -0.216 NA
ENDROOT
BRANCH  11  16
ATOM     16  N   UNL     1       9.706  -5.444  25.386  0.00  0.00    -0.358 N 
ATOM     17  H   UNL     1       9.867  -5.225  26.364  0.00  0.00    +0.142 HD
ATOM     18  H   UNL     1       9.287  -6.361  25.257  0.00  0.00    +0.142 HD
ENDBRANCH  11  16
BRANCH  13  19
ATOM     19  C   UNL     1       6.003  -4.009  22.417  0.00  0.00    +0.114 C 
BRANCH  19  20
ATOM     20  S   UNL     1       5.775  -5.810  22.337  0.00  0.00    -0.083 S 
BRANCH  20  21
ATOM     21  C   UNL     1       4.215  -6.017  23.038  0.00  0.00    +0.167 A 
ATOM     22  N   UNL     1       3.984  -7.112  23.817  0.00  0.00    -0.340 N 
ATOM     23  H   UNL     1       4.662  -7.832  24.018  0.00  0.00    +0.167 HD
ATOM     24  C   UNL     1       2.690  -7.043  24.256  0.00  0.00    +0.104 A 
ATOM     25  C   UNL     1       2.197  -5.882  23.707  0.00  0.00    +0.131 A 
ATOM     26  N   UNL     1       3.161  -5.248  22.951  0.00  0.00    -0.230 NA
ENDBRANCH  20  21
ENDBRANCH  19  20
ENDBRANCH  13  19
TORSDOF 4
ENDMDL
MODEL 8
REMARK VINA RESULT:      -5.7      1.907      3.909
REMARK  Name = 
REMARK  4 active torsions:
REMARK  status: ('A' for Active; 'I' for Inactive)
REMARK    1  A    between atoms: C_7  and  N_8
REMARK    2  A    between atoms: C_10  and  C_11
REMARK    3  A    between atoms: C_11  and  S_12
REMARK    4  A    between atoms: S_12  and  C_13
REMARK                            x       y       z     vdW  Elec       q    Type
REMARK                         _______ _______ _______ _____ _____    ______ ____
ROOT
ATOM      1  N   UNL     1       2.826  -4.072  24.609  0.00  0.00    -0.329 N 
ATOM      2  H   UNL     1       2.051  -4.390  25.167  0.00  0.00    +0.145 HD
ATOM      3  H   UNL     1       2.708  -3.178  24.143  0.00  0.00    +0.145 HD
ATOM      4  C   UNL     1       4.101  -4.367  24.958  0.00  0.00    +0.194 A 
ATOM      5  N   UNL     1       4.276  -5.412  25.809  0.00  0.00    -0.295 N 
ATOM      6  H   UNL     1       3.480  -5.936  26.147  0.00  0.00    +0.172 HD
ATOM      7  C   UNL     1       5.500  -5.873  26.205  0.00  0.00    +0.260 A 
ATOM      8  O   UNL     1       5.624  -6.826  26.969  0.00  0.00    -0.267 OA
ATOM      9  C   UNL     1       6.658  -5.140  25.673  0.00  0.00    +0.067 A 
ATOM     10  C   UNL     1       7.957  -5.559  25.971  0.00  0.00    +0.038 A 
ATOM     11  C   UNL     1       9.046  -4.853  25.470  0.00  0.00    +0.026 A 
ATOM     12  C   UNL     1       8.811  -3.777  24.605  0.00  0.00    +0.029 A 
ATOM     13  C   UNL     1       7.497  -3.353  24.287  0.00  0.00    -0.009 A 
ATOM     14  C   UNL     1       6.406  -4.046  24.830  0.00  0.00    +0.084 A 
ATOM     15  N   UNL     1       5.087  -3.673  24.492  0.00  0.00    -0.216 NA
ENDROOT
BRANCH  11  16
ATOM     16  N   UNL     1      10.341  -5.358  25.633  0.00  0.00    -0.358 N 
ATOM     17  H   UNL     1      10.765  -5.152  26.532  0.00  0.00    +0.142 HD
ATOM     18  H   UNL     1      10.445  -6.333  25.368  0.00  0.00    +0.142 HD
ENDBRANCH  11  16
BRANCH  13  19
ATOM     19  C   UNL     1       7.305  -2.151  23.376  0.00  0.00    +0.114 C 
BRANCH  19  20
ATOM     20  S   UNL     1       8.706  -1.977  22.231  0.00  0.00    -0.083 S 
BRANCH  20  21
ATOM     21  C   UNL     1       9.281  -0.392  22.590  0.00  0.00    +0.167 A 
ATOM     22  N   UNL     1       9.580   0.448  21.559  0.00  0.00    -0.340 N 
ATOM     23  H   UNL     1       9.496   0.215  20.581  0.00  0.00    +0.167 HD
ATOM     24  C   UNL     1      10.002   1.632  22.099  0.00  0.00    +0.104 A 
ATOM     25  C   UNL     1       9.934   1.439  23.459  0.00  0.00    +0.131 A 
ATOM     26  N   UNL     1       9.479   0.171  23.754  0.00  0.00    -0.230 NA
ENDBRANCH  20  21
ENDBRANCH  19  20
ENDBRANCH  13  19
TORSDOF 4
ENDMDL
MODEL 9
REMARK VINA RESULT:      -5.6      2.433      5.010
REMARK  Name = 
REMARK  4 active torsions:
REMARK  status: ('A' for Active; 'I' for Inactive)
REMARK    1  A    between atoms: C_7  and  N_8
REMARK    2  A    between atoms: C_10  and  C_11
REMARK    3  A    between atoms: C_11  and  S_12
REMARK    4  A    between atoms: S_12  and  C_13
REMARK                            x       y       z     vdW  Elec       q    Type
REMARK                         _______ _______ _______ _____ _____    ______ ____
ROOT
ATOM      1  N   UNL     1       2.776  -3.864  26.547  0.00  0.00    -0.329 N 
ATOM      2  H   UNL     1       2.278  -3.652  27.396  0.00  0.00    +0.145 HD
ATOM      3  H   UNL     1       2.452  -3.397  25.708  0.00  0.00    +0.145 HD
ATOM      4  C   UNL     1       4.102  -4.138  26.570  0.00  0.00    +0.194 A 
ATOM      5  N   UNL     1       4.629  -4.516  27.765  0.00  0.00    -0.295 N 
ATOM      6  H   UNL     1       4.041  -4.590  28.583  0.00  0.00    +0.172 HD
ATOM      7  C   UNL     1       5.933  -4.886  27.937  0.00  0.00    +0.260 A 
ATOM      8  O   UNL     1       6.377  -5.229  29.028  0.00  0.00    -0.267 OA
ATOM      9  C   UNL     1       6.776  -4.824  26.733  0.00  0.00    +0.067 A 
ATOM     10  C   UNL     1       8.112  -5.231  26.785  0.00  0.00    +0.038 A 
ATOM     11  C   UNL     1       8.903  -5.161  25.643  0.00  0.00    +0.026 A 
ATOM     12  C   UNL     1       8.313  -4.756  24.439  0.00  0.00    +0.029 A 
ATOM     13  C   UNL     1       6.957  -4.353  24.374  0.00  0.00    -0.009 A 
ATOM     14  C   UNL     1       6.178  -4.389  25.540  0.00  0.00    +0.084 A 
ATOM     15  N   UNL     1       4.812  -4.038  25.493  0.00  0.00    -0.216 NA
ENDROOT
BRANCH  11  16
ATOM     16  N   UNL     1      10.189  -5.713  25.649  0.00  0.00    -0.358 N 
ATOM     17  H   UNL     1      10.580  -5.885  24.728  0.00  0.00    +0.142 HD
ATOM     18  H   UNL     1      10.843  -5.241  26.266  0.00  0.00    +0.142 HD
ENDBRANCH  11  16
BRANCH  13  19
ATOM     19  C   UNL     1       6.384  -3.883  23.048  0.00  0.00    +0.114 C 
BRANCH  19  20
ATOM     20  S   UNL     1       5.872  -5.297  22.025  0.00  0.00    -0.083 S 
BRANCH  20  21
ATOM     21  C   UNL     1       4.456  -5.846  22.838  0.00  0.00    +0.167 A 
ATOM     22  N   UNL     1       4.549  -6.926  23.665  0.00  0.00    -0.340 N 
ATOM     23  H   UNL     1       5.395  -7.447  23.842  0.00  0.00    +0.167 HD
ATOM     24  C   UNL     1       3.306  -7.155  24.189  0.00  0.00    +0.104 A 
ATOM     25  C   UNL     1       2.510  -6.178  23.639  0.00  0.00    +0.131 A 
ATOM     26  N   UNL     1       3.241  -5.364  22.798  0.00  0.00    -0.230 NA
ENDBRANCH  20  21
ENDBRANCH  19  20
ENDBRANCH  13  19
TORSDOF 4
ENDMDL
