MODEL 1
REMARK VINA RESULT:      -6.5      0.000      0.000
REMARK  Name = 
REMARK  7 active torsions:
REMARK  status: ('A' for Active; 'I' for Inactive)
REMARK    1  A    between atoms: C_2  and  O_4
REMARK    2  A    between atoms: O_4  and  C_5
REMARK    3  A    between atoms: C_6  and  O_7
REMARK    4  A    between atoms: O_7  and  C_8
REMARK    5  A    between atoms: C_8  and  C_9
REMARK    6  A    between atoms: C_13  and  C_16
REMARK    7  A    between atoms: N_18  and  C_19
REMARK                            x       y       z     vdW  Elec       q    Type
REMARK                         _______ _______ _______ _____ _____    ______ ____
ROOT
ATOM      1  C   UNL     1       9.622   0.069  22.859  0.00  0.00    +0.168 A 
ATOM      2  C   UNL     1      10.454  -0.997  23.212  0.00  0.00    +0.050 A 
ATOM      3  C   UNL     1       9.903  -2.255  23.469  0.00  0.00    +0.017 A 
ATOM      4  C   UNL     1       8.523  -2.455  23.362  0.00  0.00    +0.041 A 
ATOM      5  C   UNL     1       7.692  -1.404  22.945  0.00  0.00    +0.062 A 
ATOM      6  C   UNL     1       8.237  -0.139  22.697  0.00  0.00    +0.163 A 
ENDROOT
BRANCH   4   7
ATOM      7  C   UNL     1       7.965  -3.786  23.746  0.00  0.00    +0.248 C 
ATOM      8  N   UNL     1       6.599  -3.775  23.987  0.00  0.00    -0.279 N 
ATOM      9  H   UNL     1       6.237  -2.857  24.225  0.00  0.00    +0.155 HD
ATOM     10  O   UNL     1       8.721  -4.724  23.961  0.00  0.00    -0.270 OA
BRANCH   8  11
ATOM     11  C   UNL     1       5.940  -4.849  24.655  0.00  0.00    +0.074 A 
ATOM     12  C   UNL     1       5.907  -5.006  26.047  0.00  0.00    +0.082 A 
ATOM     13 CL   UNL     1       6.788  -4.005  27.141  0.00  0.00    -0.080 Cl
ATOM     14  C   UNL     1       5.238  -6.112  26.564  0.00  0.00    +0.132 A 
ATOM     15  N   UNL     1       4.610  -7.051  25.813  0.00  0.00    -0.260 NA
ATOM     16  C   UNL     1       4.669  -6.887  24.472  0.00  0.00    +0.132 A 
ATOM     17  C   UNL     1       5.325  -5.827  23.859  0.00  0.00    +0.082 A 
ATOM     18 CL   UNL     1       5.317  -5.719  22.133  0.00  0.00    -0.080 Cl
ENDBRANCH   8  11
ENDBRANCH   4   7
BRANCH   1  19
ATOM     19  O   UNL     1      10.086   1.340  22.627  0.00  0.00    -0.431 OA
BRANCH  19  21
ATOM     20  F   UNL     1      10.655   3.337  23.500  0.00  0.00    -0.166 F 
ATOM     21  C   UNL     1      10.590   2.010  23.769  0.00  0.00    +0.541 C 
ATOM     22  F   UNL     1       9.684   1.858  24.769  0.00  0.00    -0.166 F 
ENDBRANCH  19  21
ENDBRANCH   1  19
BRANCH   6  23
ATOM     23  O   UNL     1       7.519   0.949  22.274  0.00  0.00    -0.488 OA
BRANCH  23  24
ATOM     24  C   UNL     1       6.524   1.476  23.148  0.00  0.00    +0.232 C 
BRANCH  24  25
ATOM     25  C   UNL     1       6.833   2.927  23.373  0.00  0.00    +0.027 C 
ATOM     26  C   UNL     1       6.042   4.009  22.680  0.00  0.00    +0.007 C 
ATOM     27  C   UNL     1       7.470   3.753  22.284  0.00  0.00    +0.007 C 
ENDBRANCH  24  25
ENDBRANCH  23  24
ENDBRANCH   6  23
TORSDOF 7
ENDMDL
MODEL 2
REMARK VINA RESULT:      -6.4      4.474      8.182
REMARK  Name = 
REMARK  7 active torsions:
REMARK  status: ('A' for Active; 'I' for Inactive)
REMARK    1  A    between atoms: C_2  and  O_4
REMARK    2  A    between atoms: O_4  and  C_5
REMARK    3  A    between atoms: C_6  and  O_7
REMARK    4  A    between atoms: O_7  and  C_8
REMARK    5  A    between atoms: C_8  and  C_9
REMARK    6  A    between atoms: C_13  and  C_16
REMARK    7  A    between atoms: N_18  and  C_19
REMARK                            x       y       z     vdW  Elec       q    Type
REMARK                         _______ _______ _______ _____ _____    ______ ____
ROOT
ATOM      1  C   UNL     1       9.217  -2.454  23.849  0.00  0.00    +0.168 A 
ATOM      2  C   UNL     1       9.784  -1.527  24.726  0.00  0.00    +0.050 A 
ATOM      3  C   UNL     1       9.699  -0.161  24.446  0.00  0.00    +0.017 A 
ATOM      4  C   UNL     1       9.037   0.284  23.297  0.00  0.00    +0.041 A 
ATOM      5  C   UNL     1       8.411  -0.641  22.447  0.00  0.00    +0.062 A 
ATOM      6  C   UNL     1       8.502  -2.011  22.717  0.00  0.00    +0.163 A 
ENDROOT
BRANCH   4   7
ATOM      7  C   UNL     1       9.059   1.743  22.982  0.00  0.00    +0.248 C 
ATOM      8  N   UNL     1       9.384   2.547  24.066  0.00  0.00    -0.279 N 
ATOM      9  H   UNL     1       9.209   2.106  24.964  0.00  0.00    +0.155 HD
ATOM     10  O   UNL     1       8.668   2.138  21.892  0.00  0.00    -0.270 OA
BRANCH   8  11
ATOM     11  C   UNL     1       9.160   3.956  24.057  0.00  0.00    +0.074 A 
ATOM     12  C   UNL     1       7.926   4.556  24.340  0.00  0.00    +0.082 A 
ATOM     13 CL   UNL     1       6.469   3.669  24.590  0.00  0.00    -0.080 Cl
ATOM     14  C   UNL     1       7.847   5.945  24.280  0.00  0.00    +0.132 A 
ATOM     15  N   UNL     1       8.884   6.761  23.969  0.00  0.00    -0.260 NA
ATOM     16  C   UNL     1      10.061   6.158  23.684  0.00  0.00    +0.132 A 
ATOM     17  C   UNL     1      10.238   4.780  23.700  0.00  0.00    +0.082 A 
ATOM     18 CL   UNL     1      11.796   4.128  23.331  0.00  0.00    -0.080 Cl
ENDBRANCH   8  11
ENDBRANCH   4   7
BRANCH   1  19
ATOM     19  O   UNL     1       9.291  -3.812  24.038  0.00  0.00    -0.431 OA
BRANCH  19  21
ATOM     20  F   UNL     1       7.375  -4.001  25.206  0.00  0.00    -0.166 F 
ATOM     21  C   UNL     1       8.702  -4.281  25.237  0.00  0.00    +0.541 C 
ATOM     22  F   UNL     1       8.814  -5.634  25.252  0.00  0.00    -0.166 F 
ENDBRANCH  19  21
ENDBRANCH   1  19
BRANCH   6  23
ATOM     23  O   UNL     1       7.918  -2.994  21.962  0.00  0.00    -0.488 OA
BRANCH  23  24
ATOM     24  C   UNL     1       6.513  -3.198  22.095  0.00  0.00    +0.232 C 
BRANCH  24  25
ATOM     25  C   UNL     1       6.208  -4.600  21.658  0.00  0.00    +0.027 C 
ATOM     26  C   UNL     1       5.971  -5.696  22.667  0.00  0.00    +0.007 C 
ATOM     27  C   UNL     1       7.226  -5.698  21.841  0.00  0.00    +0.007 C 
ENDBRANCH  24  25
ENDBRANCH  23  24
ENDBRANCH   6  23
TORSDOF 7
ENDMDL
MODEL 3
REMARK VINA RESULT:      -6.3      4.547      8.214
REMARK  Name = 
REMARK  7 active torsions:
REMARK  status: ('A' for Active; 'I' for Inactive)
REMARK    1  A    between atoms: C_2  and  O_4
REMARK    2  A    between atoms: O_4  and  C_5
REMARK    3  A    between atoms: C_6  and  O_7
REMARK    4  A    between atoms: O_7  and  C_8
REMARK    5  A    between atoms: C_8  and  C_9
REMARK    6  A    between atoms: C_13  and  C_16
REMARK    7  A    between atoms: N_18  and  C_19
REMARK                            x       y       z     vdW  Elec       q    Type
REMARK                         _______ _______ _______ _____ _____    ______ ____
ROOT
ATOM      1  C   UNL     1       9.333  -2.375  23.921  0.00  0.00    +0.168 A 
ATOM      2  C   UNL     1       9.911  -1.454  24.797  0.00  0.00    +0.050 A 
ATOM      3  C   UNL     1       9.845  -0.087  24.515  0.00  0.00    +0.017 A 
ATOM      4  C   UNL     1       9.189   0.364  23.363  0.00  0.00    +0.041 A 
ATOM      5  C   UNL     1       8.552  -0.555  22.514  0.00  0.00    +0.062 A 
ATOM      6  C   UNL     1       8.625  -1.925  22.788  0.00  0.00    +0.163 A 
ENDROOT
BRANCH   4   7
ATOM      7  C   UNL     1       9.231   1.822  23.046  0.00  0.00    +0.248 C 
ATOM      8  N   UNL     1       9.595   2.621  24.120  0.00  0.00    -0.279 N 
ATOM      9  H   UNL     1       9.432   2.185  25.023  0.00  0.00    +0.155 HD
ATOM     10  O   UNL     1       8.822   2.222  21.964  0.00  0.00    -0.270 OA
BRANCH   8  11
ATOM     11  C   UNL     1       9.397   4.034  24.114  0.00  0.00    +0.074 A 
ATOM     12  C   UNL     1      10.374   4.962  23.733  0.00  0.00    +0.082 A 
ATOM     13 CL   UNL     1      12.004   4.534  23.363  0.00  0.00    -0.080 Cl
ATOM     14  C   UNL     1      10.048   6.315  23.788  0.00  0.00    +0.132 A 
ATOM     15  N   UNL     1       8.844   6.799  24.184  0.00  0.00    -0.260 NA
ATOM     16  C   UNL     1       7.922   5.885  24.563  0.00  0.00    +0.132 A 
ATOM     17  C   UNL     1       8.156   4.515  24.559  0.00  0.00    +0.082 A 
ATOM     18 CL   UNL     1       6.891   3.444  25.051  0.00  0.00    -0.080 Cl
ENDBRANCH   8  11
ENDBRANCH   4   7
BRANCH   1  19
ATOM     19  O   UNL     1       9.390  -3.734  24.113  0.00  0.00    -0.431 OA
BRANCH  19  21
ATOM     20  F   UNL     1       7.821  -5.043  25.060  0.00  0.00    -0.166 F 
ATOM     21  C   UNL     1       8.837  -4.187  25.335  0.00  0.00    +0.541 C 
ATOM     22  F   UNL     1       9.790  -4.908  25.978  0.00  0.00    -0.166 F 
ENDBRANCH  19  21
ENDBRANCH   1  19
BRANCH   6  23
ATOM     23  O   UNL     1       8.030  -2.902  22.033  0.00  0.00    -0.488 OA
BRANCH  23  24
ATOM     24  C   UNL     1       6.636  -3.136  22.219  0.00  0.00    +0.232 C 
BRANCH  24  25
ATOM     25  C   UNL     1       6.306  -4.462  21.599  0.00  0.00    +0.027 C 
ATOM     26  C   UNL     1       5.796  -5.608  22.436  0.00  0.00    +0.007 C 
ATOM     27  C   UNL     1       7.180  -5.665  21.852  0.00  0.00    +0.007 C 
ENDBRANCH  24  25
ENDBRANCH  23  24
ENDBRANCH   6  23
TORSDOF 7
ENDMDL
MODEL 4
REMARK VINA RESULT:      -6.3      0.564      1.890
REMARK  Name = 
REMARK  7 active torsions:
REMARK  status: ('A' for Active; 'I' for Inactive)
REMARK    1  A    between atoms: C_2  and  O_4
REMARK    2  A    between atoms: O_4  and  C_5
REMARK    3  A    between atoms: C_6  and  O_7
REMARK    4  A    between atoms: O_7  and  C_8
REMARK    5  A    between atoms: C_8  and  C_9
REMARK    6  A    between atoms: C_13  and  C_16
REMARK    7  A    between atoms: N_18  and  C_19
REMARK                            x       y       z     vdW  Elec       q    Type
REMARK                         _______ _______ _______ _____ _____    ______ ____
ROOT
ATOM      1  C   UNL     1       9.754   0.379  22.800  0.00  0.00    +0.168 A 
ATOM      2  C   UNL     1      10.568  -0.610  23.357  0.00  0.00    +0.050 A 
ATOM      3  C   UNL     1      10.052  -1.887  23.592  0.00  0.00    +0.017 A 
ATOM      4  C   UNL     1       8.726  -2.184  23.258  0.00  0.00    +0.041 A 
ATOM      5  C   UNL     1       7.924  -1.212  22.640  0.00  0.00    +0.062 A 
ATOM      6  C   UNL     1       8.434   0.072  22.412  0.00  0.00    +0.163 A 
ENDROOT
BRANCH   4   7
ATOM      7  C   UNL     1       8.184  -3.527  23.621  0.00  0.00    +0.248 C 
ATOM      8  N   UNL     1       6.798  -3.588  23.639  0.00  0.00    -0.279 N 
ATOM      9  H   UNL     1       6.354  -2.684  23.766  0.00  0.00    +0.155 HD
ATOM     10  O   UNL     1       8.943  -4.407  24.005  0.00  0.00    -0.270 OA
BRANCH   8  11
ATOM     11  C   UNL     1       6.097  -4.669  24.251  0.00  0.00    +0.074 A 
ATOM     12  C   UNL     1       5.625  -5.792  23.558  0.00  0.00    +0.082 A 
ATOM     13 CL   UNL     1       5.693  -5.951  21.842  0.00  0.00    -0.080 Cl
ATOM     14  C   UNL     1       4.943  -6.767  24.281  0.00  0.00    +0.132 A 
ATOM     15  N   UNL     1       4.704  -6.708  25.615  0.00  0.00    -0.260 NA
ATOM     16  C   UNL     1       5.155  -5.608  26.260  0.00  0.00    +0.132 A 
ATOM     17  C   UNL     1       5.831  -4.573  25.626  0.00  0.00    +0.082 A 
ATOM     18 CL   UNL     1       6.372  -3.224  26.562  0.00  0.00    -0.080 Cl
ENDBRANCH   8  11
ENDBRANCH   4   7
BRANCH   1  19
ATOM     19  O   UNL     1      10.180   1.665  22.574  0.00  0.00    -0.431 OA
BRANCH  19  21
ATOM     20  F   UNL     1      10.780   3.673  23.397  0.00  0.00    -0.166 F 
ATOM     21  C   UNL     1      10.568   2.377  23.735  0.00  0.00    +0.541 C 
ATOM     22  F   UNL     1       9.519   2.365  24.597  0.00  0.00    -0.166 F 
ENDBRANCH  19  21
ENDBRANCH   1  19
BRANCH   6  23
ATOM     23  O   UNL     1       7.743   1.087  21.804  0.00  0.00    -0.488 OA
BRANCH  23  24
ATOM     24  C   UNL     1       6.847   1.859  22.601  0.00  0.00    +0.232 C 
BRANCH  24  25
ATOM     25  C   UNL     1       6.831   3.256  22.053  0.00  0.00    +0.027 C 
ATOM     26  C   UNL     1       7.549   4.378  22.760  0.00  0.00    +0.007 C 
ATOM     27  C   UNL     1       6.046   4.341  22.745  0.00  0.00    +0.007 C 
ENDBRANCH  24  25
ENDBRANCH  23  24
ENDBRANCH   6  23
TORSDOF 7
ENDMDL
MODEL 5
REMARK VINA RESULT:      -6.2      1.093      2.003
REMARK  Name = 
REMARK  7 active torsions:
REMARK  status: ('A' for Active; 'I' for Inactive)
REMARK    1  A    between atoms: C_2  and  O_4
REMARK    2  A    between atoms: O_4  and  C_5
REMARK    3  A    between atoms: C_6  and  O_7
REMARK    4  A    between atoms: O_7  and  C_8
REMARK    5  A    between atoms: C_8  and  C_9
REMARK    6  A    between atoms: C_13  and  C_16
REMARK    7  A    between atoms: N_18  and  C_19
REMARK                            x       y       z     vdW  Elec       q    Type
REMARK                         _______ _______ _______ _____ _____    ______ ____
ROOT
ATOM      1  C   UNL     1       9.791  -0.792  23.179  0.00  0.00    +0.168 A 
ATOM      2  C   UNL     1      10.210  -1.934  23.867  0.00  0.00    +0.050 A 
ATOM      3  C   UNL     1       9.354  -3.032  23.979  0.00  0.00    +0.017 A 
ATOM      4  C   UNL     1       8.084  -2.999  23.393  0.00  0.00    +0.041 A 
ATOM      5  C   UNL     1       7.685  -1.879  22.648  0.00  0.00    +0.062 A 
ATOM      6  C   UNL     1       8.534  -0.772  22.541  0.00  0.00    +0.163 A 
ENDROOT
BRANCH   4   7
ATOM      7  C   UNL     1       7.163  -4.152  23.625  0.00  0.00    +0.248 C 
ATOM      8  N   UNL     1       6.217  -3.926  24.615  0.00  0.00    -0.279 N 
ATOM      9  H   UNL     1       6.486  -3.202  25.274  0.00  0.00    +0.155 HD
ATOM     10  O   UNL     1       7.375  -5.222  23.070  0.00  0.00    -0.270 OA
BRANCH   8  11
ATOM     11  C   UNL     1       5.462  -4.987  25.195  0.00  0.00    +0.074 A 
ATOM     12  C   UNL     1       4.266  -5.484  24.659  0.00  0.00    +0.082 A 
ATOM     13 CL   UNL     1       3.462  -4.780  23.305  0.00  0.00    -0.080 Cl
ATOM     14  C   UNL     1       3.624  -6.516  25.339  0.00  0.00    +0.132 A 
ATOM     15  N   UNL     1       4.077  -7.078  26.487  0.00  0.00    -0.260 NA
ATOM     16  C   UNL     1       5.224  -6.572  26.994  0.00  0.00    +0.132 A 
ATOM     17  C   UNL     1       5.930  -5.533  26.400  0.00  0.00    +0.082 A 
ATOM     18 CL   UNL     1       7.394  -4.981  27.137  0.00  0.00    -0.080 Cl
ENDBRANCH   8  11
ENDBRANCH   4   7
BRANCH   1  19
ATOM     19  O   UNL     1      10.561   0.338  23.059  0.00  0.00    -0.431 OA
BRANCH  19  21
ATOM     20  F   UNL     1      11.162   2.304  23.979  0.00  0.00    -0.166 F 
ATOM     21  C   UNL     1      10.798   1.031  24.271  0.00  0.00    +0.541 C 
ATOM     22  F   UNL     1       9.620   1.106  24.941  0.00  0.00    -0.166 F 
ENDBRANCH  19  21
ENDBRANCH   1  19
BRANCH   6  23
ATOM     23  O   UNL     1       8.248   0.363  21.828  0.00  0.00    -0.488 OA
BRANCH  23  24
ATOM     24  C   UNL     1       7.378   1.325  22.420  0.00  0.00    +0.232 C 
BRANCH  24  25
ATOM     25  C   UNL     1       7.981   2.682  22.207  0.00  0.00    +0.027 C 
ATOM     26  C   UNL     1       8.134   3.654  23.351  0.00  0.00    +0.007 C 
ATOM     27  C   UNL     1       7.122   3.920  22.271  0.00  0.00    +0.007 C 
ENDBRANCH  24  25
ENDBRANCH  23  24
ENDBRANCH   6  23
TORSDOF 7
ENDMDL
MODEL 6
REMARK VINA RESULT:      -6.2      4.409      7.973
REMARK  Name = 
REMARK  7 active torsions:
REMARK  status: ('A' for Active; 'I' for Inactive)
REMARK    1  A    between atoms: C_2  and  O_4
REMARK    2  A    between atoms: O_4  and  C_5
REMARK    3  A    between atoms: C_6  and  O_7
REMARK    4  A    between atoms: O_7  and  C_8
REMARK    5  A    between atoms: C_8  and  C_9
REMARK    6  A    between atoms: C_13  and  C_16
REMARK    7  A    between atoms: N_18  and  C_19
REMARK                            x       y       z     vdW  Elec       q    Type
REMARK                         _______ _______ _______ _____ _____    ______ ____
ROOT
ATOM      1  C   UNL     1       7.907  -4.265  23.191  0.00  0.00    +0.168 A 
ATOM      2  C   UNL     1       7.826  -3.152  22.351  0.00  0.00    +0.050 A 
ATOM      3  C   UNL     1       8.233  -1.898  22.815  0.00  0.00    +0.017 A 
ATOM      4  C   UNL     1       8.734  -1.756  24.113  0.00  0.00    +0.041 A 
ATOM      5  C   UNL     1       8.876  -2.883  24.938  0.00  0.00    +0.062 A 
ATOM      6  C   UNL     1       8.460  -4.139  24.481  0.00  0.00    +0.163 A 
ENDROOT
BRANCH   4   7
ATOM      7  C   UNL     1       9.059  -0.383  24.603  0.00  0.00    +0.248 C 
ATOM      8  N   UNL     1       8.165   0.591  24.181  0.00  0.00    -0.279 N 
ATOM      9  H   UNL     1       7.654   0.335  23.342  0.00  0.00    +0.155 HD
ATOM     10  O   UNL     1      10.113  -0.180  25.190  0.00  0.00    -0.270 OA
BRANCH   8  11
ATOM     11  C   UNL     1       8.463   1.983  24.277  0.00  0.00    +0.074 A 
ATOM     12  C   UNL     1       9.269   2.678  23.364  0.00  0.00    +0.082 A 
ATOM     13 CL   UNL     1      10.135   1.915  22.083  0.00  0.00    -0.080 Cl
ATOM     14  C   UNL     1       9.488   4.035  23.588  0.00  0.00    +0.132 A 
ATOM     15  N   UNL     1       8.973   4.735  24.630  0.00  0.00    -0.260 NA
ATOM     16  C   UNL     1       8.212   4.039  25.506  0.00  0.00    +0.132 A 
ATOM     17  C   UNL     1       7.948   2.681  25.379  0.00  0.00    +0.082 A 
ATOM     18 CL   UNL     1       6.947   1.906  26.557  0.00  0.00    -0.080 Cl
ENDBRANCH   8  11
ENDBRANCH   4   7
BRANCH   1  19
ATOM     19  O   UNL     1       7.493  -5.520  22.818  0.00  0.00    -0.431 OA
BRANCH  19  21
ATOM     20  F   UNL     1       6.115  -6.213  21.177  0.00  0.00    -0.166 F 
ATOM     21  C   UNL     1       6.146  -5.601  22.386  0.00  0.00    +0.541 C 
ATOM     22  F   UNL     1       5.483  -6.411  23.251  0.00  0.00    -0.166 F 
ENDBRANCH  19  21
ENDBRANCH   1  19
BRANCH   6  23
ATOM     23  O   UNL     1       8.567  -5.302  25.198  0.00  0.00    -0.488 OA
BRANCH  23  24
ATOM     24  C   UNL     1       7.985  -5.344  26.499  0.00  0.00    +0.232 C 
BRANCH  24  25
ATOM     25  C   UNL     1       6.525  -5.651  26.340  0.00  0.00    +0.027 C 
ATOM     26  C   UNL     1       5.475  -4.601  26.604  0.00  0.00    +0.007 C 
ATOM     27  C   UNL     1       5.630  -5.761  27.549  0.00  0.00    +0.007 C 
ENDBRANCH  24  25
ENDBRANCH  23  24
ENDBRANCH   6  23
TORSDOF 7
ENDMDL
MODEL 7
REMARK VINA RESULT:      -6.0      4.537      7.933
REMARK  Name = 
REMARK  7 active torsions:
REMARK  status: ('A' for Active; 'I' for Inactive)
REMARK    1  A    between atoms: C_2  and  O_4
REMARK    2  A    between atoms: O_4  and  C_5
REMARK    3  A    between atoms: C_6  and  O_7
REMARK    4  A    between atoms: O_7  and  C_8
REMARK    5  A    between atoms: C_8  and  C_9
REMARK    6  A    between atoms: C_13  and  C_16
REMARK    7  A    between atoms: N_18  and  C_19
REMARK                            x       y       z     vdW  Elec       q    Type
REMARK                         _______ _______ _______ _____ _____    ______ ____
ROOT
ATOM      1  C   UNL     1       6.262  -3.553  22.307  0.00  0.00    +0.168 A 
ATOM      2  C   UNL     1       7.481  -3.012  21.892  0.00  0.00    +0.050 A 
ATOM      3  C   UNL     1       8.025  -1.917  22.568  0.00  0.00    +0.017 A 
ATOM      4  C   UNL     1       7.359  -1.367  23.669  0.00  0.00    +0.041 A 
ATOM      5  C   UNL     1       6.167  -1.948  24.129  0.00  0.00    +0.062 A 
ATOM      6  C   UNL     1       5.613  -3.038  23.448  0.00  0.00    +0.163 A 
ENDROOT
BRANCH   4   7
ATOM      7  C   UNL     1       7.922  -0.135  24.298  0.00  0.00    +0.248 C 
ATOM      8  N   UNL     1       7.671   1.026  23.581  0.00  0.00    -0.279 N 
ATOM      9  H   UNL     1       7.480   0.861  22.597  0.00  0.00    +0.155 HD
ATOM     10  O   UNL     1       8.656  -0.229  25.272  0.00  0.00    -0.270 OA
BRANCH   8  11
ATOM     11  C   UNL     1       8.373   2.241  23.839  0.00  0.00    +0.074 A 
ATOM     12  C   UNL     1       7.933   3.227  24.732  0.00  0.00    +0.082 A 
ATOM     13 CL   UNL     1       6.404   3.178  25.529  0.00  0.00    -0.080 Cl
ATOM     14  C   UNL     1       8.712   4.372  24.877  0.00  0.00    +0.132 A 
ATOM     15  N   UNL     1       9.874   4.600  24.214  0.00  0.00    -0.260 NA
ATOM     16  C   UNL     1      10.270   3.641  23.346  0.00  0.00    +0.132 A 
ATOM     17  C   UNL     1       9.555   2.472  23.119  0.00  0.00    +0.082 A 
ATOM     18 CL   UNL     1      10.173   1.313  21.994  0.00  0.00    -0.080 Cl
ENDBRANCH   8  11
ENDBRANCH   4   7
BRANCH   1  19
ATOM     19  O   UNL     1       5.649  -4.604  21.671  0.00  0.00    -0.431 OA
BRANCH  19  21
ATOM     20  F   UNL     1       6.446  -6.680  22.026  0.00  0.00    -0.166 F 
ATOM     21  C   UNL     1       6.527  -5.609  21.198  0.00  0.00    +0.541 C 
ATOM     22  F   UNL     1       6.073  -6.018  19.986  0.00  0.00    -0.166 F 
ENDBRANCH  19  21
ENDBRANCH   1  19
BRANCH   6  23
ATOM     23  O   UNL     1       4.464  -3.686  23.820  0.00  0.00    -0.488 OA
BRANCH  23  24
ATOM     24  C   UNL     1       4.406  -4.252  25.127  0.00  0.00    +0.232 C 
BRANCH  24  25
ATOM     25  C   UNL     1       5.195  -5.529  25.110  0.00  0.00    +0.027 C 
ATOM     26  C   UNL     1       5.307  -6.391  26.342  0.00  0.00    +0.007 C 
ATOM     27  C   UNL     1       6.506  -5.629  25.849  0.00  0.00    +0.007 C 
ENDBRANCH  24  25
ENDBRANCH  23  24
ENDBRANCH   6  23
TORSDOF 7
ENDMDL
MODEL 8
REMARK VINA RESULT:      -5.9      1.591      2.573
REMARK  Name = 
REMARK  7 active torsions:
REMARK  status: ('A' for Active; 'I' for Inactive)
REMARK    1  A    between atoms: C_2  and  O_4
REMARK    2  A    between atoms: O_4  and  C_5
REMARK    3  A    between atoms: C_6  and  O_7
REMARK    4  A    between atoms: O_7  and  C_8
REMARK    5  A    between atoms: C_8  and  C_9
REMARK    6  A    between atoms: C_13  and  C_16
REMARK    7  A    between atoms: N_18  and  C_19
REMARK                            x       y       z     vdW  Elec       q    Type
REMARK                         _______ _______ _______ _____ _____    ______ ____
ROOT
ATOM      1  C   UNL     1       9.716   1.479  22.761  0.00  0.00    +0.168 A 
ATOM      2  C   UNL     1      10.190   0.301  23.344  0.00  0.00    +0.050 A 
ATOM      3  C   UNL     1       9.292  -0.706  23.706  0.00  0.00    +0.017 A 
ATOM      4  C   UNL     1       7.921  -0.547  23.476  0.00  0.00    +0.041 A 
ATOM      5  C   UNL     1       7.449   0.608  22.832  0.00  0.00    +0.062 A 
ATOM      6  C   UNL     1       8.343   1.624  22.476  0.00  0.00    +0.163 A 
ENDROOT
BRANCH   4   7
ATOM      7  C   UNL     1       6.989  -1.601  23.972  0.00  0.00    +0.248 C 
ATOM      8  N   UNL     1       7.554  -2.867  24.037  0.00  0.00    -0.279 N 
ATOM      9  H   UNL     1       8.357  -2.984  23.426  0.00  0.00    +0.155 HD
ATOM     10  O   UNL     1       5.806  -1.338  24.142  0.00  0.00    -0.270 OA
BRANCH   8  11
ATOM     11  C   UNL     1       6.761  -4.043  24.183  0.00  0.00    +0.074 A 
ATOM     12  C   UNL     1       6.132  -4.704  23.120  0.00  0.00    +0.082 A 
ATOM     13 CL   UNL     1       6.105  -4.099  21.504  0.00  0.00    -0.080 Cl
ATOM     14  C   UNL     1       5.374  -5.835  23.409  0.00  0.00    +0.132 A 
ATOM     15  N   UNL     1       5.204  -6.348  24.654  0.00  0.00    -0.260 NA
ATOM     16  C   UNL     1       5.807  -5.684  25.666  0.00  0.00    +0.132 A 
ATOM     17  C   UNL     1       6.569  -4.537  25.483  0.00  0.00    +0.082 A 
ATOM     18 CL   UNL     1       7.304  -3.787  26.856  0.00  0.00    -0.080 Cl
ENDBRANCH   8  11
ENDBRANCH   4   7
BRANCH   1  19
ATOM     19  O   UNL     1      10.532   2.527  22.412  0.00  0.00    -0.431 OA
BRANCH  19  21
ATOM     20  F   UNL     1      11.998   4.114  23.048  0.00  0.00    -0.166 F 
ATOM     21  C   UNL     1      11.017   3.293  23.499  0.00  0.00    +0.541 C 
ATOM     22  F   UNL     1      10.006   4.092  23.925  0.00  0.00    -0.166 F 
ENDBRANCH  19  21
ENDBRANCH   1  19
BRANCH   6  23
ATOM     23  O   UNL     1       7.989   2.782  21.834  0.00  0.00    -0.488 OA
BRANCH  23  24
ATOM     24  C   UNL     1       6.733   3.373  22.159  0.00  0.00    +0.232 C 
BRANCH  24  25
ATOM     25  C   UNL     1       7.003   4.702  22.801  0.00  0.00    +0.027 C 
ATOM     26  C   UNL     1       6.016   5.837  22.685  0.00  0.00    +0.007 C 
ATOM     27  C   UNL     1       7.329   5.908  21.957  0.00  0.00    +0.007 C 
ENDBRANCH  24  25
ENDBRANCH  23  24
ENDBRANCH   6  23
TORSDOF 7
ENDMDL
MODEL 9
REMARK VINA RESULT:      -5.8      2.405      2.549
REMARK  Name = 
REMARK  7 active torsions:
REMARK  status: ('A' for Active; 'I' for Inactive)
REMARK    1  A    between atoms: C_2  and  O_4
REMARK    2  A    between atoms: O_4  and  C_5
REMARK    3  A    between atoms: C_6  and  O_7
REMARK    4  A    between atoms: O_7  and  C_8
REMARK    5  A    between atoms: C_8  and  C_9
REMARK    6  A    between atoms: C_13  and  C_16
REMARK    7  A    between atoms: N_18  and  C_19
REMARK                            x       y       z     vdW  Elec       q    Type
REMARK                         _______ _______ _______ _____ _____    ______ ____
ROOT
ATOM      1  C   UNL     1       9.912   1.597  22.981  0.00  0.00    +0.168 A 
ATOM      2  C   UNL     1      10.451   0.594  23.790  0.00  0.00    +0.050 A 
ATOM      3  C   UNL     1       9.631  -0.433  24.266  0.00  0.00    +0.017 A 
ATOM      4  C   UNL     1       8.275  -0.469  23.924  0.00  0.00    +0.041 A 
ATOM      5  C   UNL     1       7.745   0.501  23.059  0.00  0.00    +0.062 A 
ATOM      6  C   UNL     1       8.559   1.538  22.588  0.00  0.00    +0.163 A 
ENDROOT
BRANCH   4   7
ATOM      7  C   UNL     1       7.414  -1.524  24.537  0.00  0.00    +0.248 C 
ATOM      8  N   UNL     1       7.934  -2.065  25.704  0.00  0.00    -0.279 N 
ATOM      9  H   UNL     1       8.940  -1.957  25.787  0.00  0.00    +0.155 HD
ATOM     10  O   UNL     1       6.431  -1.934  23.934  0.00  0.00    -0.270 OA
BRANCH   8  11
ATOM     11  C   UNL     1       7.432  -3.278  26.263  0.00  0.00    +0.074 A 
ATOM     12  C   UNL     1       6.248  -3.368  27.006  0.00  0.00    +0.082 A 
ATOM     13 CL   UNL     1       5.309  -1.999  27.476  0.00  0.00    -0.080 Cl
ATOM     14  C   UNL     1       5.884  -4.616  27.506  0.00  0.00    +0.132 A 
ATOM     15  N   UNL     1       6.597  -5.755  27.322  0.00  0.00    -0.260 NA
ATOM     16  C   UNL     1       7.745  -5.640  26.617  0.00  0.00    +0.132 A 
ATOM     17  C   UNL     1       8.202  -4.438  26.090  0.00  0.00    +0.082 A 
ATOM     18 CL   UNL     1       9.679  -4.421  25.191  0.00  0.00    -0.080 Cl
ENDBRANCH   8  11
ENDBRANCH   4   7
BRANCH   1  19
ATOM     19  O   UNL     1      10.646   2.656  22.507  0.00  0.00    -0.431 OA
BRANCH  19  21
ATOM     20  F   UNL     1      12.233   4.171  23.013  0.00  0.00    -0.166 F 
ATOM     21  C   UNL     1      11.143   3.532  23.503  0.00  0.00    +0.541 C 
ATOM     22  F   UNL     1      10.199   4.482  23.726  0.00  0.00    -0.166 F 
ENDBRANCH  19  21
ENDBRANCH   1  19
BRANCH   6  23
ATOM     23  O   UNL     1       8.146   2.525  21.732  0.00  0.00    -0.488 OA
BRANCH  23  24
ATOM     24  C   UNL     1       6.873   3.123  21.963  0.00  0.00    +0.232 C 
BRANCH  24  25
ATOM     25  C   UNL     1       7.093   4.382  22.750  0.00  0.00    +0.027 C 
ATOM     26  C   UNL     1       6.050   5.470  22.786  0.00  0.00    +0.007 C 
ATOM     27  C   UNL     1       7.339   5.693  22.045  0.00  0.00    +0.007 C 
ENDBRANCH  24  25
ENDBRANCH  23  24
ENDBRANCH   6  23
TORSDOF 7
ENDMDL
