MODEL 1
REMARK VINA RESULT:      -6.3      0.000      0.000
REMARK  Name = 
REMARK  18 active torsions:
REMARK  status: ('A' for Active; 'I' for Inactive)
REMARK    1  A    between atoms: N_1  and  C_2
REMARK    2  A    between atoms: C_2  and  C_4
REMARK    3  A    between atoms: C_2  and  C_32
REMARK    4  A    between atoms: C_4  and  C_5
REMARK    5  A    between atoms: C_5  and  C_6
REMARK    6  A    between atoms: N_8  and  C_9
REMARK    7  A    between atoms: C_9  and  C_11
REMARK    8  A    between atoms: C_9  and  C_25
REMARK    9  A    between atoms: C_11  and  S_12
REMARK   10  A    between atoms: S_12  and  C_13
REMARK   11  A    between atoms: C_13  and  O_15
REMARK   12  A    between atoms: C_13  and  N_16
REMARK   13  A    between atoms: N_16  and  O_17
REMARK   14  A    between atoms: N_16  and  C_18
REMARK   15  A    between atoms: N_27  and  CA_28
REMARK   16  A    between atoms: CA_28  and  C_29
REMARK   17  A    between atoms: C_29  and  O_30
REMARK   18  A    between atoms: C_32  and  O_33
REMARK                            x       y       z     vdW  Elec       q    Type
REMARK                         _______ _______ _______ _____ _____    ______ ____
ROOT
ATOM      1  C   UNK A   1       8.374  -2.442  24.869  0.00  0.00    +0.169 C 
ENDROOT
BRANCH   1   3
ATOM      2  C   UNK A   1       8.025  -4.367  23.305  0.00  0.00    +0.214 C 
ATOM      3  N   UNK A   1       8.120  -3.011  23.540  0.00  0.00    -0.303 N 
ATOM      4  H   UNK A   1       7.569  -2.424  22.931  0.00  0.00    +0.149 HD
ATOM      5  O   UNK A   1       8.505  -5.230  24.031  0.00  0.00    -0.276 OA
BRANCH   2   6
ATOM      6  C   UNK A   1       7.254  -4.707  22.032  0.00  0.00    +0.098 C 
BRANCH   6   7
ATOM      7  C   UNK A   1       6.470  -6.024  22.077  0.00  0.00    +0.039 C 
BRANCH   7   8
ATOM      8  C   UNK A   1       5.027  -5.859  22.585  0.00  0.00    +0.161 C 
BRANCH   8   9
ATOM      9  N   UNK A   1       4.604  -4.448  22.512  0.00  0.00    -0.318 NA
ATOM     10  H   UNK A   1       5.258  -3.866  23.036  0.00  0.00    +0.119 HD
ATOM     11  H   UNK A   1       4.647  -4.113  21.547  0.00  0.00    +0.119 HD
ENDBRANCH   8   9
BRANCH   8  12
ATOM     12  C   UNK A   1       4.886  -6.378  24.036  0.00  0.00    +0.322 C 
ATOM     13  O   UNK A   1       5.240  -5.779  25.046  0.00  0.00    -0.249 OA
BRANCH  12  14
ATOM     14  O   UNK A   1       4.309  -7.602  24.118  0.00  0.00    -0.480 OA
ATOM     15  H   UNK A   1       3.782  -7.756  24.924  0.00  0.00    +0.295 HD
ENDBRANCH  12  14
ENDBRANCH   8  12
ENDBRANCH   7   8
ENDBRANCH   6   7
ENDBRANCH   2   6
ENDBRANCH   1   3
BRANCH   1  16
ATOM     16  C   UNK A   1       9.233  -1.166  24.638  0.00  0.00    +0.235 C 
ATOM     17  N   GLY A   2       9.427  -0.815  23.312  0.00  0.00    -0.303 N 
ATOM     18  H   GLY A   2       9.324  -1.531  22.605  0.00  0.00    +0.149 HD
ATOM     19  O   UNK A   1       9.621  -0.431  25.534  0.00  0.00    -0.274 OA
BRANCH  17  20
ATOM     20  CA  GLY A   2      10.279   0.338  22.979  0.00  0.00    +0.224 C 
BRANCH  20  21
ATOM     21  C   GLY A   2       9.750   1.211  21.835  0.00  0.00    +0.322 C 
ATOM     22  OXT GLY A   2       8.808   0.898  21.122  0.00  0.00    -0.249 OA
BRANCH  21  23
ATOM     23  O   GLY A   2      10.386   2.399  21.713  0.00  0.00    -0.480 OA
ATOM     24  H   GLY A   2      10.302   2.903  22.543  0.00  0.00    +0.295 HD
ENDBRANCH  21  23
ENDBRANCH  20  21
ENDBRANCH  17  20
ENDBRANCH   1  16
BRANCH   1  25
ATOM     25  C   UNK A   1       7.196  -2.186  25.817  0.00  0.00    +0.105 C 
BRANCH  25  26
ATOM     26  S   UNK A   1       5.640  -1.597  25.036  0.00  0.00    -0.104 S 
BRANCH  26  27
ATOM     27  C   UNK A   1       5.714   0.217  25.229  0.00  0.00    +0.299 C 
BRANCH  27  28
ATOM     28  O   UNK A   1       4.519   0.762  25.738  0.00  0.00    -0.362 OA
ATOM     29  H   UNK A   1       4.711   0.850  26.688  0.00  0.00    +0.213 HD
ENDBRANCH  27  28
BRANCH  27  30
ATOM     30  N   UNK A   1       6.229   0.851  24.006  0.00  0.00    -0.217 N 
BRANCH  30  31
ATOM     31  C   UNK A   1       6.858   2.091  23.851  0.00  0.00    +0.068 A 
ATOM     32  C   UNK A   1       7.831   2.475  24.801  0.00  0.00    +0.029 A 
ATOM     33  C   UNK A   1       8.552   3.673  24.711  0.00  0.00    +0.017 A 
ATOM     34  C   UNK A   1       8.299   4.544  23.664  0.00  0.00    +0.018 A 
ATOM     35 BR   UNK A   1       9.281   6.149  23.504  0.00  0.00    -0.050 Br
ATOM     36  C   UNK A   1       7.333   4.223  22.721  0.00  0.00    +0.017 A 
ATOM     37  C   UNK A   1       6.638   3.004  22.808  0.00  0.00    +0.029 A 
ENDBRANCH  30  31
BRANCH  30  38
ATOM     38  O   UNK A   1       6.475  -0.120  23.004  0.00  0.00    -0.284 OA
ATOM     39  H   UNK A   1       7.275  -0.596  23.306  0.00  0.00    +0.245 HD
ENDBRANCH  30  38
ENDBRANCH  27  30
ENDBRANCH  26  27
ENDBRANCH  25  26
ENDBRANCH   1  25
TORSDOF 18
ENDMDL
MODEL 2
REMARK VINA RESULT:      -6.3      1.654      1.781
REMARK  Name = 
REMARK  18 active torsions:
REMARK  status: ('A' for Active; 'I' for Inactive)
REMARK    1  A    between atoms: N_1  and  C_2
REMARK    2  A    between atoms: C_2  and  C_4
REMARK    3  A    between atoms: C_2  and  C_32
REMARK    4  A    between atoms: C_4  and  C_5
REMARK    5  A    between atoms: C_5  and  C_6
REMARK    6  A    between atoms: N_8  and  C_9
REMARK    7  A    between atoms: C_9  and  C_11
REMARK    8  A    between atoms: C_9  and  C_25
REMARK    9  A    between atoms: C_11  and  S_12
REMARK   10  A    between atoms: S_12  and  C_13
REMARK   11  A    between atoms: C_13  and  O_15
REMARK   12  A    between atoms: C_13  and  N_16
REMARK   13  A    between atoms: N_16  and  O_17
REMARK   14  A    between atoms: N_16  and  C_18
REMARK   15  A    between atoms: N_27  and  CA_28
REMARK   16  A    between atoms: CA_28  and  C_29
REMARK   17  A    between atoms: C_29  and  O_30
REMARK   18  A    between atoms: C_32  and  O_33
REMARK                            x       y       z     vdW  Elec       q    Type
REMARK                         _______ _______ _______ _____ _____    ______ ____
ROOT
ATOM      1  C   UNK A   1       8.815  -1.646  25.102  0.00  0.00    +0.169 C 
ENDROOT
BRANCH   1   3
ATOM      2  C   UNK A   1       8.882  -4.073  24.487  0.00  0.00    +0.214 C 
ATOM      3  N   UNK A   1       8.244  -2.851  24.487  0.00  0.00    -0.303 N 
ATOM      4  H   UNK A   1       7.235  -2.887  24.495  0.00  0.00    +0.149 HD
ATOM      5  O   UNK A   1      10.091  -4.222  24.623  0.00  0.00    -0.276 OA
BRANCH   2   6
ATOM      6  C   UNK A   1       7.930  -5.252  24.294  0.00  0.00    +0.098 C 
BRANCH   6   7
ATOM      7  C   UNK A   1       7.410  -5.442  22.864  0.00  0.00    +0.039 C 
BRANCH   7   8
ATOM      8  C   UNK A   1       5.967  -4.948  22.669  0.00  0.00    +0.161 C 
BRANCH   8   9
ATOM      9  N   UNK A   1       5.171  -5.938  21.919  0.00  0.00    -0.318 NA
ATOM     10  H   UNK A   1       5.230  -6.846  22.381  0.00  0.00    +0.119 HD
ATOM     11  H   UNK A   1       4.181  -5.684  21.934  0.00  0.00    +0.119 HD
ENDBRANCH   8   9
BRANCH   8  12
ATOM     12  C   UNK A   1       5.941  -3.586  21.936  0.00  0.00    +0.322 C 
ATOM     13  O   UNK A   1       6.165  -2.495  22.449  0.00  0.00    -0.249 OA
BRANCH  12  14
ATOM     14  O   UNK A   1       5.643  -3.688  20.617  0.00  0.00    -0.480 OA
ATOM     15  H   UNK A   1       6.415  -3.719  20.022  0.00  0.00    +0.295 HD
ENDBRANCH  12  14
ENDBRANCH   8  12
ENDBRANCH   7   8
ENDBRANCH   6   7
ENDBRANCH   2   6
ENDBRANCH   1   3
BRANCH   1  16
ATOM     16  C   UNK A   1       9.485  -0.846  23.948  0.00  0.00    +0.235 C 
ATOM     17  N   GLY A   2       8.830  -0.906  22.728  0.00  0.00    -0.303 N 
ATOM     18  H   GLY A   2       8.207  -1.684  22.555  0.00  0.00    +0.149 HD
ATOM     19  O   UNK A   1      10.448  -0.108  24.097  0.00  0.00    -0.274 OA
BRANCH  17  20
ATOM     20  CA  GLY A   2       9.414  -0.239  21.554  0.00  0.00    +0.224 C 
BRANCH  20  21
ATOM     21  C   GLY A   2       9.072   1.251  21.433  0.00  0.00    +0.322 C 
ATOM     22  OXT GLY A   2       7.956   1.672  21.168  0.00  0.00    -0.249 OA
BRANCH  21  23
ATOM     23  O   GLY A   2      10.111   2.075  21.702  0.00  0.00    -0.480 OA
ATOM     24  H   GLY A   2       9.813   3.002  21.665  0.00  0.00    +0.295 HD
ENDBRANCH  21  23
ENDBRANCH  20  21
ENDBRANCH  17  20
ENDBRANCH   1  16
BRANCH   1  25
ATOM     25  C   UNK A   1       7.931  -0.760  25.988  0.00  0.00    +0.105 C 
BRANCH  25  26
ATOM     26  S   UNK A   1       6.116  -0.935  25.755  0.00  0.00    -0.104 S 
BRANCH  26  27
ATOM     27  C   UNK A   1       5.532   0.784  25.567  0.00  0.00    +0.299 C 
BRANCH  27  28
ATOM     28  O   UNK A   1       4.143   0.915  25.766  0.00  0.00    -0.362 OA
ATOM     29  H   UNK A   1       4.033   1.874  25.882  0.00  0.00    +0.213 HD
ENDBRANCH  27  28
BRANCH  27  30
ATOM     30  N   UNK A   1       6.052   1.380  24.327  0.00  0.00    -0.217 N 
BRANCH  30  31
ATOM     31  C   UNK A   1       6.798   2.551  24.154  0.00  0.00    +0.068 A 
ATOM     32  C   UNK A   1       8.069   2.635  24.768  0.00  0.00    +0.029 A 
ATOM     33  C   UNK A   1       8.915   3.742  24.618  0.00  0.00    +0.017 A 
ATOM     34  C   UNK A   1       8.497   4.821  23.857  0.00  0.00    +0.018 A 
ATOM     35 BR   UNK A   1       9.633   6.309  23.615  0.00  0.00    -0.050 Br
ATOM     36  C   UNK A   1       7.246   4.796  23.257  0.00  0.00    +0.017 A 
ATOM     37  C   UNK A   1       6.420   3.667  23.393  0.00  0.00    +0.029 A 
ENDBRANCH  30  31
BRANCH  30  38
ATOM     38  O   UNK A   1       6.148   0.403  23.305  0.00  0.00    -0.284 OA
ATOM     39  H   UNK A   1       7.108   0.248  23.195  0.00  0.00    +0.245 HD
ENDBRANCH  30  38
ENDBRANCH  27  30
ENDBRANCH  26  27
ENDBRANCH  25  26
ENDBRANCH   1  25
TORSDOF 18
ENDMDL
MODEL 3
REMARK VINA RESULT:      -6.1      2.683      4.365
REMARK  Name = 
REMARK  18 active torsions:
REMARK  status: ('A' for Active; 'I' for Inactive)
REMARK    1  A    between atoms: N_1  and  C_2
REMARK    2  A    between atoms: C_2  and  C_4
REMARK    3  A    between atoms: C_2  and  C_32
REMARK    4  A    between atoms: C_4  and  C_5
REMARK    5  A    between atoms: C_5  and  C_6
REMARK    6  A    between atoms: N_8  and  C_9
REMARK    7  A    between atoms: C_9  and  C_11
REMARK    8  A    between atoms: C_9  and  C_25
REMARK    9  A    between atoms: C_11  and  S_12
REMARK   10  A    between atoms: S_12  and  C_13
REMARK   11  A    between atoms: C_13  and  O_15
REMARK   12  A    between atoms: C_13  and  N_16
REMARK   13  A    between atoms: N_16  and  O_17
REMARK   14  A    between atoms: N_16  and  C_18
REMARK   15  A    between atoms: N_27  and  CA_28
REMARK   16  A    between atoms: CA_28  and  C_29
REMARK   17  A    between atoms: C_29  and  O_30
REMARK   18  A    between atoms: C_32  and  O_33
REMARK                            x       y       z     vdW  Elec       q    Type
REMARK                         _______ _______ _______ _____ _____    ______ ____
ROOT
ATOM      1  C   UNK A   1       8.132  -3.906  25.582  0.00  0.00    +0.169 C 
ENDROOT
BRANCH   1   3
ATOM      2  C   UNK A   1       6.834  -5.013  27.416  0.00  0.00    +0.214 C 
ATOM      3  N   UNK A   1       6.888  -4.201  26.302  0.00  0.00    -0.303 N 
ATOM      4  H   UNK A   1       6.199  -3.464  26.268  0.00  0.00    +0.149 HD
ATOM      5  O   UNK A   1       7.675  -5.861  27.695  0.00  0.00    -0.276 OA
BRANCH   2   6
ATOM      6  C   UNK A   1       5.608  -4.761  28.290  0.00  0.00    +0.098 C 
BRANCH   6   7
ATOM      7  C   UNK A   1       4.265  -5.140  27.654  0.00  0.00    +0.039 C 
BRANCH   7   8
ATOM      8  C   UNK A   1       4.104  -6.653  27.425  0.00  0.00    +0.161 C 
BRANCH   8   9
ATOM      9  N   UNK A   1       5.073  -7.412  28.237  0.00  0.00    -0.318 NA
ATOM     10  H   UNK A   1       5.350  -8.258  27.739  0.00  0.00    +0.119 HD
ATOM     11  H   UNK A   1       5.931  -6.872  28.365  0.00  0.00    +0.119 HD
ENDBRANCH   8   9
BRANCH   8  12
ATOM     12  C   UNK A   1       4.276  -7.009  25.928  0.00  0.00    +0.322 C 
ATOM     13  O   UNK A   1       5.025  -6.442  25.141  0.00  0.00    -0.249 OA
BRANCH  12  14
ATOM     14  O   UNK A   1       3.504  -8.050  25.530  0.00  0.00    -0.480 OA
ATOM     15  H   UNK A   1       3.331  -8.091  24.571  0.00  0.00    +0.295 HD
ENDBRANCH  12  14
ENDBRANCH   8  12
ENDBRANCH   7   8
ENDBRANCH   6   7
ENDBRANCH   2   6
ENDBRANCH   1   3
BRANCH   1  16
ATOM     16  C   UNK A   1       8.138  -4.829  24.329  0.00  0.00    +0.235 C 
ATOM     17  N   GLY A   2       7.061  -4.670  23.472  0.00  0.00    -0.303 N 
ATOM     18  H   GLY A   2       6.210  -4.264  23.839  0.00  0.00    +0.149 HD
ATOM     19  O   UNK A   1       9.066  -5.564  24.025  0.00  0.00    -0.274 OA
BRANCH  17  20
ATOM     20  CA  GLY A   2       6.934  -5.540  22.292  0.00  0.00    +0.224 C 
BRANCH  20  21
ATOM     21  C   GLY A   2       6.145  -4.924  21.130  0.00  0.00    +0.322 C 
ATOM     22  OXT GLY A   2       5.727  -3.776  21.127  0.00  0.00    -0.249 OA
BRANCH  21  23
ATOM     23  O   GLY A   2       5.996  -5.751  20.070  0.00  0.00    -0.480 OA
ATOM     24  H   GLY A   2       5.488  -5.300  19.370  0.00  0.00    +0.295 HD
ENDBRANCH  21  23
ENDBRANCH  20  21
ENDBRANCH  17  20
ENDBRANCH   1  16
BRANCH   1  25
ATOM     25  C   UNK A   1       8.476  -2.452  25.234  0.00  0.00    +0.105 C 
BRANCH  25  26
ATOM     26  S   UNK A   1       9.724  -2.209  23.907  0.00  0.00    -0.104 S 
BRANCH  26  27
ATOM     27  C   UNK A   1       8.738  -1.647  22.478  0.00  0.00    +0.299 C 
BRANCH  27  28
ATOM     28  O   UNK A   1       9.534  -1.267  21.379  0.00  0.00    -0.362 OA
ATOM     29  H   UNK A   1       9.281  -0.338  21.242  0.00  0.00    +0.213 HD
ENDBRANCH  27  28
BRANCH  27  30
ATOM     30  N   UNK A   1       7.726  -0.664  22.895  0.00  0.00    -0.217 N 
BRANCH  30  31
ATOM     31  C   UNK A   1       7.834   0.727  23.000  0.00  0.00    +0.068 A 
ATOM     32  C   UNK A   1       8.596   1.263  24.063  0.00  0.00    +0.029 A 
ATOM     33  C   UNK A   1       8.806   2.638  24.231  0.00  0.00    +0.017 A 
ATOM     34  C   UNK A   1       8.232   3.529  23.339  0.00  0.00    +0.018 A 
ATOM     35 BR   UNK A   1       8.528   5.384  23.527  0.00  0.00    -0.050 Br
ATOM     36  C   UNK A   1       7.453   3.051  22.294  0.00  0.00    +0.017 A 
ATOM     37  C   UNK A   1       7.275   1.667  22.122  0.00  0.00    +0.029 A 
ENDBRANCH  30  31
BRANCH  30  38
ATOM     38  O   UNK A   1       6.421  -1.195  22.741  0.00  0.00    -0.284 OA
ATOM     39  H   UNK A   1       6.087  -1.310  23.654  0.00  0.00    +0.245 HD
ENDBRANCH  30  38
ENDBRANCH  27  30
ENDBRANCH  26  27
ENDBRANCH  25  26
ENDBRANCH   1  25
TORSDOF 18
ENDMDL
MODEL 4
REMARK VINA RESULT:      -6.0      2.587      5.214
REMARK  Name = 
REMARK  18 active torsions:
REMARK  status: ('A' for Active; 'I' for Inactive)
REMARK    1  A    between atoms: N_1  and  C_2
REMARK    2  A    between atoms: C_2  and  C_4
REMARK    3  A    between atoms: C_2  and  C_32
REMARK    4  A    between atoms: C_4  and  C_5
REMARK    5  A    between atoms: C_5  and  C_6
REMARK    6  A    between atoms: N_8  and  C_9
REMARK    7  A    between atoms: C_9  and  C_11
REMARK    8  A    between atoms: C_9  and  C_25
REMARK    9  A    between atoms: C_11  and  S_12
REMARK   10  A    between atoms: S_12  and  C_13
REMARK   11  A    between atoms: C_13  and  O_15
REMARK   12  A    between atoms: C_13  and  N_16
REMARK   13  A    between atoms: N_16  and  O_17
REMARK   14  A    between atoms: N_16  and  C_18
REMARK   15  A    between atoms: N_27  and  CA_28
REMARK   16  A    between atoms: CA_28  and  C_29
REMARK   17  A    between atoms: C_29  and  O_30
REMARK   18  A    between atoms: C_32  and  O_33
REMARK                            x       y       z     vdW  Elec       q    Type
REMARK                         _______ _______ _______ _____ _____    ______ ____
ROOT
ATOM      1  C   UNK A   1       7.306  -3.664  22.967  0.00  0.00    +0.169 C 
ENDROOT
BRANCH   1   3
ATOM      2  C   UNK A   1       8.376  -4.904  24.862  0.00  0.00    +0.214 C 
ATOM      3  N   UNK A   1       7.370  -4.101  24.368  0.00  0.00    -0.303 N 
ATOM      4  H   UNK A   1       6.967  -3.452  25.028  0.00  0.00    +0.149 HD
ATOM      5  O   UNK A   1       9.073  -5.642  24.175  0.00  0.00    -0.276 OA
BRANCH   2   6
ATOM      6  C   UNK A   1       8.549  -4.794  26.375  0.00  0.00    +0.098 C 
BRANCH   6   7
ATOM      7  C   UNK A   1       7.349  -4.205  27.127  0.00  0.00    +0.039 C 
BRANCH   7   8
ATOM      8  C   UNK A   1       6.466  -5.270  27.798  0.00  0.00    +0.161 C 
BRANCH   8   9
ATOM      9  N   UNK A   1       7.286  -6.382  28.315  0.00  0.00    -0.318 NA
ATOM     10  H   UNK A   1       7.092  -6.518  29.307  0.00  0.00    +0.119 HD
ATOM     11  H   UNK A   1       7.026  -7.259  27.859  0.00  0.00    +0.119 HD
ENDBRANCH   8   9
BRANCH   8  12
ATOM     12  C   UNK A   1       5.404  -5.813  26.811  0.00  0.00    +0.322 C 
ATOM     13  O   UNK A   1       5.146  -6.996  26.620  0.00  0.00    -0.249 OA
BRANCH  12  14
ATOM     14  O   UNK A   1       4.740  -4.837  26.142  0.00  0.00    -0.480 OA
ATOM     15  H   UNK A   1       4.113  -4.321  26.682  0.00  0.00    +0.295 HD
ENDBRANCH  12  14
ENDBRANCH   8  12
ENDBRANCH   7   8
ENDBRANCH   6   7
ENDBRANCH   2   6
ENDBRANCH   1   3
BRANCH   1  16
ATOM     16  C   UNK A   1       6.043  -4.341  22.360  0.00  0.00    +0.235 C 
ATOM     17  N   GLY A   2       5.235  -5.008  23.266  0.00  0.00    -0.303 N 
ATOM     18  H   GLY A   2       5.643  -5.314  24.140  0.00  0.00    +0.149 HD
ATOM     19  O   UNK A   1       5.691  -4.211  21.196  0.00  0.00    -0.274 OA
BRANCH  17  20
ATOM     20  CA  GLY A   2       4.051  -5.739  22.786  0.00  0.00    +0.224 C 
BRANCH  20  21
ATOM     21  C   GLY A   2       2.718  -5.224  23.342  0.00  0.00    +0.322 C 
ATOM     22  OXT GLY A   2       2.626  -4.494  24.319  0.00  0.00    -0.249 OA
BRANCH  21  23
ATOM     23  O   GLY A   2       1.639  -5.604  22.619  0.00  0.00    -0.480 OA
ATOM     24  H   GLY A   2       0.873  -5.051  22.858  0.00  0.00    +0.295 HD
ENDBRANCH  21  23
ENDBRANCH  20  21
ENDBRANCH  17  20
ENDBRANCH   1  16
BRANCH   1  25
ATOM     25  C   UNK A   1       7.378  -2.168  22.641  0.00  0.00    +0.105 C 
BRANCH  25  26
ATOM     26  S   UNK A   1       8.966  -1.567  21.937  0.00  0.00    -0.104 S 
BRANCH  26  27
ATOM     27  C   UNK A   1      10.129  -1.662  23.340  0.00  0.00    +0.299 C 
BRANCH  27  28
ATOM     28  O   UNK A   1      10.389  -2.986  23.747  0.00  0.00    -0.362 OA
ATOM     29  H   UNK A   1       9.545  -3.258  24.145  0.00  0.00    +0.213 HD
ENDBRANCH  27  28
BRANCH  27  30
ATOM     30  N   UNK A   1       9.730  -0.738  24.413  0.00  0.00    -0.217 N 
BRANCH  30  31
ATOM     31  C   UNK A   1       9.570   0.651  24.370  0.00  0.00    +0.068 A 
ATOM     32  C   UNK A   1      10.576   1.424  23.745  0.00  0.00    +0.029 A 
ATOM     33  C   UNK A   1      10.490   2.816  23.606  0.00  0.00    +0.017 A 
ATOM     34  C   UNK A   1       9.390   3.485  24.117  0.00  0.00    +0.018 A 
ATOM     35 BR   UNK A   1       9.237   5.356  23.912  0.00  0.00    -0.050 Br
ATOM     36  C   UNK A   1       8.389   2.772  24.762  0.00  0.00    +0.017 A 
ATOM     37  C   UNK A   1       8.476   1.373  24.869  0.00  0.00    +0.029 A 
ENDBRANCH  30  31
BRANCH  30  38
ATOM     38  O   UNK A   1       9.037  -1.430  25.437  0.00  0.00    -0.284 OA
ATOM     39  H   UNK A   1       8.312  -1.899  24.977  0.00  0.00    +0.245 HD
ENDBRANCH  30  38
ENDBRANCH  27  30
ENDBRANCH  26  27
ENDBRANCH  25  26
ENDBRANCH   1  25
TORSDOF 18
ENDMDL
MODEL 5
REMARK VINA RESULT:      -6.0      2.249      3.825
REMARK  Name = 
REMARK  18 active torsions:
REMARK  status: ('A' for Active; 'I' for Inactive)
REMARK    1  A    between atoms: N_1  and  C_2
REMARK    2  A    between atoms: C_2  and  C_4
REMARK    3  A    between atoms: C_2  and  C_32
REMARK    4  A    between atoms: C_4  and  C_5
REMARK    5  A    between atoms: C_5  and  C_6
REMARK    6  A    between atoms: N_8  and  C_9
REMARK    7  A    between atoms: C_9  and  C_11
REMARK    8  A    between atoms: C_9  and  C_25
REMARK    9  A    between atoms: C_11  and  S_12
REMARK   10  A    between atoms: S_12  and  C_13
REMARK   11  A    between atoms: C_13  and  O_15
REMARK   12  A    between atoms: C_13  and  N_16
REMARK   13  A    between atoms: N_16  and  O_17
REMARK   14  A    between atoms: N_16  and  C_18
REMARK   15  A    between atoms: N_27  and  CA_28
REMARK   16  A    between atoms: CA_28  and  C_29
REMARK   17  A    between atoms: C_29  and  O_30
REMARK   18  A    between atoms: C_32  and  O_33
REMARK                            x       y       z     vdW  Elec       q    Type
REMARK                         _______ _______ _______ _____ _____    ______ ____
ROOT
ATOM      1  C   UNK A   1       9.185  -2.402  24.160  0.00  0.00    +0.169 C 
ENDROOT
BRANCH   1   3
ATOM      2  C   UNK A   1       8.770  -4.568  25.347  0.00  0.00    +0.214 C 
ATOM      3  N   UNK A   1       8.524  -3.221  25.183  0.00  0.00    -0.303 N 
ATOM      4  H   UNK A   1       8.273  -2.720  26.023  0.00  0.00    +0.149 HD
ATOM      5  O   UNK A   1       9.224  -5.299  24.473  0.00  0.00    -0.276 OA
BRANCH   2   6
ATOM      6  C   UNK A   1       8.416  -5.083  26.740  0.00  0.00    +0.098 C 
BRANCH   6   7
ATOM      7  C   UNK A   1       6.919  -5.092  27.070  0.00  0.00    +0.039 C 
BRANCH   7   8
ATOM      8  C   UNK A   1       6.065  -5.816  26.015  0.00  0.00    +0.161 C 
BRANCH   8   9
ATOM      9  N   UNK A   1       5.477  -4.852  25.066  0.00  0.00    -0.318 NA
ATOM     10  H   UNK A   1       4.582  -5.207  24.729  0.00  0.00    +0.119 HD
ATOM     11  H   UNK A   1       5.265  -3.971  25.539  0.00  0.00    +0.119 HD
ENDBRANCH   8   9
BRANCH   8  12
ATOM     12  C   UNK A   1       4.946  -6.650  26.683  0.00  0.00    +0.322 C 
ATOM     13  O   UNK A   1       3.784  -6.725  26.298  0.00  0.00    -0.249 OA
BRANCH  12  14
ATOM     14  O   UNK A   1       5.362  -7.333  27.778  0.00  0.00    -0.480 OA
ATOM     15  H   UNK A   1       4.876  -7.131  28.599  0.00  0.00    +0.295 HD
ENDBRANCH  12  14
ENDBRANCH   8  12
ENDBRANCH   7   8
ENDBRANCH   6   7
ENDBRANCH   2   6
ENDBRANCH   1   3
BRANCH   1  16
ATOM     16  C   UNK A   1       8.383  -2.620  22.845  0.00  0.00    +0.235 C 
ATOM     17  N   GLY A   2       7.202  -3.332  22.983  0.00  0.00    -0.303 N 
ATOM     18  H   GLY A   2       7.097  -3.938  23.786  0.00  0.00    +0.149 HD
ATOM     19  O   UNK A   1       8.675  -2.112  21.772  0.00  0.00    -0.274 OA
BRANCH  17  20
ATOM     20  CA  GLY A   2       6.399  -3.652  21.792  0.00  0.00    +0.224 C 
BRANCH  20  21
ATOM     21  C   GLY A   2       6.351  -5.144  21.440  0.00  0.00    +0.322 C 
ATOM     22  OXT GLY A   2       5.920  -5.578  20.382  0.00  0.00    -0.249 OA
BRANCH  21  23
ATOM     23  O   GLY A   2       6.882  -5.949  22.390  0.00  0.00    -0.480 OA
ATOM     24  H   GLY A   2       6.222  -6.114  23.087  0.00  0.00    +0.295 HD
ENDBRANCH  21  23
ENDBRANCH  20  21
ENDBRANCH  17  20
ENDBRANCH   1  16
BRANCH   1  25
ATOM     25  C   UNK A   1       9.451  -0.917  24.438  0.00  0.00    +0.105 C 
BRANCH  25  26
ATOM     26  S   UNK A   1       8.053   0.038  25.151  0.00  0.00    -0.104 S 
BRANCH  26  27
ATOM     27  C   UNK A   1       7.195   0.714  23.689  0.00  0.00    +0.299 C 
BRANCH  27  28
ATOM     28  O   UNK A   1       6.425  -0.251  23.011  0.00  0.00    -0.362 OA
ATOM     29  H   UNK A   1       5.520   0.095  23.099  0.00  0.00    +0.213 HD
ENDBRANCH  27  28
BRANCH  27  30
ATOM     30  N   UNK A   1       8.123   1.487  22.850  0.00  0.00    -0.217 N 
BRANCH  30  31
ATOM     31  C   UNK A   1       8.949   2.560  23.202  0.00  0.00    +0.068 A 
ATOM     32  C   UNK A   1      10.347   2.405  23.062  0.00  0.00    +0.029 A 
ATOM     33  C   UNK A   1      11.259   3.433  23.341  0.00  0.00    +0.017 A 
ATOM     34  C   UNK A   1      10.791   4.654  23.797  0.00  0.00    +0.018 A 
ATOM     35 BR   UNK A   1      11.997   6.063  24.148  0.00  0.00    -0.050 Br
ATOM     36  C   UNK A   1       9.427   4.845  23.976  0.00  0.00    +0.017 A 
ATOM     37  C   UNK A   1       8.523   3.814  23.664  0.00  0.00    +0.029 A 
ENDBRANCH  30  31
BRANCH  30  38
ATOM     38  O   UNK A   1       8.492   0.747  21.699  0.00  0.00    -0.284 OA
ATOM     39  H   UNK A   1       7.679   0.268  21.438  0.00  0.00    +0.245 HD
ENDBRANCH  30  38
ENDBRANCH  27  30
ENDBRANCH  26  27
ENDBRANCH  25  26
ENDBRANCH   1  25
TORSDOF 18
ENDMDL
MODEL 6
REMARK VINA RESULT:      -6.0      2.864      5.481
REMARK  Name = 
REMARK  18 active torsions:
REMARK  status: ('A' for Active; 'I' for Inactive)
REMARK    1  A    between atoms: N_1  and  C_2
REMARK    2  A    between atoms: C_2  and  C_4
REMARK    3  A    between atoms: C_2  and  C_32
REMARK    4  A    between atoms: C_4  and  C_5
REMARK    5  A    between atoms: C_5  and  C_6
REMARK    6  A    between atoms: N_8  and  C_9
REMARK    7  A    between atoms: C_9  and  C_11
REMARK    8  A    between atoms: C_9  and  C_25
REMARK    9  A    between atoms: C_11  and  S_12
REMARK   10  A    between atoms: S_12  and  C_13
REMARK   11  A    between atoms: C_13  and  O_15
REMARK   12  A    between atoms: C_13  and  N_16
REMARK   13  A    between atoms: N_16  and  O_17
REMARK   14  A    between atoms: N_16  and  C_18
REMARK   15  A    between atoms: N_27  and  CA_28
REMARK   16  A    between atoms: CA_28  and  C_29
REMARK   17  A    between atoms: C_29  and  O_30
REMARK   18  A    between atoms: C_32  and  O_33
REMARK                            x       y       z     vdW  Elec       q    Type
REMARK                         _______ _______ _______ _____ _____    ______ ____
ROOT
ATOM      1  C   UNK A   1       6.794  -4.328  25.142  0.00  0.00    +0.169 C 
ENDROOT
BRANCH   1   3
ATOM      2  C   UNK A   1       4.912  -4.658  23.522  0.00  0.00    +0.214 C 
ATOM      3  N   UNK A   1       5.578  -5.007  24.679  0.00  0.00    -0.303 N 
ATOM      4  H   UNK A   1       5.517  -5.981  24.939  0.00  0.00    +0.149 HD
ATOM      5  O   UNK A   1       4.996  -3.562  22.980  0.00  0.00    -0.276 OA
BRANCH   2   6
ATOM      6  C   UNK A   1       4.040  -5.780  22.965  0.00  0.00    +0.098 C 
BRANCH   6   7
ATOM      7  C   UNK A   1       2.563  -5.721  23.373  0.00  0.00    +0.039 C 
BRANCH   7   8
ATOM      8  C   UNK A   1       2.302  -6.241  24.797  0.00  0.00    +0.161 C 
BRANCH   8   9
ATOM      9  N   UNK A   1       2.678  -5.228  25.802  0.00  0.00    -0.318 NA
ATOM     10  H   UNK A   1       2.313  -4.317  25.523  0.00  0.00    +0.119 HD
ATOM     11  H   UNK A   1       2.240  -5.439  26.701  0.00  0.00    +0.119 HD
ENDBRANCH   8   9
BRANCH   8  12
ATOM     12  C   UNK A   1       3.075  -7.556  25.059  0.00  0.00    +0.322 C 
ATOM     13  O   UNK A   1       2.817  -8.646  24.562  0.00  0.00    -0.249 OA
BRANCH  12  14
ATOM     14  O   UNK A   1       4.115  -7.409  25.917  0.00  0.00    -0.480 OA
ATOM     15  H   UNK A   1       4.377  -6.486  26.092  0.00  0.00    +0.295 HD
ENDBRANCH  12  14
ENDBRANCH   8  12
ENDBRANCH   7   8
ENDBRANCH   6   7
ENDBRANCH   2   6
ENDBRANCH   1   3
BRANCH   1  16
ATOM     16  C   UNK A   1       6.891  -4.605  26.669  0.00  0.00    +0.235 C 
ATOM     17  N   GLY A   2       5.706  -4.984  27.279  0.00  0.00    -0.303 N 
ATOM     18  H   GLY A   2       4.834  -4.737  26.829  0.00  0.00    +0.149 HD
ATOM     19  O   UNK A   1       7.940  -4.618  27.297  0.00  0.00    -0.274 OA
BRANCH  17  20
ATOM     20  CA  GLY A   2       5.671  -5.205  28.733  0.00  0.00    +0.224 C 
BRANCH  20  21
ATOM     21  C   GLY A   2       5.912  -6.658  29.161  0.00  0.00    +0.322 C 
ATOM     22  OXT GLY A   2       6.440  -6.975  30.217  0.00  0.00    -0.249 OA
BRANCH  21  23
ATOM     23  O   GLY A   2       5.436  -7.573  28.286  0.00  0.00    -0.480 OA
ATOM     24  H   GLY A   2       4.629  -7.231  27.860  0.00  0.00    +0.295 HD
ENDBRANCH  21  23
ENDBRANCH  20  21
ENDBRANCH  17  20
ENDBRANCH   1  16
BRANCH   1  25
ATOM     25  C   UNK A   1       8.123  -4.585  24.419  0.00  0.00    +0.105 C 
BRANCH  25  26
ATOM     26  S   UNK A   1       9.191  -3.116  24.140  0.00  0.00    -0.104 S 
BRANCH  26  27
ATOM     27  C   UNK A   1       8.293  -2.157  22.873  0.00  0.00    +0.299 C 
BRANCH  27  28
ATOM     28  O   UNK A   1       7.613  -2.973  21.948  0.00  0.00    -0.362 OA
ATOM     29  H   UNK A   1       7.008  -3.482  22.516  0.00  0.00    +0.213 HD
ENDBRANCH  27  28
BRANCH  27  30
ATOM     30  N   UNK A   1       9.161  -1.124  22.287  0.00  0.00    -0.217 N 
BRANCH  30  31
ATOM     31  C   UNK A   1       9.345   0.205  22.683  0.00  0.00    +0.068 A 
ATOM     32  C   UNK A   1       8.589   1.209  22.036  0.00  0.00    +0.029 A 
ATOM     33  C   UNK A   1       8.663   2.564  22.389  0.00  0.00    +0.017 A 
ATOM     34  C   UNK A   1       9.525   2.959  23.397  0.00  0.00    +0.018 A 
ATOM     35 BR   UNK A   1       9.618   4.773  23.911  0.00  0.00    -0.050 Br
ATOM     36  C   UNK A   1      10.309   2.012  24.043  0.00  0.00    +0.017 A 
ATOM     37  C   UNK A   1      10.202   0.654  23.698  0.00  0.00    +0.029 A 
ENDBRANCH  30  31
BRANCH  30  38
ATOM     38  O   UNK A   1      10.203  -1.717  21.531  0.00  0.00    -0.284 OA
ATOM     39  H   UNK A   1       9.761  -2.401  20.988  0.00  0.00    +0.245 HD
ENDBRANCH  30  38
ENDBRANCH  27  30
ENDBRANCH  26  27
ENDBRANCH  25  26
ENDBRANCH   1  25
TORSDOF 18
ENDMDL
MODEL 7
REMARK VINA RESULT:      -5.9      2.662      4.473
REMARK  Name = 
REMARK  18 active torsions:
REMARK  status: ('A' for Active; 'I' for Inactive)
REMARK    1  A    between atoms: N_1  and  C_2
REMARK    2  A    between atoms: C_2  and  C_4
REMARK    3  A    between atoms: C_2  and  C_32
REMARK    4  A    between atoms: C_4  and  C_5
REMARK    5  A    between atoms: C_5  and  C_6
REMARK    6  A    between atoms: N_8  and  C_9
REMARK    7  A    between atoms: C_9  and  C_11
REMARK    8  A    between atoms: C_9  and  C_25
REMARK    9  A    between atoms: C_11  and  S_12
REMARK   10  A    between atoms: S_12  and  C_13
REMARK   11  A    between atoms: C_13  and  O_15
REMARK   12  A    between atoms: C_13  and  N_16
REMARK   13  A    between atoms: N_16  and  O_17
REMARK   14  A    between atoms: N_16  and  C_18
REMARK   15  A    between atoms: N_27  and  CA_28
REMARK   16  A    between atoms: CA_28  and  C_29
REMARK   17  A    between atoms: C_29  and  O_30
REMARK   18  A    between atoms: C_32  and  O_33
REMARK                            x       y       z     vdW  Elec       q    Type
REMARK                         _______ _______ _______ _____ _____    ______ ____
ROOT
ATOM      1  C   UNK A   1       6.395  -2.042  25.813  0.00  0.00    +0.169 C 
ENDROOT
BRANCH   1   3
ATOM      2  C   UNK A   1       3.962  -2.610  25.631  0.00  0.00    +0.214 C 
ATOM      3  N   UNK A   1       5.290  -2.964  25.520  0.00  0.00    -0.303 N 
ATOM      4  H   UNK A   1       5.498  -3.657  24.816  0.00  0.00    +0.149 HD
ATOM      5  O   UNK A   1       3.547  -1.688  26.325  0.00  0.00    -0.276 OA
BRANCH   2   6
ATOM      6  C   UNK A   1       3.030  -3.488  24.799  0.00  0.00    +0.098 C 
BRANCH   6   7
ATOM      7  C   UNK A   1       3.501  -4.934  24.601  0.00  0.00    +0.039 C 
BRANCH   7   8
ATOM      8  C   UNK A   1       3.769  -5.293  23.130  0.00  0.00    +0.161 C 
BRANCH   8   9
ATOM      9  N   UNK A   1       2.903  -6.405  22.696  0.00  0.00    -0.318 NA
ATOM     10  H   UNK A   1       2.082  -6.034  22.217  0.00  0.00    +0.119 HD
ATOM     11  H   UNK A   1       3.387  -6.985  22.007  0.00  0.00    +0.119 HD
ENDBRANCH   8   9
BRANCH   8  12
ATOM     12  C   UNK A   1       5.255  -5.665  22.911  0.00  0.00    +0.322 C 
ATOM     13  O   UNK A   1       5.777  -5.914  21.830  0.00  0.00    -0.249 OA
BRANCH  12  14
ATOM     14  O   UNK A   1       5.980  -5.691  24.057  0.00  0.00    -0.480 OA
ATOM     15  H   UNK A   1       5.753  -6.414  24.671  0.00  0.00    +0.295 HD
ENDBRANCH  12  14
ENDBRANCH   8  12
ENDBRANCH   7   8
ENDBRANCH   6   7
ENDBRANCH   2   6
ENDBRANCH   1   3
BRANCH   1  16
ATOM     16  C   UNK A   1       7.601  -2.930  26.234  0.00  0.00    +0.235 C 
ATOM     17  N   GLY A   2       7.416  -4.294  26.075  0.00  0.00    -0.303 N 
ATOM     18  H   GLY A   2       6.470  -4.651  26.040  0.00  0.00    +0.149 HD
ATOM     19  O   UNK A   1       8.690  -2.489  26.569  0.00  0.00    -0.274 OA
BRANCH  17  20
ATOM     20  CA  GLY A   2       8.469  -5.227  26.505  0.00  0.00    +0.224 C 
BRANCH  20  21
ATOM     21  C   GLY A   2       9.488  -5.583  25.415  0.00  0.00    +0.322 C 
ATOM     22  OXT GLY A   2       9.187  -5.808  24.252  0.00  0.00    -0.249 OA
BRANCH  21  23
ATOM     23  O   GLY A   2      10.772  -5.573  25.841  0.00  0.00    -0.480 OA
ATOM     24  H   GLY A   2      11.241  -6.351  25.488  0.00  0.00    +0.295 HD
ENDBRANCH  21  23
ENDBRANCH  20  21
ENDBRANCH  17  20
ENDBRANCH   1  16
BRANCH   1  25
ATOM     25  C   UNK A   1       6.787  -0.983  24.776  0.00  0.00    +0.105 C 
BRANCH  25  26
ATOM     26  S   UNK A   1       6.500  -1.426  23.015  0.00  0.00    -0.104 S 
BRANCH  26  27
ATOM     27  C   UNK A   1       7.930  -2.478  22.592  0.00  0.00    +0.299 C 
BRANCH  27  28
ATOM     28  O   UNK A   1       7.747  -3.825  22.963  0.00  0.00    -0.362 OA
ATOM     29  H   UNK A   1       6.874  -4.034  22.589  0.00  0.00    +0.213 HD
ENDBRANCH  27  28
BRANCH  27  30
ATOM     30  N   UNK A   1       9.186  -1.862  23.046  0.00  0.00    -0.217 N 
BRANCH  30  31
ATOM     31  C   UNK A   1       9.559  -0.513  23.049  0.00  0.00    +0.068 A 
ATOM     32  C   UNK A   1      10.071   0.040  24.245  0.00  0.00    +0.029 A 
ATOM     33  C   UNK A   1      10.517   1.365  24.341  0.00  0.00    +0.017 A 
ATOM     34  C   UNK A   1      10.440   2.192  23.232  0.00  0.00    +0.018 A 
ATOM     35 BR   UNK A   1      11.065   3.971  23.329  0.00  0.00    -0.050 Br
ATOM     36  C   UNK A   1       9.919   1.701  22.043  0.00  0.00    +0.017 A 
ATOM     37  C   UNK A   1       9.502   0.362  21.954  0.00  0.00    +0.029 A 
ENDBRANCH  30  31
BRANCH  30  38
ATOM     38  O   UNK A   1       9.861  -2.714  23.955  0.00  0.00    -0.284 OA
ATOM     39  H   UNK A   1       9.364  -2.629  24.795  0.00  0.00    +0.245 HD
ENDBRANCH  30  38
ENDBRANCH  27  30
ENDBRANCH  26  27
ENDBRANCH  25  26
ENDBRANCH   1  25
TORSDOF 18
ENDMDL
MODEL 8
REMARK VINA RESULT:      -5.9      2.484      4.408
REMARK  Name = 
REMARK  18 active torsions:
REMARK  status: ('A' for Active; 'I' for Inactive)
REMARK    1  A    between atoms: N_1  and  C_2
REMARK    2  A    between atoms: C_2  and  C_4
REMARK    3  A    between atoms: C_2  and  C_32
REMARK    4  A    between atoms: C_4  and  C_5
REMARK    5  A    between atoms: C_5  and  C_6
REMARK    6  A    between atoms: N_8  and  C_9
REMARK    7  A    between atoms: C_9  and  C_11
REMARK    8  A    between atoms: C_9  and  C_25
REMARK    9  A    between atoms: C_11  and  S_12
REMARK   10  A    between atoms: S_12  and  C_13
REMARK   11  A    between atoms: C_13  and  O_15
REMARK   12  A    between atoms: C_13  and  N_16
REMARK   13  A    between atoms: N_16  and  O_17
REMARK   14  A    between atoms: N_16  and  C_18
REMARK   15  A    between atoms: N_27  and  CA_28
REMARK   16  A    between atoms: CA_28  and  C_29
REMARK   17  A    between atoms: C_29  and  O_30
REMARK   18  A    between atoms: C_32  and  O_33
REMARK                            x       y       z     vdW  Elec       q    Type
REMARK                         _______ _______ _______ _____ _____    ______ ____
ROOT
ATOM      1  C   UNK A   1       5.725  -3.147  23.364  0.00  0.00    +0.169 C 
ENDROOT
BRANCH   1   3
ATOM      2  C   UNK A   1       4.052  -4.943  23.867  0.00  0.00    +0.214 C 
ATOM      3  N   UNK A   1       4.819  -3.868  24.267  0.00  0.00    -0.303 N 
ATOM      4  H   UNK A   1       5.110  -3.877  25.234  0.00  0.00    +0.149 HD
ATOM      5  O   UNK A   1       3.734  -5.171  22.705  0.00  0.00    -0.276 OA
BRANCH   2   6
ATOM      6  C   UNK A   1       3.622  -5.842  25.024  0.00  0.00    +0.098 C 
BRANCH   6   7
ATOM      7  C   UNK A   1       4.753  -6.639  25.685  0.00  0.00    +0.039 C 
BRANCH   7   8
ATOM      8  C   UNK A   1       4.929  -6.323  27.180  0.00  0.00    +0.161 C 
BRANCH   8   9
ATOM      9  N   UNK A   1       3.723  -5.671  27.723  0.00  0.00    -0.318 NA
ATOM     10  H   UNK A   1       2.945  -5.792  27.074  0.00  0.00    +0.119 HD
ATOM     11  H   UNK A   1       3.432  -6.125  28.592  0.00  0.00    +0.119 HD
ENDBRANCH   8   9
BRANCH   8  12
ATOM     12  C   UNK A   1       6.167  -5.425  27.417  0.00  0.00    +0.322 C 
ATOM     13  O   UNK A   1       7.260  -5.808  27.819  0.00  0.00    -0.249 OA
BRANCH  12  14
ATOM     14  O   UNK A   1       5.949  -4.118  27.127  0.00  0.00    -0.480 OA
ATOM     15  H   UNK A   1       5.010  -3.862  27.064  0.00  0.00    +0.295 HD
ENDBRANCH  12  14
ENDBRANCH   8  12
ENDBRANCH   7   8
ENDBRANCH   6   7
ENDBRANCH   2   6
ENDBRANCH   1   3
BRANCH   1  16
ATOM     16  C   UNK A   1       5.983  -1.762  24.023  0.00  0.00    +0.235 C 
ATOM     17  N   GLY A   2       6.208  -0.719  23.139  0.00  0.00    -0.303 N 
ATOM     18  H   GLY A   2       6.529  -0.940  22.206  0.00  0.00    +0.149 HD
ATOM     19  O   UNK A   1       5.881  -1.545  25.221  0.00  0.00    -0.274 OA
BRANCH  17  20
ATOM     20  CA  GLY A   2       6.529   0.620  23.659  0.00  0.00    +0.224 C 
BRANCH  20  21
ATOM     21  C   GLY A   2       6.448   1.743  22.617  0.00  0.00    +0.322 C 
ATOM     22  OXT GLY A   2       7.342   1.999  21.825  0.00  0.00    -0.249 OA
BRANCH  21  23
ATOM     23  O   GLY A   2       5.265   2.400  22.610  0.00  0.00    -0.480 OA
ATOM     24  H   GLY A   2       4.653   1.967  21.988  0.00  0.00    +0.295 HD
ENDBRANCH  21  23
ENDBRANCH  20  21
ENDBRANCH  17  20
ENDBRANCH   1  16
BRANCH   1  25
ATOM     25  C   UNK A   1       7.022  -3.823  22.902  0.00  0.00    +0.105 C 
BRANCH  25  26
ATOM     26  S   UNK A   1       7.815  -4.964  24.104  0.00  0.00    -0.104 S 
BRANCH  26  27
ATOM     27  C   UNK A   1       9.442  -4.201  24.423  0.00  0.00    +0.299 C 
BRANCH  27  28
ATOM     28  O   UNK A   1      10.349  -5.083  25.043  0.00  0.00    -0.362 OA
ATOM     29  H   UNK A   1      11.197  -4.615  24.958  0.00  0.00    +0.213 HD
ENDBRANCH  27  28
BRANCH  27  30
ATOM     30  N   UNK A   1       9.287  -2.892  25.075  0.00  0.00    -0.217 N 
BRANCH  30  31
ATOM     31  C   UNK A   1       9.563  -1.615  24.574  0.00  0.00    +0.068 A 
ATOM     32  C   UNK A   1       9.532  -0.521  25.468  0.00  0.00    +0.029 A 
ATOM     33  C   UNK A   1       9.840   0.789  25.078  0.00  0.00    +0.017 A 
ATOM     34  C   UNK A   1      10.169   1.048  23.758  0.00  0.00    +0.018 A 
ATOM     35 BR   UNK A   1      10.619   2.800  23.217  0.00  0.00    -0.050 Br
ATOM     36  C   UNK A   1      10.188   0.010  22.837  0.00  0.00    +0.017 A 
ATOM     37  C   UNK A   1       9.905  -1.304  23.249  0.00  0.00    +0.029 A 
ENDBRANCH  30  31
BRANCH  30  38
ATOM     38  O   UNK A   1       8.359  -2.972  26.143  0.00  0.00    -0.284 OA
ATOM     39  H   UNK A   1       8.874  -3.325  26.897  0.00  0.00    +0.245 HD
ENDBRANCH  30  38
ENDBRANCH  27  30
ENDBRANCH  26  27
ENDBRANCH  25  26
ENDBRANCH   1  25
TORSDOF 18
ENDMDL
MODEL 9
REMARK VINA RESULT:      -5.8      3.517      7.339
REMARK  Name = 
REMARK  18 active torsions:
REMARK  status: ('A' for Active; 'I' for Inactive)
REMARK    1  A    between atoms: N_1  and  C_2
REMARK    2  A    between atoms: C_2  and  C_4
REMARK    3  A    between atoms: C_2  and  C_32
REMARK    4  A    between atoms: C_4  and  C_5
REMARK    5  A    between atoms: C_5  and  C_6
REMARK    6  A    between atoms: N_8  and  C_9
REMARK    7  A    between atoms: C_9  and  C_11
REMARK    8  A    between atoms: C_9  and  C_25
REMARK    9  A    between atoms: C_11  and  S_12
REMARK   10  A    between atoms: S_12  and  C_13
REMARK   11  A    between atoms: C_13  and  O_15
REMARK   12  A    between atoms: C_13  and  N_16
REMARK   13  A    between atoms: N_16  and  O_17
REMARK   14  A    between atoms: N_16  and  C_18
REMARK   15  A    between atoms: N_27  and  CA_28
REMARK   16  A    between atoms: CA_28  and  C_29
REMARK   17  A    between atoms: C_29  and  O_30
REMARK   18  A    between atoms: C_32  and  O_33
REMARK                            x       y       z     vdW  Elec       q    Type
REMARK                         _______ _______ _______ _____ _____    ______ ____
ROOT
ATOM      1  C   UNK A   1       9.638  -1.244  24.460  0.00  0.00    +0.169 C 
ENDROOT
BRANCH   1   3
ATOM      2  C   UNK A   1      10.140   0.953  23.366  0.00  0.00    +0.214 C 
ATOM      3  N   UNK A   1       9.321  -0.143  23.542  0.00  0.00    -0.303 N 
ATOM      4  H   UNK A   1       8.776  -0.413  22.736  0.00  0.00    +0.149 HD
ATOM      5  O   UNK A   1      10.972   1.332  24.182  0.00  0.00    -0.276 OA
BRANCH   2   6
ATOM      6  C   UNK A   1       9.912   1.671  22.038  0.00  0.00    +0.098 C 
BRANCH   6   7
ATOM      7  C   UNK A   1       8.505   1.518  21.448  0.00  0.00    +0.039 C 
BRANCH   7   8
ATOM      8  C   UNK A   1       7.560   2.675  21.816  0.00  0.00    +0.161 C 
BRANCH   8   9
ATOM      9  N   UNK A   1       8.312   3.801  22.400  0.00  0.00    -0.318 NA
ATOM     10  H   UNK A   1       8.461   3.634  23.395  0.00  0.00    +0.119 HD
ATOM     11  H   UNK A   1       9.245   3.859  21.986  0.00  0.00    +0.119 HD
ENDBRANCH   8   9
BRANCH   8  12
ATOM     12  C   UNK A   1       6.464   2.204  22.802  0.00  0.00    +0.322 C 
ATOM     13  O   UNK A   1       5.728   2.936  23.454  0.00  0.00    -0.249 OA
BRANCH  12  14
ATOM     14  O   UNK A   1       6.366   0.854  22.896  0.00  0.00    -0.480 OA
ATOM     15  H   UNK A   1       6.495   0.493  23.793  0.00  0.00    +0.295 HD
ENDBRANCH  12  14
ENDBRANCH   8  12
ENDBRANCH   7   8
ENDBRANCH   6   7
ENDBRANCH   2   6
ENDBRANCH   1   3
BRANCH   1  16
ATOM     16  C   UNK A   1       8.616  -1.144  25.628  0.00  0.00    +0.235 C 
ATOM     17  N   GLY A   2       7.472  -0.411  25.353  0.00  0.00    -0.303 N 
ATOM     18  H   GLY A   2       7.506   0.269  24.605  0.00  0.00    +0.149 HD
ATOM     19  O   UNK A   1       8.720  -1.753  26.682  0.00  0.00    -0.274 OA
BRANCH  17  20
ATOM     20  CA  GLY A   2       6.471  -0.198  26.410  0.00  0.00    +0.224 C 
BRANCH  20  21
ATOM     21  C   GLY A   2       5.016  -0.238  25.926  0.00  0.00    +0.322 C 
ATOM     22  OXT GLY A   2       4.293  -1.217  26.031  0.00  0.00    -0.249 OA
BRANCH  21  23
ATOM     23  O   GLY A   2       4.577   0.935  25.415  0.00  0.00    -0.480 OA
ATOM     24  H   GLY A   2       3.834   0.770  24.805  0.00  0.00    +0.295 HD
ENDBRANCH  21  23
ENDBRANCH  20  21
ENDBRANCH  17  20
ENDBRANCH   1  16
BRANCH   1  25
ATOM     25  C   UNK A   1       9.756  -2.672  23.911  0.00  0.00    +0.105 C 
BRANCH  25  26
ATOM     26  S   UNK A   1       8.227  -3.690  23.965  0.00  0.00    -0.104 S 
BRANCH  26  27
ATOM     27  C   UNK A   1       7.280  -3.132  22.508  0.00  0.00    +0.299 C 
BRANCH  27  28
ATOM     28  O   UNK A   1       6.916  -1.773  22.579  0.00  0.00    -0.362 OA
ATOM     29  H   UNK A   1       6.601  -1.683  23.495  0.00  0.00    +0.213 HD
ENDBRANCH  27  28
BRANCH  27  30
ATOM     30  N   UNK A   1       6.183  -4.066  22.209  0.00  0.00    -0.217 N 
BRANCH  30  31
ATOM     31  C   UNK A   1       5.353  -4.767  23.091  0.00  0.00    +0.068 A 
ATOM     32  C   UNK A   1       4.370  -4.045  23.805  0.00  0.00    +0.029 A 
ATOM     33  C   UNK A   1       3.459  -4.658  24.676  0.00  0.00    +0.017 A 
ATOM     34  C   UNK A   1       3.523  -6.027  24.877  0.00  0.00    +0.018 A 
ATOM     35 BR   UNK A   1       2.285  -6.879  26.020  0.00  0.00    -0.050 Br
ATOM     36  C   UNK A   1       4.489  -6.774  24.218  0.00  0.00    +0.017 A 
ATOM     37  C   UNK A   1       5.378  -6.150  23.326  0.00  0.00    +0.029 A 
ENDBRANCH  30  31
BRANCH  30  38
ATOM     38  O   UNK A   1       5.688  -3.853  20.899  0.00  0.00    -0.284 OA
ATOM     39  H   UNK A   1       5.966  -4.644  20.394  0.00  0.00    +0.245 HD
ENDBRANCH  30  38
ENDBRANCH  27  30
ENDBRANCH  26  27
ENDBRANCH  25  26
ENDBRANCH   1  25
TORSDOF 18
ENDMDL
