MODEL 1
REMARK VINA RESULT:      -4.6      0.000      0.000
REMARK  Name = 
REMARK  4 active torsions:
REMARK  status: ('A' for Active; 'I' for Inactive)
REMARK    1  A    between atoms: C_1  and  C_2
REMARK    2  A    between atoms: C_6  and  C_7
REMARK    3  A    between atoms: C_7  and  C_8
REMARK    4  A    between atoms: C_10  and  O_11
REMARK                            x       y       z     vdW  Elec       q    Type
REMARK                         _______ _______ _______ _____ _____    ______ ____
ROOT
ATOM      1  C   UNL     1       9.799  -2.368  24.263  0.00  0.00    +0.047 C 
ATOM      2  C   UNL     1       9.754  -1.133  23.411  0.00  0.00    -0.009 A 
ATOM      3  C   UNL     1      10.070   0.123  23.948  0.00  0.00    +0.123 A 
ATOM      4  C   UNL     1      10.120   1.273  23.143  0.00  0.00    -0.002 A 
ATOM      5  C   UNL     1       9.738   1.158  21.796  0.00  0.00    +0.007 A 
ATOM      6  C   UNL     1       9.369  -0.075  21.262  0.00  0.00    +0.001 A 
ATOM      7  C   UNL     1       9.395  -1.219  22.060  0.00  0.00    +0.007 A 
ENDROOT
BRANCH   3   8
ATOM      8  O   UNL     1      10.321   0.194  25.291  0.00  0.00    -0.506 OA
ATOM      9  H   UNL     1      10.327   1.137  25.532  0.00  0.00    +0.292 HD
ENDBRANCH   3   8
BRANCH   4  10
ATOM     10  C   UNL     1      10.621   2.604  23.655  0.00  0.00    +0.065 C 
BRANCH  10  11
ATOM     11  C   UNL     1       9.587   3.627  24.035  0.00  0.00    -0.030 C 
ATOM     12  C   UNL     1       8.529   3.473  24.842  0.00  0.00    +0.004 C 
ENDBRANCH  10  11
ENDBRANCH   4  10
TORSDOF 3
ENDMDL
MODEL 2
REMARK VINA RESULT:      -4.6      0.917      4.160
REMARK  Name = 
REMARK  4 active torsions:
REMARK  status: ('A' for Active; 'I' for Inactive)
REMARK    1  A    between atoms: C_1  and  C_2
REMARK    2  A    between atoms: C_6  and  C_7
REMARK    3  A    between atoms: C_7  and  C_8
REMARK    4  A    between atoms: C_10  and  O_11
REMARK                            x       y       z     vdW  Elec       q    Type
REMARK                         _______ _______ _______ _____ _____    ______ ____
ROOT
ATOM      1  C   UNL     1      10.545   2.692  23.730  0.00  0.00    +0.047 C 
ATOM      2  C   UNL     1      10.161   1.347  23.186  0.00  0.00    -0.009 A 
ATOM      3  C   UNL     1      10.148   0.213  24.010  0.00  0.00    +0.123 A 
ATOM      4  C   UNL     1       9.704  -1.032  23.537  0.00  0.00    -0.002 A 
ATOM      5  C   UNL     1       9.372  -1.146  22.177  0.00  0.00    +0.007 A 
ATOM      6  C   UNL     1       9.432  -0.039  21.332  0.00  0.00    +0.001 A 
ATOM      7  C   UNL     1       9.806   1.207  21.838  0.00  0.00    +0.007 A 
ENDROOT
BRANCH   3   8
ATOM      8  O   UNL     1      10.592   0.360  25.296  0.00  0.00    -0.506 OA
ATOM      9  H   UNL     1      10.473   1.296  25.535  0.00  0.00    +0.292 HD
ENDBRANCH   3   8
BRANCH   4  10
ATOM     10  C   UNL     1       9.518  -2.227  24.444  0.00  0.00    +0.065 C 
BRANCH  10  11
ATOM     11  C   UNL     1       8.686  -3.364  23.920  0.00  0.00    -0.030 C 
ATOM     12  C   UNL     1       8.544  -4.591  24.439  0.00  0.00    +0.004 C 
ENDBRANCH  10  11
ENDBRANCH   4  10
TORSDOF 3
ENDMDL
MODEL 3
REMARK VINA RESULT:      -4.3      1.872      4.850
REMARK  Name = 
REMARK  4 active torsions:
REMARK  status: ('A' for Active; 'I' for Inactive)
REMARK    1  A    between atoms: C_1  and  C_2
REMARK    2  A    between atoms: C_6  and  C_7
REMARK    3  A    between atoms: C_7  and  C_8
REMARK    4  A    between atoms: C_10  and  O_11
REMARK                            x       y       z     vdW  Elec       q    Type
REMARK                         _______ _______ _______ _____ _____    ______ ____
ROOT
ATOM      1  C   UNL     1      10.082   6.021  23.727  0.00  0.00    +0.047 C 
ATOM      2  C   UNL     1       9.571   4.664  24.117  0.00  0.00    -0.009 A 
ATOM      3  C   UNL     1      10.188   3.499  23.641  0.00  0.00    +0.123 A 
ATOM      4  C   UNL     1       9.779   2.226  24.069  0.00  0.00    -0.002 A 
ATOM      5  C   UNL     1       8.657   2.136  24.908  0.00  0.00    +0.007 A 
ATOM      6  C   UNL     1       7.999   3.284  25.346  0.00  0.00    +0.001 A 
ATOM      7  C   UNL     1       8.466   4.544  24.968  0.00  0.00    +0.007 A 
ENDROOT
BRANCH   3   8
ATOM      8  O   UNL     1      11.203   3.644  22.734  0.00  0.00    -0.506 OA
ATOM      9  H   UNL     1      11.540   4.553  22.825  0.00  0.00    +0.292 HD
ENDBRANCH   3   8
BRANCH   4  10
ATOM     10  C   UNL     1      10.531   0.966  23.707  0.00  0.00    +0.065 C 
BRANCH  10  11
ATOM     11  C   UNL     1      10.019   0.171  22.538  0.00  0.00    -0.030 C 
ATOM     12  C   UNL     1       9.303   0.607  21.493  0.00  0.00    +0.004 C 
ENDBRANCH  10  11
ENDBRANCH   4  10
TORSDOF 3
ENDMDL
MODEL 4
REMARK VINA RESULT:      -4.2      2.390      3.856
REMARK  Name = 
REMARK  4 active torsions:
REMARK  status: ('A' for Active; 'I' for Inactive)
REMARK    1  A    between atoms: C_1  and  C_2
REMARK    2  A    between atoms: C_6  and  C_7
REMARK    3  A    between atoms: C_7  and  C_8
REMARK    4  A    between atoms: C_10  and  O_11
REMARK                            x       y       z     vdW  Elec       q    Type
REMARK                         _______ _______ _______ _____ _____    ______ ____
ROOT
ATOM      1  C   UNL     1       8.119  -4.947  25.226  0.00  0.00    +0.047 C 
ATOM      2  C   UNL     1       7.843  -3.767  24.339  0.00  0.00    -0.009 A 
ATOM      3  C   UNL     1       8.894  -3.043  23.759  0.00  0.00    +0.123 A 
ATOM      4  C   UNL     1       8.650  -1.995  22.856  0.00  0.00    -0.002 A 
ATOM      5  C   UNL     1       7.319  -1.611  22.627  0.00  0.00    +0.007 A 
ATOM      6  C   UNL     1       6.266  -2.288  23.240  0.00  0.00    +0.001 A 
ATOM      7  C   UNL     1       6.525  -3.373  24.078  0.00  0.00    +0.007 A 
ENDROOT
BRANCH   3   8
ATOM      8  O   UNL     1      10.171  -3.387  24.108  0.00  0.00    -0.506 OA
ATOM      9  H   UNL     1      10.707  -2.575  24.071  0.00  0.00    +0.292 HD
ENDBRANCH   3   8
BRANCH   4  10
ATOM     10  C   UNL     1       9.757  -1.310  22.087  0.00  0.00    +0.065 C 
BRANCH  10  11
ATOM     11  C   UNL     1       9.441   0.023  21.469  0.00  0.00    -0.030 C 
ATOM     12  C   UNL     1       9.818   1.238  21.887  0.00  0.00    +0.004 C 
ENDBRANCH  10  11
ENDBRANCH   4  10
TORSDOF 3
ENDMDL
MODEL 5
REMARK VINA RESULT:      -4.2      2.088      3.146
REMARK  Name = 
REMARK  4 active torsions:
REMARK  status: ('A' for Active; 'I' for Inactive)
REMARK    1  A    between atoms: C_1  and  C_2
REMARK    2  A    between atoms: C_6  and  C_7
REMARK    3  A    between atoms: C_7  and  C_8
REMARK    4  A    between atoms: C_10  and  O_11
REMARK                            x       y       z     vdW  Elec       q    Type
REMARK                         _______ _______ _______ _____ _____    ______ ____
ROOT
ATOM      1  C   UNL     1       6.171  -1.757  24.747  0.00  0.00    +0.047 C 
ATOM      2  C   UNL     1       7.501  -1.717  24.051  0.00  0.00    -0.009 A 
ATOM      3  C   UNL     1       7.750  -0.790  23.029  0.00  0.00    +0.123 A 
ATOM      4  C   UNL     1       9.017  -0.680  22.432  0.00  0.00    -0.002 A 
ATOM      5  C   UNL     1      10.010  -1.599  22.808  0.00  0.00    +0.007 A 
ATOM      6  C   UNL     1       9.759  -2.562  23.785  0.00  0.00    +0.001 A 
ATOM      7  C   UNL     1       8.517  -2.608  24.418  0.00  0.00    +0.007 A 
ENDROOT
BRANCH   3   8
ATOM      8  O   UNL     1       6.711   0.002  22.624  0.00  0.00    -0.506 OA
ATOM      9  H   UNL     1       7.031   0.921  22.632  0.00  0.00    +0.292 HD
ENDBRANCH   3   8
BRANCH   4  10
ATOM     10  C   UNL     1       9.362   0.417  21.452  0.00  0.00    +0.065 C 
BRANCH  10  11
ATOM     11  C   UNL     1       9.815   1.731  22.024  0.00  0.00    -0.030 C 
ATOM     12  C   UNL     1      10.304   1.976  23.246  0.00  0.00    +0.004 C 
ENDBRANCH  10  11
ENDBRANCH   4  10
TORSDOF 3
ENDMDL
MODEL 6
REMARK VINA RESULT:      -4.2      1.708      2.074
REMARK  Name = 
REMARK  4 active torsions:
REMARK  status: ('A' for Active; 'I' for Inactive)
REMARK    1  A    between atoms: C_1  and  C_2
REMARK    2  A    between atoms: C_6  and  C_7
REMARK    3  A    between atoms: C_7  and  C_8
REMARK    4  A    between atoms: C_10  and  O_11
REMARK                            x       y       z     vdW  Elec       q    Type
REMARK                         _______ _______ _______ _____ _____    ______ ____
ROOT
ATOM      1  C   UNL     1       8.211  -0.703  25.057  0.00  0.00    +0.047 C 
ATOM      2  C   UNL     1       8.828   0.174  24.006  0.00  0.00    -0.009 A 
ATOM      3  C   UNL     1       9.122   1.518  24.272  0.00  0.00    +0.123 A 
ATOM      4  C   UNL     1       9.782   2.325  23.331  0.00  0.00    -0.002 A 
ATOM      5  C   UNL     1      10.047   1.784  22.062  0.00  0.00    +0.007 A 
ATOM      6  C   UNL     1       9.710   0.464  21.764  0.00  0.00    +0.001 A 
ATOM      7  C   UNL     1       9.121  -0.344  22.738  0.00  0.00    +0.007 A 
ENDROOT
BRANCH   3   8
ATOM      8  O   UNL     1       8.737   2.024  25.484  0.00  0.00    -0.506 OA
ATOM      9  H   UNL     1       7.816   2.325  25.389  0.00  0.00    +0.292 HD
ENDBRANCH   3   8
BRANCH   4  10
ATOM     10  C   UNL     1      10.262   3.722  23.650  0.00  0.00    +0.065 C 
BRANCH  10  11
ATOM     11  C   UNL     1      11.651   4.088  23.210  0.00  0.00    -0.030 C 
ATOM     12  C   UNL     1      12.345   5.196  23.501  0.00  0.00    +0.004 C 
ENDBRANCH  10  11
ENDBRANCH   4  10
TORSDOF 3
ENDMDL
MODEL 7
REMARK VINA RESULT:      -4.1      2.218      5.350
REMARK  Name = 
REMARK  4 active torsions:
REMARK  status: ('A' for Active; 'I' for Inactive)
REMARK    1  A    between atoms: C_1  and  C_2
REMARK    2  A    between atoms: C_6  and  C_7
REMARK    3  A    between atoms: C_7  and  C_8
REMARK    4  A    between atoms: C_10  and  O_11
REMARK                            x       y       z     vdW  Elec       q    Type
REMARK                         _______ _______ _______ _____ _____    ______ ____
ROOT
ATOM      1  C   UNL     1       8.478   6.570  24.392  0.00  0.00    +0.047 C 
ATOM      2  C   UNL     1       9.610   5.645  24.052  0.00  0.00    -0.009 A 
ATOM      3  C   UNL     1       9.408   4.260  23.968  0.00  0.00    +0.123 A 
ATOM      4  C   UNL     1      10.435   3.393  23.564  0.00  0.00    -0.002 A 
ATOM      5  C   UNL     1      11.714   3.932  23.348  0.00  0.00    +0.007 A 
ATOM      6  C   UNL     1      11.943   5.300  23.481  0.00  0.00    +0.001 A 
ATOM      7  C   UNL     1      10.892   6.156  23.813  0.00  0.00    +0.007 A 
ENDROOT
BRANCH   3   8
ATOM      8  O   UNL     1       8.171   3.779  24.303  0.00  0.00    -0.506 OA
ATOM      9  H   UNL     1       7.750   4.445  24.874  0.00  0.00    +0.292 HD
ENDBRANCH   3   8
BRANCH   4  10
ATOM     10  C   UNL     1      10.201   1.923  23.301  0.00  0.00    +0.065 C 
BRANCH  10  11
ATOM     11  C   UNL     1       9.706   1.540  21.934  0.00  0.00    -0.030 C 
ATOM     12  C   UNL     1       9.474   0.311  21.454  0.00  0.00    +0.004 C 
ENDBRANCH  10  11
ENDBRANCH   4  10
TORSDOF 3
ENDMDL
MODEL 8
REMARK VINA RESULT:      -4.1      2.083      2.640
REMARK  Name = 
REMARK  4 active torsions:
REMARK  status: ('A' for Active; 'I' for Inactive)
REMARK    1  A    between atoms: C_1  and  C_2
REMARK    2  A    between atoms: C_6  and  C_7
REMARK    3  A    between atoms: C_7  and  C_8
REMARK    4  A    between atoms: C_10  and  O_11
REMARK                            x       y       z     vdW  Elec       q    Type
REMARK                         _______ _______ _______ _____ _____    ______ ____
ROOT
ATOM      1  C   UNL     1      10.903   0.640  24.690  0.00  0.00    +0.047 C 
ATOM      2  C   UNL     1       9.932   1.058  23.625  0.00  0.00    -0.009 A 
ATOM      3  C   UNL     1       8.965   2.041  23.879  0.00  0.00    +0.123 A 
ATOM      4  C   UNL     1       8.110   2.507  22.867  0.00  0.00    -0.002 A 
ATOM      5  C   UNL     1       8.169   1.886  21.609  0.00  0.00    +0.007 A 
ATOM      6  C   UNL     1       9.089   0.869  21.358  0.00  0.00    +0.001 A 
ATOM      7  C   UNL     1       9.980   0.470  22.355  0.00  0.00    +0.007 A 
ENDROOT
BRANCH   3   8
ATOM      8  O   UNL     1       8.876   2.529  25.155  0.00  0.00    -0.506 OA
ATOM      9  H   UNL     1       7.929   2.611  25.365  0.00  0.00    +0.292 HD
ENDBRANCH   3   8
BRANCH   4  10
ATOM     10  C   UNL     1       7.177   3.680  23.067  0.00  0.00    +0.065 C 
BRANCH  10  11
ATOM     11  C   UNL     1       7.751   5.055  22.870  0.00  0.00    -0.030 C 
ATOM     12  C   UNL     1       7.361   5.996  22.000  0.00  0.00    +0.004 C 
ENDBRANCH  10  11
ENDBRANCH   4  10
TORSDOF 3
ENDMDL
MODEL 9
REMARK VINA RESULT:      -4.1      2.183      4.335
REMARK  Name = 
REMARK  4 active torsions:
REMARK  status: ('A' for Active; 'I' for Inactive)
REMARK    1  A    between atoms: C_1  and  C_2
REMARK    2  A    between atoms: C_6  and  C_7
REMARK    3  A    between atoms: C_7  and  C_8
REMARK    4  A    between atoms: C_10  and  O_11
REMARK                            x       y       z     vdW  Elec       q    Type
REMARK                         _______ _______ _______ _____ _____    ______ ____
ROOT
ATOM      1  C   UNL     1       6.278   2.439  22.631  0.00  0.00    +0.047 C 
ATOM      2  C   UNL     1       7.533   1.640  22.428  0.00  0.00    -0.009 A 
ATOM      3  C   UNL     1       7.526   0.244  22.555  0.00  0.00    +0.123 A 
ATOM      4  C   UNL     1       8.669  -0.523  22.280  0.00  0.00    -0.002 A 
ATOM      5  C   UNL     1       9.864   0.151  21.977  0.00  0.00    +0.007 A 
ATOM      6  C   UNL     1       9.899   1.542  21.902  0.00  0.00    +0.001 A 
ATOM      7  C   UNL     1       8.734   2.283  22.107  0.00  0.00    +0.007 A 
ENDROOT
BRANCH   3   8
ATOM      8  O   UNL     1       6.363  -0.350  22.965  0.00  0.00    -0.506 OA
ATOM      9  H   UNL     1       5.687   0.349  23.015  0.00  0.00    +0.292 HD
ENDBRANCH   3   8
BRANCH   4  10
ATOM     10  C   UNL     1       8.646  -2.034  22.243  0.00  0.00    +0.065 C 
BRANCH  10  11
ATOM     11  C   UNL     1       8.811  -2.756  23.550  0.00  0.00    -0.030 C 
ATOM     12  C   UNL     1       9.145  -2.243  24.742  0.00  0.00    +0.004 C 
ENDBRANCH  10  11
ENDBRANCH   4  10
TORSDOF 3
ENDMDL
