MODEL 1
REMARK VINA RESULT:      -8.0      0.000      0.000
REMARK  Name = 
REMARK  9 active torsions:
REMARK  status: ('A' for Active; 'I' for Inactive)
REMARK    1  A    between atoms: C_2  and  C_29
REMARK    2  A    between atoms: N_7  and  S_8
REMARK    3  A    between atoms: S_8  and  C_11
REMARK    4  A    between atoms: C_14  and  O_15
REMARK    5  A    between atoms: O_15  and  C_16
REMARK    6  A    between atoms: C_19  and  O_21
REMARK    7  A    between atoms: O_21  and  C_22
REMARK    8  A    between atoms: C_22  and  C_23
REMARK    9  A    between atoms: N_31  and  O_32
REMARK                            x       y       z     vdW  Elec       q    Type
REMARK                         _______ _______ _______ _____ _____    ______ ____
ROOT
ATOM      1  C   UNL     1       7.198  -3.353  25.081  0.00  0.00    +0.185 C 
ATOM      2  N   UNL     1       6.603  -4.235  23.989  0.00  0.00    -0.162 NA
ATOM      3  C   UNL     1       7.541  -4.356  22.809  0.00  0.00    +0.129 C 
ATOM      4  C   UNL     1       8.051  -3.000  22.293  0.00  0.00    +0.128 C 
ATOM      5  N   UNL     1       8.530  -2.151  23.378  0.00  0.00    -0.264 N 
ATOM      6  C   UNL     1       9.786  -1.581  23.314  0.00  0.00    +0.403 C 
ATOM      7  O   UNL     1      10.551  -1.736  22.369  0.00  0.00    -0.226 OA
ATOM      8  C   UNL     1       7.619  -1.984  24.519  0.00  0.00    +0.141 C 
ENDROOT
BRANCH   1   9
ATOM      9  C   UNL     1       8.394  -3.984  25.798  0.00  0.00    +0.256 C 
ATOM     10  N   UNL     1       8.970  -5.057  25.163  0.00  0.00    -0.196 N 
ATOM     11  H   UNL     1       8.552  -5.539  24.375  0.00  0.00    +0.182 HD
ATOM     12  O   UNL     1       8.814  -3.619  26.897  0.00  0.00    -0.272 OA
BRANCH  10  13
ATOM     13  O   UNL     1      10.047  -5.679  25.835  0.00  0.00    -0.295 OA
ATOM     14  H   UNL     1      10.283  -5.010  26.517  0.00  0.00    +0.241 HD
ENDBRANCH  10  13
ENDBRANCH   1   9
BRANCH   2  15
ATOM     15  S   UNL     1       4.983  -3.807  23.599  0.00  0.00    +0.062 S 
ATOM     16  O   UNL     1       4.909  -3.554  22.178  0.00  0.00    -0.153 OA
ATOM     17  O   UNL     1       4.557  -2.810  24.556  0.00  0.00    -0.153 OA
BRANCH  15  18
ATOM     18  C   UNL     1       4.081  -5.296  23.947  0.00  0.00    +0.106 A 
ATOM     19  C   UNL     1       2.913  -5.603  23.243  0.00  0.00    +0.032 A 
ATOM     20  C   UNL     1       2.245  -6.806  23.500  0.00  0.00    +0.047 A 
ATOM     21  C   UNL     1       2.741  -7.690  24.462  0.00  0.00    +0.120 A 
ATOM     22  C   UNL     1       3.895  -7.355  25.178  0.00  0.00    +0.047 A 
ATOM     23  C   UNL     1       4.562  -6.154  24.935  0.00  0.00    +0.032 A 
BRANCH  21  24
ATOM     24  O   UNL     1       2.234  -8.927  24.746  0.00  0.00    -0.495 OA
ATOM     25  C   UNL     1       0.907  -9.192  24.308  0.00  0.00    +0.277 C 
ENDBRANCH  21  24
ENDBRANCH  15  18
ENDBRANCH   2  15
BRANCH   6  26
ATOM     26  O   UNL     1      10.072  -0.848  24.416  0.00  0.00    -0.445 OA
BRANCH  26  27
ATOM     27  C   UNL     1      10.940   0.273  24.246  0.00  0.00    +0.269 C 
BRANCH  27  28
ATOM     28  C   UNL     1      10.100   1.520  24.332  0.00  0.00    -0.010 A 
ATOM     29  C   UNL     1      10.510   2.691  23.679  0.00  0.00    +0.007 A 
ATOM     30  C   UNL     1       9.720   3.840  23.728  0.00  0.00    +0.000 A 
ATOM     31  C   UNL     1       8.511   3.827  24.420  0.00  0.00    +0.000 A 
ATOM     32  C   UNL     1       8.088   2.664  25.062  0.00  0.00    +0.000 A 
ATOM     33  C   UNL     1       8.876   1.513  25.014  0.00  0.00    +0.007 A 
ENDBRANCH  27  28
ENDBRANCH  26  27
ENDBRANCH   6  26
TORSDOF 8
ENDMDL
MODEL 2
REMARK VINA RESULT:      -8.0      2.102      8.703
REMARK  Name = 
REMARK  9 active torsions:
REMARK  status: ('A' for Active; 'I' for Inactive)
REMARK    1  A    between atoms: C_2  and  C_29
REMARK    2  A    between atoms: N_7  and  S_8
REMARK    3  A    between atoms: S_8  and  C_11
REMARK    4  A    between atoms: C_14  and  O_15
REMARK    5  A    between atoms: O_15  and  C_16
REMARK    6  A    between atoms: C_19  and  O_21
REMARK    7  A    between atoms: O_21  and  C_22
REMARK    8  A    between atoms: C_22  and  C_23
REMARK    9  A    between atoms: N_31  and  O_32
REMARK                            x       y       z     vdW  Elec       q    Type
REMARK                         _______ _______ _______ _____ _____    ______ ____
ROOT
ATOM      1  C   UNL     1       8.616  -3.744  24.464  0.00  0.00    +0.185 C 
ATOM      2  N   UNL     1       8.636  -2.250  24.154  0.00  0.00    -0.162 NA
ATOM      3  C   UNL     1       7.240  -1.671  24.156  0.00  0.00    +0.129 C 
ATOM      4  C   UNL     1       6.247  -2.465  23.290  0.00  0.00    +0.128 C 
ATOM      5  N   UNL     1       6.321  -3.897  23.554  0.00  0.00    -0.264 N 
ATOM      6  C   UNL     1       5.176  -4.611  23.848  0.00  0.00    +0.403 C 
ATOM      7  O   UNL     1       4.060  -4.108  23.895  0.00  0.00    -0.226 OA
ATOM      8  C   UNL     1       7.664  -4.493  23.516  0.00  0.00    +0.141 C 
ENDROOT
BRANCH   1   9
ATOM      9  C   UNL     1       8.231  -4.065  25.911  0.00  0.00    +0.256 C 
ATOM     10  N   UNL     1       8.401  -5.372  26.296  0.00  0.00    -0.196 N 
ATOM     11  H   UNL     1       8.587  -6.132  25.651  0.00  0.00    +0.182 HD
ATOM     12  O   UNL     1       7.750  -3.247  26.696  0.00  0.00    -0.272 OA
BRANCH  10  13
ATOM     13  O   UNL     1       8.006  -5.693  27.615  0.00  0.00    -0.295 OA
ATOM     14  H   UNL     1       7.224  -6.270  27.466  0.00  0.00    +0.241 HD
ENDBRANCH  10  13
ENDBRANCH   1   9
BRANCH   2  15
ATOM     15  S   UNL     1       9.587  -1.873  22.770  0.00  0.00    +0.062 S 
ATOM     16  O   UNL     1       8.764  -2.040  21.594  0.00  0.00    -0.153 OA
ATOM     17  O   UNL     1      10.844  -2.575  22.906  0.00  0.00    -0.153 OA
BRANCH  15  18
ATOM     18  C   UNL     1       9.921  -0.142  22.975  0.00  0.00    +0.106 A 
ATOM     19  C   UNL     1       9.759   0.746  21.907  0.00  0.00    +0.032 A 
ATOM     20  C   UNL     1       9.982   2.115  22.104  0.00  0.00    +0.047 A 
ATOM     21  C   UNL     1      10.370   2.586  23.361  0.00  0.00    +0.120 A 
ATOM     22  C   UNL     1      10.555   1.681  24.411  0.00  0.00    +0.047 A 
ATOM     23  C   UNL     1      10.345   0.316  24.222  0.00  0.00    +0.032 A 
BRANCH  21  24
ATOM     24  O   UNL     1      10.536   3.899  23.704  0.00  0.00    -0.495 OA
ATOM     25  C   UNL     1      11.770   4.506  23.342  0.00  0.00    +0.277 C 
ENDBRANCH  21  24
ENDBRANCH  15  18
ENDBRANCH   2  15
BRANCH   6  26
ATOM     26  O   UNL     1       5.437  -5.917  24.088  0.00  0.00    -0.445 OA
BRANCH  26  27
ATOM     27  C   UNL     1       4.315  -6.789  24.236  0.00  0.00    +0.269 C 
BRANCH  27  28
ATOM     28  C   UNL     1       3.935  -6.804  25.693  0.00  0.00    -0.010 A 
ATOM     29  C   UNL     1       4.930  -6.763  26.679  0.00  0.00    +0.007 A 
ATOM     30  C   UNL     1       4.584  -6.743  28.031  0.00  0.00    +0.000 A 
ATOM     31  C   UNL     1       3.244  -6.756  28.409  0.00  0.00    +0.000 A 
ATOM     32  C   UNL     1       2.246  -6.784  27.435  0.00  0.00    +0.000 A 
ATOM     33  C   UNL     1       2.589  -6.803  26.083  0.00  0.00    +0.007 A 
ENDBRANCH  27  28
ENDBRANCH  26  27
ENDBRANCH   6  26
TORSDOF 8
ENDMDL
MODEL 3
REMARK VINA RESULT:      -7.9      1.933      8.995
REMARK  Name = 
REMARK  9 active torsions:
REMARK  status: ('A' for Active; 'I' for Inactive)
REMARK    1  A    between atoms: C_2  and  C_29
REMARK    2  A    between atoms: N_7  and  S_8
REMARK    3  A    between atoms: S_8  and  C_11
REMARK    4  A    between atoms: C_14  and  O_15
REMARK    5  A    between atoms: O_15  and  C_16
REMARK    6  A    between atoms: C_19  and  O_21
REMARK    7  A    between atoms: O_21  and  C_22
REMARK    8  A    between atoms: C_22  and  C_23
REMARK    9  A    between atoms: N_31  and  O_32
REMARK                            x       y       z     vdW  Elec       q    Type
REMARK                         _______ _______ _______ _____ _____    ______ ____
ROOT
ATOM      1  C   UNL     1       8.597  -3.920  24.687  0.00  0.00    +0.185 C 
ATOM      2  N   UNL     1       8.641  -2.412  24.459  0.00  0.00    -0.162 NA
ATOM      3  C   UNL     1       7.282  -1.785  24.670  0.00  0.00    +0.129 C 
ATOM      4  C   UNL     1       6.157  -2.490  23.895  0.00  0.00    +0.128 C 
ATOM      5  N   UNL     1       6.202  -3.938  24.069  0.00  0.00    -0.264 N 
ATOM      6  C   UNL     1       5.073  -4.627  24.467  0.00  0.00    +0.403 C 
ATOM      7  O   UNL     1       3.995  -4.088  24.684  0.00  0.00    -0.226 OA
ATOM      8  C   UNL     1       7.503  -4.577  23.828  0.00  0.00    +0.141 C 
ENDROOT
BRANCH   1   9
ATOM      9  C   UNL     1       8.383  -4.313  26.151  0.00  0.00    +0.256 C 
ATOM     10  N   UNL     1       8.105  -5.639  26.377  0.00  0.00    -0.196 N 
ATOM     11  H   UNL     1       7.868  -6.300  25.646  0.00  0.00    +0.182 HD
ATOM     12  O   UNL     1       8.400  -3.516  27.091  0.00  0.00    -0.272 OA
BRANCH  10  13
ATOM     13  O   UNL     1       7.860  -6.007  27.720  0.00  0.00    -0.295 OA
ATOM     14  H   UNL     1       8.748  -6.302  28.023  0.00  0.00    +0.241 HD
ENDBRANCH  10  13
ENDBRANCH   1   9
BRANCH   2  15
ATOM     15  S   UNL     1       9.427  -1.987  22.988  0.00  0.00    +0.062 S 
ATOM     16  O   UNL     1       8.497  -2.190  21.901  0.00  0.00    -0.153 OA
ATOM     17  O   UNL     1      10.723  -2.629  22.989  0.00  0.00    -0.153 OA
BRANCH  15  18
ATOM     18  C   UNL     1       9.698  -0.242  23.170  0.00  0.00    +0.106 A 
ATOM     19  C   UNL     1      10.211   0.279  24.362  0.00  0.00    +0.032 A 
ATOM     20  C   UNL     1      10.462   1.653  24.465  0.00  0.00    +0.047 A 
ATOM     21  C   UNL     1      10.194   2.496  23.384  0.00  0.00    +0.120 A 
ATOM     22  C   UNL     1       9.654   1.963  22.209  0.00  0.00    +0.047 A 
ATOM     23  C   UNL     1       9.392   0.598  22.100  0.00  0.00    +0.032 A 
BRANCH  21  24
ATOM     24  O   UNL     1      10.471   3.834  23.328  0.00  0.00    -0.495 OA
ATOM     25  C   UNL     1      11.845   4.205  23.329  0.00  0.00    +0.277 C 
ENDBRANCH  21  24
ENDBRANCH  15  18
ENDBRANCH   2  15
BRANCH   6  26
ATOM     26  O   UNL     1       5.306  -5.953  24.601  0.00  0.00    -0.445 OA
BRANCH  26  27
ATOM     27  C   UNL     1       4.910  -6.564  25.830  0.00  0.00    +0.269 C 
BRANCH  27  28
ATOM     28  C   UNL     1       3.523  -7.119  25.640  0.00  0.00    -0.010 A 
ATOM     29  C   UNL     1       2.552  -6.942  26.634  0.00  0.00    +0.007 A 
ATOM     30  C   UNL     1       1.256  -7.425  26.450  0.00  0.00    +0.000 A 
ATOM     31  C   UNL     1       0.917  -8.081  25.268  0.00  0.00    +0.000 A 
ATOM     32  C   UNL     1       1.872  -8.251  24.267  0.00  0.00    +0.000 A 
ATOM     33  C   UNL     1       3.169  -7.768  24.449  0.00  0.00    +0.007 A 
ENDBRANCH  27  28
ENDBRANCH  26  27
ENDBRANCH   6  26
TORSDOF 8
ENDMDL
MODEL 4
REMARK VINA RESULT:      -7.8      2.441      4.470
REMARK  Name = 
REMARK  9 active torsions:
REMARK  status: ('A' for Active; 'I' for Inactive)
REMARK    1  A    between atoms: C_2  and  C_29
REMARK    2  A    between atoms: N_7  and  S_8
REMARK    3  A    between atoms: S_8  and  C_11
REMARK    4  A    between atoms: C_14  and  O_15
REMARK    5  A    between atoms: O_15  and  C_16
REMARK    6  A    between atoms: C_19  and  O_21
REMARK    7  A    between atoms: O_21  and  C_22
REMARK    8  A    between atoms: C_22  and  C_23
REMARK    9  A    between atoms: N_31  and  O_32
REMARK                            x       y       z     vdW  Elec       q    Type
REMARK                         _______ _______ _______ _____ _____    ______ ____
ROOT
ATOM      1  C   UNL     1       9.415  -0.766  23.655  0.00  0.00    +0.185 C 
ATOM      2  N   UNL     1       8.541  -1.995  23.427  0.00  0.00    -0.162 NA
ATOM      3  C   UNL     1       7.105  -1.606  23.159  0.00  0.00    +0.129 C 
ATOM      4  C   UNL     1       6.532  -0.629  24.200  0.00  0.00    +0.128 C 
ATOM      5  N   UNL     1       7.437   0.486  24.454  0.00  0.00    -0.264 N 
ATOM      6  C   UNL     1       6.979   1.786  24.373  0.00  0.00    +0.403 C 
ATOM      7  O   UNL     1       5.821   2.079  24.102  0.00  0.00    -0.226 OA
ATOM      8  C   UNL     1       8.830   0.132  24.759  0.00  0.00    +0.141 C 
ENDROOT
BRANCH   1   9
ATOM      9  C   UNL     1       9.632   0.075  22.394  0.00  0.00    +0.256 C 
ATOM     10  N   UNL     1      10.041   1.368  22.603  0.00  0.00    -0.196 N 
ATOM     11  H   UNL     1      10.031   1.825  23.509  0.00  0.00    +0.182 HD
ATOM     12  O   UNL     1       9.417  -0.328  21.249  0.00  0.00    -0.272 OA
BRANCH  10  13
ATOM     13  O   UNL     1      10.201   2.170  21.450  0.00  0.00    -0.295 OA
ATOM     14  H   UNL     1       9.545   2.887  21.599  0.00  0.00    +0.241 HD
ENDBRANCH  10  13
ENDBRANCH   1   9
BRANCH   2  15
ATOM     15  S   UNL     1       8.764  -3.200  24.636  0.00  0.00    +0.062 S 
ATOM     16  O   UNL     1       8.550  -2.590  25.930  0.00  0.00    -0.153 OA
ATOM     17  O   UNL     1       9.996  -3.892  24.335  0.00  0.00    -0.153 OA
BRANCH  15  18
ATOM     18  C   UNL     1       7.429  -4.329  24.326  0.00  0.00    +0.106 A 
ATOM     19  C   UNL     1       7.384  -5.070  23.141  0.00  0.00    +0.032 A 
ATOM     20  C   UNL     1       6.348  -5.990  22.939  0.00  0.00    +0.047 A 
ATOM     21  C   UNL     1       5.362  -6.159  23.914  0.00  0.00    +0.120 A 
ATOM     22  C   UNL     1       5.406  -5.389  25.082  0.00  0.00    +0.047 A 
ATOM     23  C   UNL     1       6.429  -4.464  25.288  0.00  0.00    +0.032 A 
BRANCH  21  24
ATOM     24  O   UNL     1       4.352  -7.078  23.877  0.00  0.00    -0.495 OA
ATOM     25  C   UNL     1       3.724  -7.393  25.114  0.00  0.00    +0.277 C 
ENDBRANCH  21  24
ENDBRANCH  15  18
ENDBRANCH   2  15
BRANCH   6  26
ATOM     26  O   UNL     1       7.959   2.689  24.614  0.00  0.00    -0.445 OA
BRANCH  26  27
ATOM     27  C   UNL     1       7.588   3.887  25.298  0.00  0.00    +0.269 C 
BRANCH  27  28
ATOM     28  C   UNL     1       8.697   4.886  25.103  0.00  0.00    -0.010 A 
ATOM     29  C   UNL     1       8.852   5.949  26.003  0.00  0.00    +0.007 A 
ATOM     30  C   UNL     1       9.897   6.860  25.848  0.00  0.00    +0.000 A 
ATOM     31  C   UNL     1      10.801   6.713  24.798  0.00  0.00    +0.000 A 
ATOM     32  C   UNL     1      10.665   5.651  23.905  0.00  0.00    +0.000 A 
ATOM     33  C   UNL     1       9.621   4.738  24.059  0.00  0.00    +0.007 A 
ENDBRANCH  27  28
ENDBRANCH  26  27
ENDBRANCH   6  26
TORSDOF 8
ENDMDL
MODEL 5
REMARK VINA RESULT:      -7.8      1.920      3.342
REMARK  Name = 
REMARK  9 active torsions:
REMARK  status: ('A' for Active; 'I' for Inactive)
REMARK    1  A    between atoms: C_2  and  C_29
REMARK    2  A    between atoms: N_7  and  S_8
REMARK    3  A    between atoms: S_8  and  C_11
REMARK    4  A    between atoms: C_14  and  O_15
REMARK    5  A    between atoms: O_15  and  C_16
REMARK    6  A    between atoms: C_19  and  O_21
REMARK    7  A    between atoms: O_21  and  C_22
REMARK    8  A    between atoms: C_22  and  C_23
REMARK    9  A    between atoms: N_31  and  O_32
REMARK                            x       y       z     vdW  Elec       q    Type
REMARK                         _______ _______ _______ _____ _____    ______ ____
ROOT
ATOM      1  C   UNL     1       8.484  -2.364  24.497  0.00  0.00    +0.185 C 
ATOM      2  N   UNL     1       7.075  -2.910  24.699  0.00  0.00    -0.162 NA
ATOM      3  C   UNL     1       6.030  -1.890  24.308  0.00  0.00    +0.129 C 
ATOM      4  C   UNL     1       6.252  -0.510  24.950  0.00  0.00    +0.128 C 
ATOM      5  N   UNL     1       7.634  -0.063  24.812  0.00  0.00    -0.264 N 
ATOM      6  C   UNL     1       7.913   1.185  24.291  0.00  0.00    +0.403 C 
ATOM      7  O   UNL     1       7.048   1.975  23.931  0.00  0.00    -0.226 OA
ATOM      8  C   UNL     1       8.667  -1.021  25.226  0.00  0.00    +0.141 C 
ENDROOT
BRANCH   1   9
ATOM      9  C   UNL     1       8.870  -2.187  23.026  0.00  0.00    +0.256 C 
ATOM     10  N   UNL     1      10.042  -1.510  22.794  0.00  0.00    -0.196 N 
ATOM     11  H   UNL     1      10.545  -0.991  23.505  0.00  0.00    +0.182 HD
ATOM     12  O   UNL     1       8.178  -2.567  22.080  0.00  0.00    -0.272 OA
BRANCH  10  13
ATOM     13  O   UNL     1      10.386  -1.300  21.440  0.00  0.00    -0.295 OA
ATOM     14  H   UNL     1       9.748  -0.603  21.166  0.00  0.00    +0.241 HD
ENDBRANCH  10  13
ENDBRANCH   1   9
BRANCH   2  15
ATOM     15  S   UNL     1       6.857  -3.628  26.248  0.00  0.00    +0.062 S 
ATOM     16  O   UNL     1       6.086  -2.720  27.066  0.00  0.00    -0.153 OA
ATOM     17  O   UNL     1       8.148  -4.111  26.685  0.00  0.00    -0.153 OA
BRANCH  15  18
ATOM     18  C   UNL     1       5.852  -5.048  25.892  0.00  0.00    +0.106 A 
ATOM     19  C   UNL     1       5.228  -5.755  26.923  0.00  0.00    +0.032 A 
ATOM     20  C   UNL     1       4.400  -6.843  26.615  0.00  0.00    +0.047 A 
ATOM     21  C   UNL     1       4.207  -7.220  25.284  0.00  0.00    +0.120 A 
ATOM     22  C   UNL     1       4.862  -6.519  24.265  0.00  0.00    +0.047 A 
ATOM     23  C   UNL     1       5.695  -5.441  24.563  0.00  0.00    +0.032 A 
BRANCH  21  24
ATOM     24  O   UNL     1       3.364  -8.202  24.847  0.00  0.00    -0.495 OA
ATOM     25  C   UNL     1       2.188  -7.782  24.164  0.00  0.00    +0.277 C 
ENDBRANCH  21  24
ENDBRANCH  15  18
ENDBRANCH   2  15
BRANCH   6  26
ATOM     26  O   UNL     1       9.243   1.420  24.213  0.00  0.00    -0.445 OA
BRANCH  26  27
ATOM     27  C   UNL     1       9.726   2.050  23.026  0.00  0.00    +0.269 C 
BRANCH  27  28
ATOM     28  C   UNL     1      10.251   3.408  23.410  0.00  0.00    -0.010 A 
ATOM     29  C   UNL     1      11.610   3.710  23.244  0.00  0.00    +0.007 A 
ATOM     30  C   UNL     1      12.097   4.977  23.568  0.00  0.00    +0.000 A 
ATOM     31  C   UNL     1      11.230   5.955  24.050  0.00  0.00    +0.000 A 
ATOM     32  C   UNL     1       9.875   5.670  24.206  0.00  0.00    +0.000 A 
ATOM     33  C   UNL     1       9.385   4.404  23.883  0.00  0.00    +0.007 A 
ENDBRANCH  27  28
ENDBRANCH  26  27
ENDBRANCH   6  26
TORSDOF 8
ENDMDL
MODEL 6
REMARK VINA RESULT:      -7.6      1.917      3.068
REMARK  Name = 
REMARK  9 active torsions:
REMARK  status: ('A' for Active; 'I' for Inactive)
REMARK    1  A    between atoms: C_2  and  C_29
REMARK    2  A    between atoms: N_7  and  S_8
REMARK    3  A    between atoms: S_8  and  C_11
REMARK    4  A    between atoms: C_14  and  O_15
REMARK    5  A    between atoms: O_15  and  C_16
REMARK    6  A    between atoms: C_19  and  O_21
REMARK    7  A    between atoms: O_21  and  C_22
REMARK    8  A    between atoms: C_22  and  C_23
REMARK    9  A    between atoms: N_31  and  O_32
REMARK                            x       y       z     vdW  Elec       q    Type
REMARK                         _______ _______ _______ _____ _____    ______ ____
ROOT
ATOM      1  C   UNL     1       6.927  -2.218  23.355  0.00  0.00    +0.185 C 
ATOM      2  N   UNL     1       7.382  -3.336  24.287  0.00  0.00    -0.162 NA
ATOM      3  C   UNL     1       8.632  -2.947  25.043  0.00  0.00    +0.129 C 
ATOM      4  C   UNL     1       9.752  -2.410  24.135  0.00  0.00    +0.128 C 
ATOM      5  N   UNL     1       9.259  -1.406  23.199  0.00  0.00    -0.264 N 
ATOM      6  C   UNL     1       9.884  -0.179  23.101  0.00  0.00    +0.403 C 
ATOM      7  O   UNL     1      10.867   0.133  23.763  0.00  0.00    -0.226 OA
ATOM      8  C   UNL     1       8.068  -1.777  22.422  0.00  0.00    +0.141 C 
ENDROOT
BRANCH   1   9
ATOM      9  C   UNL     1       6.384  -0.989  24.090  0.00  0.00    +0.256 C 
ATOM     10  N   UNL     1       6.252   0.148  23.332  0.00  0.00    -0.196 N 
ATOM     11  H   UNL     1       6.647   0.259  22.405  0.00  0.00    +0.182 HD
ATOM     12  O   UNL     1       6.118  -0.964  25.293  0.00  0.00    -0.272 OA
BRANCH  10  13
ATOM     13  O   UNL     1       5.796   1.303  24.009  0.00  0.00    -0.295 OA
ATOM     14  H   UNL     1       5.271   1.760  23.314  0.00  0.00    +0.241 HD
ENDBRANCH  10  13
ENDBRANCH   1   9
BRANCH   2  15
ATOM     15  S   UNL     1       7.441  -4.868  23.505  0.00  0.00    +0.062 S 
ATOM     16  O   UNL     1       8.599  -5.583  23.994  0.00  0.00    -0.153 OA
ATOM     17  O   UNL     1       7.251  -4.638  22.090  0.00  0.00    -0.153 OA
BRANCH  15  18
ATOM     18  C   UNL     1       5.986  -5.683  24.112  0.00  0.00    +0.106 A 
ATOM     19  C   UNL     1       4.962  -6.057  23.237  0.00  0.00    +0.032 A 
ATOM     20  C   UNL     1       3.844  -6.742  23.731  0.00  0.00    +0.047 A 
ATOM     21  C   UNL     1       3.754  -7.042  25.092  0.00  0.00    +0.120 A 
ATOM     22  C   UNL     1       4.774  -6.636  25.959  0.00  0.00    +0.047 A 
ATOM     23  C   UNL     1       5.885  -5.945  25.478  0.00  0.00    +0.032 A 
BRANCH  21  24
ATOM     24  O   UNL     1       2.763  -7.775  25.684  0.00  0.00    -0.495 OA
ATOM     25  C   UNL     1       2.004  -8.630  24.836  0.00  0.00    +0.277 C 
ENDBRANCH  21  24
ENDBRANCH  15  18
ENDBRANCH   2  15
BRANCH   6  26
ATOM     26  O   UNL     1       9.278   0.633  22.204  0.00  0.00    -0.445 OA
BRANCH  26  27
ATOM     27  C   UNL     1       9.822   1.943  22.038  0.00  0.00    +0.269 C 
BRANCH  27  28
ATOM     28  C   UNL     1       8.913   2.910  22.748  0.00  0.00    -0.010 A 
ATOM     29  C   UNL     1       7.760   3.389  22.110  0.00  0.00    +0.007 A 
ATOM     30  C   UNL     1       6.896   4.260  22.775  0.00  0.00    +0.000 A 
ATOM     31  C   UNL     1       7.170   4.652  24.083  0.00  0.00    +0.000 A 
ATOM     32  C   UNL     1       8.306   4.171  24.731  0.00  0.00    +0.000 A 
ATOM     33  C   UNL     1       9.172   3.300  24.069  0.00  0.00    +0.007 A 
ENDBRANCH  27  28
ENDBRANCH  26  27
ENDBRANCH   6  26
TORSDOF 8
ENDMDL
MODEL 7
REMARK VINA RESULT:      -7.4      2.519      3.604
REMARK  Name = 
REMARK  9 active torsions:
REMARK  status: ('A' for Active; 'I' for Inactive)
REMARK    1  A    between atoms: C_2  and  C_29
REMARK    2  A    between atoms: N_7  and  S_8
REMARK    3  A    between atoms: S_8  and  C_11
REMARK    4  A    between atoms: C_14  and  O_15
REMARK    5  A    between atoms: O_15  and  C_16
REMARK    6  A    between atoms: C_19  and  O_21
REMARK    7  A    between atoms: O_21  and  C_22
REMARK    8  A    between atoms: C_22  and  C_23
REMARK    9  A    between atoms: N_31  and  O_32
REMARK                            x       y       z     vdW  Elec       q    Type
REMARK                         _______ _______ _______ _____ _____    ______ ____
ROOT
ATOM      1  C   UNL     1       7.315  -1.963  24.857  0.00  0.00    +0.185 C 
ATOM      2  N   UNL     1       8.192  -3.208  24.788  0.00  0.00    -0.162 NA
ATOM      3  C   UNL     1       9.536  -2.899  24.169  0.00  0.00    +0.129 C 
ATOM      4  C   UNL     1       9.435  -2.144  22.833  0.00  0.00    +0.128 C 
ATOM      5  N   UNL     1       8.519  -1.012  22.917  0.00  0.00    -0.264 N 
ATOM      6  C   UNL     1       8.926   0.244  22.512  0.00  0.00    +0.403 C 
ATOM      7  O   UNL     1      10.040   0.481  22.062  0.00  0.00    -0.226 OA
ATOM      8  C   UNL     1       7.190  -1.296  23.476  0.00  0.00    +0.141 C 
ENDROOT
BRANCH   1   9
ATOM      9  C   UNL     1       7.804  -0.923  25.869  0.00  0.00    +0.256 C 
ATOM     10  N   UNL     1       7.371   0.363  25.658  0.00  0.00    -0.196 N 
ATOM     11  H   UNL     1       6.917   0.674  24.806  0.00  0.00    +0.182 HD
ATOM     12  O   UNL     1       8.576  -1.170  26.796  0.00  0.00    -0.272 OA
BRANCH  10  13
ATOM     13  O   UNL     1       7.853   1.342  26.557  0.00  0.00    -0.295 OA
ATOM     14  H   UNL     1       7.233   2.090  26.406  0.00  0.00    +0.241 HD
ENDBRANCH  10  13
ENDBRANCH   1   9
BRANCH   2  15
ATOM     15  S   UNL     1       7.368  -4.563  24.118  0.00  0.00    +0.062 S 
ATOM     16  O   UNL     1       8.355  -5.483  23.598  0.00  0.00    -0.153 OA
ATOM     17  O   UNL     1       6.310  -4.052  23.277  0.00  0.00    -0.153 OA
BRANCH  15  18
ATOM     18  C   UNL     1       6.606  -5.308  25.538  0.00  0.00    +0.106 A 
ATOM     19  C   UNL     1       5.435  -6.061  25.405  0.00  0.00    +0.032 A 
ATOM     20  C   UNL     1       4.878  -6.679  26.531  0.00  0.00    +0.047 A 
ATOM     21  C   UNL     1       5.487  -6.537  27.780  0.00  0.00    +0.120 A 
ATOM     22  C   UNL     1       6.642  -5.757  27.902  0.00  0.00    +0.047 A 
ATOM     23  C   UNL     1       7.199  -5.129  26.788  0.00  0.00    +0.032 A 
BRANCH  21  24
ATOM     24  O   UNL     1       5.094  -7.155  28.935  0.00  0.00    -0.495 OA
ATOM     25  C   UNL     1       3.802  -6.825  29.432  0.00  0.00    +0.277 C 
ENDBRANCH  21  24
ENDBRANCH  15  18
ENDBRANCH   2  15
BRANCH   6  26
ATOM     26  O   UNL     1       7.957   1.174  22.684  0.00  0.00    -0.445 OA
BRANCH  26  27
ATOM     27  C   UNL     1       7.996   2.321  21.833  0.00  0.00    +0.269 C 
BRANCH  27  28
ATOM     28  C   UNL     1       8.022   3.543  22.713  0.00  0.00    -0.010 A 
ATOM     29  C   UNL     1       8.833   3.569  23.855  0.00  0.00    +0.007 A 
ATOM     30  C   UNL     1       8.887   4.711  24.657  0.00  0.00    +0.000 A 
ATOM     31  C   UNL     1       8.139   5.836  24.319  0.00  0.00    +0.000 A 
ATOM     32  C   UNL     1       7.339   5.825  23.178  0.00  0.00    +0.000 A 
ATOM     33  C   UNL     1       7.284   4.685  22.374  0.00  0.00    +0.007 A 
ENDBRANCH  27  28
ENDBRANCH  26  27
ENDBRANCH   6  26
TORSDOF 8
ENDMDL
MODEL 8
REMARK VINA RESULT:      -7.4      2.527      9.099
REMARK  Name = 
REMARK  9 active torsions:
REMARK  status: ('A' for Active; 'I' for Inactive)
REMARK    1  A    between atoms: C_2  and  C_29
REMARK    2  A    between atoms: N_7  and  S_8
REMARK    3  A    between atoms: S_8  and  C_11
REMARK    4  A    between atoms: C_14  and  O_15
REMARK    5  A    between atoms: O_15  and  C_16
REMARK    6  A    between atoms: C_19  and  O_21
REMARK    7  A    between atoms: O_21  and  C_22
REMARK    8  A    between atoms: C_22  and  C_23
REMARK    9  A    between atoms: N_31  and  O_32
REMARK                            x       y       z     vdW  Elec       q    Type
REMARK                         _______ _______ _______ _____ _____    ______ ____
ROOT
ATOM      1  C   UNL     1       7.595  -0.902  23.946  0.00  0.00    +0.185 C 
ATOM      2  N   UNL     1       8.342   0.214  24.670  0.00  0.00    -0.162 NA
ATOM      3  C   UNL     1       9.327  -0.344  25.672  0.00  0.00    +0.129 C 
ATOM      4  C   UNL     1       8.708  -1.385  26.621  0.00  0.00    +0.128 C 
ATOM      5  N   UNL     1       7.930  -2.384  25.898  0.00  0.00    -0.264 N 
ATOM      6  C   UNL     1       8.164  -3.730  26.102  0.00  0.00    +0.403 C 
ATOM      7  O   UNL     1       9.005  -4.159  26.882  0.00  0.00    -0.226 OA
ATOM      8  C   UNL     1       6.936  -1.866  24.948  0.00  0.00    +0.141 C 
ENDROOT
BRANCH   1   9
ATOM      9  C   UNL     1       8.475  -1.708  22.987  0.00  0.00    +0.256 C 
ATOM     10  N   UNL     1       9.543  -1.033  22.449  0.00  0.00    -0.196 N 
ATOM     11  H   UNL     1       9.667  -0.029  22.510  0.00  0.00    +0.182 HD
ATOM     12  O   UNL     1       8.247  -2.871  22.652  0.00  0.00    -0.272 OA
BRANCH  10  13
ATOM     13  O   UNL     1      10.337  -1.751  21.525  0.00  0.00    -0.295 OA
ATOM     14  H   UNL     1      11.050  -1.107  21.315  0.00  0.00    +0.241 HD
ENDBRANCH  10  13
ENDBRANCH   1   9
BRANCH   2  15
ATOM     15  S   UNL     1       7.289   1.434  25.274  0.00  0.00    +0.062 S 
ATOM     16  O   UNL     1       7.179   1.270  26.706  0.00  0.00    -0.153 OA
ATOM     17  O   UNL     1       6.113   1.444  24.433  0.00  0.00    -0.153 OA
BRANCH  15  18
ATOM     18  C   UNL     1       8.186   2.931  24.952  0.00  0.00    +0.106 A 
ATOM     19  C   UNL     1       7.859   4.115  25.619  0.00  0.00    +0.032 A 
ATOM     20  C   UNL     1       8.611   5.273  25.385  0.00  0.00    +0.047 A 
ATOM     21  C   UNL     1       9.678   5.244  24.483  0.00  0.00    +0.120 A 
ATOM     22  C   UNL     1       9.974   4.058  23.802  0.00  0.00    +0.047 A 
ATOM     23  C   UNL     1       9.225   2.903  24.022  0.00  0.00    +0.032 A 
BRANCH  21  24
ATOM     24  O   UNL     1      10.538   6.276  24.230  0.00  0.00    -0.495 OA
ATOM     25  C   UNL     1      11.858   5.927  23.830  0.00  0.00    +0.277 C 
ENDBRANCH  21  24
ENDBRANCH  15  18
ENDBRANCH   2  15
BRANCH   6  26
ATOM     26  O   UNL     1       7.369  -4.509  25.331  0.00  0.00    -0.445 OA
BRANCH  26  27
ATOM     27  C   UNL     1       6.629  -5.538  25.989  0.00  0.00    +0.269 C 
BRANCH  27  28
ATOM     28  C   UNL     1       5.413  -5.834  25.152  0.00  0.00    -0.010 A 
ATOM     29  C   UNL     1       5.168  -5.099  23.984  0.00  0.00    +0.007 A 
ATOM     30  C   UNL     1       4.061  -5.390  23.186  0.00  0.00    +0.000 A 
ATOM     31  C   UNL     1       3.195  -6.422  23.542  0.00  0.00    +0.000 A 
ATOM     32  C   UNL     1       3.437  -7.168  24.695  0.00  0.00    +0.000 A 
ATOM     33  C   UNL     1       4.544  -6.879  25.495  0.00  0.00    +0.007 A 
ENDBRANCH  27  28
ENDBRANCH  26  27
ENDBRANCH   6  26
TORSDOF 8
ENDMDL
MODEL 9
REMARK VINA RESULT:      -7.2      2.153      9.102
REMARK  Name = 
REMARK  9 active torsions:
REMARK  status: ('A' for Active; 'I' for Inactive)
REMARK    1  A    between atoms: C_2  and  C_29
REMARK    2  A    between atoms: N_7  and  S_8
REMARK    3  A    between atoms: S_8  and  C_11
REMARK    4  A    between atoms: C_14  and  O_15
REMARK    5  A    between atoms: O_15  and  C_16
REMARK    6  A    between atoms: C_19  and  O_21
REMARK    7  A    between atoms: O_21  and  C_22
REMARK    8  A    between atoms: C_22  and  C_23
REMARK    9  A    between atoms: N_31  and  O_32
REMARK                            x       y       z     vdW  Elec       q    Type
REMARK                         _______ _______ _______ _____ _____    ______ ____
ROOT
ATOM      1  C   UNL     1       6.543  -2.032  24.122  0.00  0.00    +0.185 C 
ATOM      2  N   UNL     1       7.859  -1.472  24.652  0.00  0.00    -0.162 NA
ATOM      3  C   UNL     1       8.691  -2.551  25.307  0.00  0.00    +0.129 C 
ATOM      4  C   UNL     1       7.912  -3.376  26.346  0.00  0.00    +0.128 C 
ATOM      5  N   UNL     1       6.621  -3.818  25.831  0.00  0.00    -0.264 N 
ATOM      6  C   UNL     1       6.264  -5.151  25.900  0.00  0.00    +0.403 C 
ATOM      7  O   UNL     1       6.979  -6.017  26.389  0.00  0.00    -0.226 OA
ATOM      8  C   UNL     1       5.776  -2.780  25.227  0.00  0.00    +0.141 C 
ENDROOT
BRANCH   1   9
ATOM      9  C   UNL     1       6.711  -2.961  22.917  0.00  0.00    +0.256 C 
ATOM     10  N   UNL     1       5.558  -3.272  22.239  0.00  0.00    -0.196 N 
ATOM     11  H   UNL     1       4.627  -3.074  22.586  0.00  0.00    +0.182 HD
ATOM     12  O   UNL     1       7.784  -3.461  22.574  0.00  0.00    -0.272 OA
BRANCH  10  13
ATOM     13  O   UNL     1       5.693  -4.167  21.152  0.00  0.00    -0.295 OA
ATOM     14  H   UNL     1       6.102  -3.598  20.461  0.00  0.00    +0.241 HD
ENDBRANCH  10  13
ENDBRANCH   1   9
BRANCH   2  15
ATOM     15  S   UNL     1       7.643  -0.041  25.583  0.00  0.00    +0.062 S 
ATOM     16  O   UNL     1       8.019  -0.327  26.949  0.00  0.00    -0.153 OA
ATOM     17  O   UNL     1       6.336   0.489  25.266  0.00  0.00    -0.153 OA
BRANCH  15  18
ATOM     18  C   UNL     1       8.847   1.068  24.895  0.00  0.00    +0.106 A 
ATOM     19  C   UNL     1      10.122   0.611  24.550  0.00  0.00    +0.032 A 
ATOM     20  C   UNL     1      11.039   1.493  23.964  0.00  0.00    +0.047 A 
ATOM     21  C   UNL     1      10.681   2.823  23.735  0.00  0.00    +0.120 A 
ATOM     22  C   UNL     1       9.411   3.272  24.113  0.00  0.00    +0.047 A 
ATOM     23  C   UNL     1       8.495   2.404  24.705  0.00  0.00    +0.032 A 
BRANCH  21  24
ATOM     24  O   UNL     1      11.449   3.758  23.098  0.00  0.00    -0.495 OA
ATOM     25  C   UNL     1      11.459   5.067  23.654  0.00  0.00    +0.277 C 
ENDBRANCH  21  24
ENDBRANCH  15  18
ENDBRANCH   2  15
BRANCH   6  26
ATOM     26  O   UNL     1       5.048  -5.382  25.354  0.00  0.00    -0.445 OA
BRANCH  26  27
ATOM     27  C   UNL     1       4.935  -6.488  24.457  0.00  0.00    +0.269 C 
BRANCH  27  28
ATOM     28  C   UNL     1       3.491  -6.600  24.047  0.00  0.00    -0.010 A 
ATOM     29  C   UNL     1       2.859  -5.531  23.396  0.00  0.00    +0.007 A 
ATOM     30  C   UNL     1       1.531  -5.641  22.985  0.00  0.00    +0.000 A 
ATOM     31  C   UNL     1       0.824  -6.820  23.213  0.00  0.00    +0.000 A 
ATOM     32  C   UNL     1       1.446  -7.893  23.848  0.00  0.00    +0.000 A 
ATOM     33  C   UNL     1       2.776  -7.787  24.259  0.00  0.00    +0.007 A 
ENDBRANCH  27  28
ENDBRANCH  26  27
ENDBRANCH   6  26
TORSDOF 8
ENDMDL
