MODEL 1
REMARK VINA RESULT:      -7.0      0.000      0.000
REMARK  Name = 
REMARK  5 active torsions:
REMARK  status: ('A' for Active; 'I' for Inactive)
REMARK    1  A    between atoms: O_1  and  C_2
REMARK    2  A    between atoms: C_10  and  O_11
REMARK    3  A    between atoms: C_12  and  C_14
REMARK    4  A    between atoms: C_17  and  O_18
REMARK    5  A    between atoms: C_19  and  O_20
REMARK                            x       y       z     vdW  Elec       q    Type
REMARK                         _______ _______ _______ _____ _____    ______ ____
ROOT
ATOM      1  C   UNL     1       4.179  -4.910  23.206  0.00  0.00    +0.120 A 
ATOM      2  C   UNL     1       4.856  -5.977  23.789  0.00  0.00    +0.046 A 
ATOM      3  C   UNL     1       6.220  -5.866  24.046  0.00  0.00    +0.019 A 
ATOM      4  C   UNL     1       6.881  -4.676  23.731  0.00  0.00    +0.068 A 
ATOM      5  C   UNL     1       8.317  -4.538  23.971  0.00  0.00    +0.234 A 
ATOM      6  C   UNL     1       8.922  -3.215  23.713  0.00  0.00    +0.208 A 
ATOM      7  C   UNL     1       8.145  -2.210  23.259  0.00  0.00    +0.181 A 
ATOM      8  O   UNL     1       6.797  -2.385  22.929  0.00  0.00    -0.451 OA
ATOM      9  O   UNL     1       9.016  -5.455  24.390  0.00  0.00    -0.283 OA
ATOM     10  C   UNL     1       6.196  -3.594  23.187  0.00  0.00    +0.143 A 
ATOM     11  C   UNL     1       4.834  -3.716  22.902  0.00  0.00    +0.092 A 
ENDROOT
BRANCH   7  12
ATOM     12  C   UNL     1       8.631  -0.814  23.069  0.00  0.00    +0.025 A 
ATOM     13  C   UNL     1       8.632   0.104  24.135  0.00  0.00    +0.060 A 
ATOM     14  C   UNL     1       9.137   1.391  23.951  0.00  0.00    +0.159 A 
ATOM     15  C   UNL     1       9.639   1.799  22.719  0.00  0.00    +0.158 A 
ATOM     16  C   UNL     1       9.658   0.917  21.653  0.00  0.00    +0.050 A 
ATOM     17  C   UNL     1       9.172  -0.383  21.839  0.00  0.00    +0.015 A 
BRANCH  14  18
ATOM     18  O   UNL     1       9.147   2.264  25.003  0.00  0.00    -0.503 OA
ATOM     19  H   UNL     1       8.276   2.138  25.432  0.00  0.00    +0.292 HD
ENDBRANCH  14  18
BRANCH  15  20
ATOM     20  O   UNL     1      10.112   3.077  22.604  0.00  0.00    -0.503 OA
ATOM     21  H   UNL     1      11.084   3.042  22.610  0.00  0.00    +0.292 HD
ENDBRANCH  15  20
ENDBRANCH   7  12
BRANCH   1  22
ATOM     22  O   UNL     1       2.850  -5.082  22.949  0.00  0.00    -0.507 OA
ATOM     23  H   UNL     1       2.334  -4.757  23.705  0.00  0.00    +0.292 HD
ENDBRANCH   1  22
BRANCH   6  24
ATOM     24  O   UNL     1      10.274  -3.111  23.987  0.00  0.00    -0.501 OA
ATOM     25  H   UNL     1      10.321  -2.592  24.819  0.00  0.00    +0.292 HD
ENDBRANCH   6  24
TORSDOF 5
ENDMDL
MODEL 2
REMARK VINA RESULT:      -7.0      1.960      3.164
REMARK  Name = 
REMARK  5 active torsions:
REMARK  status: ('A' for Active; 'I' for Inactive)
REMARK    1  A    between atoms: O_1  and  C_2
REMARK    2  A    between atoms: C_10  and  O_11
REMARK    3  A    between atoms: C_12  and  C_14
REMARK    4  A    between atoms: C_17  and  O_18
REMARK    5  A    between atoms: C_19  and  O_20
REMARK                            x       y       z     vdW  Elec       q    Type
REMARK                         _______ _______ _______ _____ _____    ______ ____
ROOT
ATOM      1  C   UNL     1       6.629  -5.525  27.021  0.00  0.00    +0.120 A 
ATOM      2  C   UNL     1       5.684  -6.309  26.366  0.00  0.00    +0.046 A 
ATOM      3  C   UNL     1       5.199  -5.906  25.125  0.00  0.00    +0.019 A 
ATOM      4  C   UNL     1       5.684  -4.729  24.550  0.00  0.00    +0.068 A 
ATOM      5  C   UNL     1       5.179  -4.270  23.257  0.00  0.00    +0.234 A 
ATOM      6  C   UNL     1       5.817  -3.077  22.665  0.00  0.00    +0.208 A 
ATOM      7  C   UNL     1       6.812  -2.459  23.335  0.00  0.00    +0.181 A 
ATOM      8  O   UNL     1       7.212  -2.841  24.619  0.00  0.00    -0.451 OA
ATOM      9  O   UNL     1       4.278  -4.841  22.651  0.00  0.00    -0.283 OA
ATOM     10  C   UNL     1       6.660  -3.966  25.185  0.00  0.00    +0.143 A 
ATOM     11  C   UNL     1       7.126  -4.356  26.443  0.00  0.00    +0.092 A 
ENDROOT
BRANCH   7  12
ATOM     12  C   UNL     1       7.594  -1.317  22.781  0.00  0.00    +0.025 A 
ATOM     13  C   UNL     1       7.161   0.009  22.954  0.00  0.00    +0.060 A 
ATOM     14  C   UNL     1       7.932   1.067  22.472  0.00  0.00    +0.159 A 
ATOM     15  C   UNL     1       9.132   0.839  21.807  0.00  0.00    +0.158 A 
ATOM     16  C   UNL     1       9.589  -0.455  21.626  0.00  0.00    +0.050 A 
ATOM     17  C   UNL     1       8.829  -1.518  22.128  0.00  0.00    +0.015 A 
BRANCH  14  18
ATOM     18  O   UNL     1       7.505   2.352  22.667  0.00  0.00    -0.503 OA
ATOM     19  H   UNL     1       6.581   2.351  22.344  0.00  0.00    +0.292 HD
ENDBRANCH  14  18
BRANCH  15  20
ATOM     20  O   UNL     1       9.836   1.920  21.353  0.00  0.00    -0.503 OA
ATOM     21  H   UNL     1      10.652   1.993  21.876  0.00  0.00    +0.292 HD
ENDBRANCH  15  20
ENDBRANCH   7  12
BRANCH   1  22
ATOM     22  O   UNL     1       7.050  -5.951  28.247  0.00  0.00    -0.507 OA
ATOM     23  H   UNL     1       7.211  -5.180  28.814  0.00  0.00    +0.292 HD
ENDBRANCH   1  22
BRANCH   6  24
ATOM     24  O   UNL     1       5.339  -2.694  21.424  0.00  0.00    -0.501 OA
ATOM     25  H   UNL     1       5.329  -1.713  21.453  0.00  0.00    +0.292 HD
ENDBRANCH   6  24
TORSDOF 5
ENDMDL
MODEL 3
REMARK VINA RESULT:      -6.9      1.816      6.787
REMARK  Name = 
REMARK  5 active torsions:
REMARK  status: ('A' for Active; 'I' for Inactive)
REMARK    1  A    between atoms: O_1  and  C_2
REMARK    2  A    between atoms: C_10  and  O_11
REMARK    3  A    between atoms: C_12  and  C_14
REMARK    4  A    between atoms: C_17  and  O_18
REMARK    5  A    between atoms: C_19  and  O_20
REMARK                            x       y       z     vdW  Elec       q    Type
REMARK                         _______ _______ _______ _____ _____    ______ ____
ROOT
ATOM      1  C   UNL     1       9.803   1.321  22.497  0.00  0.00    +0.120 A 
ATOM      2  C   UNL     1      10.453   1.452  23.721  0.00  0.00    +0.046 A 
ATOM      3  C   UNL     1      10.079   0.641  24.788  0.00  0.00    +0.019 A 
ATOM      4  C   UNL     1       9.067  -0.306  24.605  0.00  0.00    +0.068 A 
ATOM      5  C   UNL     1       8.639  -1.159  25.712  0.00  0.00    +0.234 A 
ATOM      6  C   UNL     1       7.642  -2.207  25.413  0.00  0.00    +0.208 A 
ATOM      7  C   UNL     1       7.163  -2.324  24.157  0.00  0.00    +0.181 A 
ATOM      8  O   UNL     1       7.497  -1.433  23.132  0.00  0.00    -0.451 OA
ATOM      9  O   UNL     1       9.084  -1.051  26.850  0.00  0.00    -0.283 OA
ATOM     10  C   UNL     1       8.446  -0.467  23.370  0.00  0.00    +0.143 A 
ATOM     11  C   UNL     1       8.803   0.367  22.308  0.00  0.00    +0.092 A 
ENDROOT
BRANCH   7  12
ATOM     12  C   UNL     1       6.239  -3.412  23.725  0.00  0.00    +0.025 A 
ATOM     13  C   UNL     1       6.725  -4.562  23.080  0.00  0.00    +0.060 A 
ATOM     14  C   UNL     1       5.852  -5.591  22.728  0.00  0.00    +0.159 A 
ATOM     15  C   UNL     1       4.489  -5.502  22.996  0.00  0.00    +0.158 A 
ATOM     16  C   UNL     1       3.981  -4.386  23.636  0.00  0.00    +0.050 A 
ATOM     17  C   UNL     1       4.858  -3.361  24.010  0.00  0.00    +0.015 A 
BRANCH  14  18
ATOM     18  O   UNL     1       6.346  -6.711  22.119  0.00  0.00    -0.503 OA
ATOM     19  H   UNL     1       6.121  -7.440  22.732  0.00  0.00    +0.292 HD
ENDBRANCH  14  18
BRANCH  15  20
ATOM     20  O   UNL     1       3.687  -6.544  22.619  0.00  0.00    -0.503 OA
ATOM     21  H   UNL     1       2.846  -6.177  22.296  0.00  0.00    +0.292 HD
ENDBRANCH  15  20
ENDBRANCH   7  12
BRANCH   1  22
ATOM     22  O   UNL     1      10.190   2.161  21.494  0.00  0.00    -0.507 OA
ATOM     23  H   UNL     1      10.062   1.717  20.639  0.00  0.00    +0.292 HD
ENDBRANCH   1  22
BRANCH   6  24
ATOM     24  O   UNL     1       7.288  -3.019  26.476  0.00  0.00    -0.501 OA
ATOM     25  H   UNL     1       6.342  -3.232  26.324  0.00  0.00    +0.292 HD
ENDBRANCH   6  24
TORSDOF 5
ENDMDL
MODEL 4
REMARK VINA RESULT:      -6.8      2.203      6.386
REMARK  Name = 
REMARK  5 active torsions:
REMARK  status: ('A' for Active; 'I' for Inactive)
REMARK    1  A    between atoms: O_1  and  C_2
REMARK    2  A    between atoms: C_10  and  O_11
REMARK    3  A    between atoms: C_12  and  C_14
REMARK    4  A    between atoms: C_17  and  O_18
REMARK    5  A    between atoms: C_19  and  O_20
REMARK                            x       y       z     vdW  Elec       q    Type
REMARK                         _______ _______ _______ _____ _____    ______ ____
ROOT
ATOM      1  C   UNL     1       7.279   1.517  22.250  0.00  0.00    +0.120 A 
ATOM      2  C   UNL     1       8.551   1.488  21.684  0.00  0.00    +0.046 A 
ATOM      3  C   UNL     1       9.399   0.417  21.955  0.00  0.00    +0.019 A 
ATOM      4  C   UNL     1       8.949  -0.621  22.775  0.00  0.00    +0.068 A 
ATOM      5  C   UNL     1       9.824  -1.748  23.093  0.00  0.00    +0.234 A 
ATOM      6  C   UNL     1       9.242  -2.857  23.877  0.00  0.00    +0.208 A 
ATOM      7  C   UNL     1       7.956  -2.780  24.275  0.00  0.00    +0.181 A 
ATOM      8  O   UNL     1       7.162  -1.649  24.060  0.00  0.00    -0.451 OA
ATOM      9  O   UNL     1      10.991  -1.814  22.722  0.00  0.00    -0.283 OA
ATOM     10  C   UNL     1       7.663  -0.614  23.306  0.00  0.00    +0.143 A 
ATOM     11  C   UNL     1       6.824   0.475  23.058  0.00  0.00    +0.092 A 
ENDROOT
BRANCH   7  12
ATOM     12  C   UNL     1       7.241  -3.886  24.975  0.00  0.00    +0.025 A 
ATOM     13  C   UNL     1       7.761  -4.454  26.151  0.00  0.00    +0.060 A 
ATOM     14  C   UNL     1       7.053  -5.454  26.818  0.00  0.00    +0.159 A 
ATOM     15  C   UNL     1       5.832  -5.916  26.337  0.00  0.00    +0.158 A 
ATOM     16  C   UNL     1       5.291  -5.372  25.185  0.00  0.00    +0.050 A 
ATOM     17  C   UNL     1       5.988  -4.353  24.525  0.00  0.00    +0.015 A 
BRANCH  14  18
ATOM     18  O   UNL     1       7.564  -5.982  27.972  0.00  0.00    -0.503 OA
ATOM     19  H   UNL     1       7.894  -5.205  28.468  0.00  0.00    +0.292 HD
ENDBRANCH  14  18
BRANCH  15  20
ATOM     20  O   UNL     1       5.193  -6.904  27.035  0.00  0.00    -0.503 OA
ATOM     21  H   UNL     1       4.241  -6.709  27.035  0.00  0.00    +0.292 HD
ENDBRANCH  15  20
ENDBRANCH   7  12
BRANCH   1  22
ATOM     22  O   UNL     1       6.500   2.603  21.975  0.00  0.00    -0.507 OA
ATOM     23  H   UNL     1       5.715   2.584  22.546  0.00  0.00    +0.292 HD
ENDBRANCH   1  22
BRANCH   6  24
ATOM     24  O   UNL     1      10.088  -3.924  24.126  0.00  0.00    -0.501 OA
ATOM     25  H   UNL     1       9.932  -4.150  25.069  0.00  0.00    +0.292 HD
ENDBRANCH   6  24
TORSDOF 5
ENDMDL
MODEL 5
REMARK VINA RESULT:      -6.8      2.096      2.934
REMARK  Name = 
REMARK  5 active torsions:
REMARK  status: ('A' for Active; 'I' for Inactive)
REMARK    1  A    between atoms: O_1  and  C_2
REMARK    2  A    between atoms: C_10  and  O_11
REMARK    3  A    between atoms: C_12  and  C_14
REMARK    4  A    between atoms: C_17  and  O_18
REMARK    5  A    between atoms: C_19  and  O_20
REMARK                            x       y       z     vdW  Elec       q    Type
REMARK                         _______ _______ _______ _____ _____    ______ ____
ROOT
ATOM      1  C   UNL     1       4.000  -6.529  24.102  0.00  0.00    +0.120 A 
ATOM      2  C   UNL     1       4.042  -7.106  25.368  0.00  0.00    +0.046 A 
ATOM      3  C   UNL     1       5.060  -6.755  26.249  0.00  0.00    +0.019 A 
ATOM      4  C   UNL     1       6.013  -5.813  25.853  0.00  0.00    +0.068 A 
ATOM      5  C   UNL     1       7.105  -5.439  26.749  0.00  0.00    +0.234 A 
ATOM      6  C   UNL     1       8.009  -4.358  26.303  0.00  0.00    +0.208 A 
ATOM      7  C   UNL     1       7.804  -3.781  25.100  0.00  0.00    +0.181 A 
ATOM      8  O   UNL     1       6.824  -4.222  24.205  0.00  0.00    -0.451 OA
ATOM      9  O   UNL     1       7.282  -5.963  27.844  0.00  0.00    -0.283 OA
ATOM     10  C   UNL     1       5.947  -5.203  24.604  0.00  0.00    +0.143 A 
ATOM     11  C   UNL     1       4.942  -5.578  23.709  0.00  0.00    +0.092 A 
ENDROOT
BRANCH   7  12
ATOM     12  C   UNL     1       8.587  -2.615  24.602  0.00  0.00    +0.025 A 
ATOM     13  C   UNL     1       9.158  -2.621  23.317  0.00  0.00    +0.060 A 
ATOM     14  C   UNL     1       9.845  -1.500  22.850  0.00  0.00    +0.159 A 
ATOM     15  C   UNL     1       9.988  -0.362  23.638  0.00  0.00    +0.158 A 
ATOM     16  C   UNL     1       9.431  -0.323  24.905  0.00  0.00    +0.050 A 
ATOM     17  C   UNL     1       8.723  -1.438  25.368  0.00  0.00    +0.015 A 
BRANCH  14  18
ATOM     18  O   UNL     1      10.377  -1.517  21.591  0.00  0.00    -0.503 OA
ATOM     19  H   UNL     1       9.599  -1.574  20.999  0.00  0.00    +0.292 HD
ENDBRANCH  14  18
BRANCH  15  20
ATOM     20  O   UNL     1      10.679   0.699  23.122  0.00  0.00    -0.503 OA
ATOM     21  H   UNL     1      11.625   0.558  23.295  0.00  0.00    +0.292 HD
ENDBRANCH  15  20
ENDBRANCH   7  12
BRANCH   1  22
ATOM     22  O   UNL     1       2.997  -6.930  23.268  0.00  0.00    -0.507 OA
ATOM     23  H   UNL     1       2.969  -6.341  22.496  0.00  0.00    +0.292 HD
ENDBRANCH   1  22
BRANCH   6  24
ATOM     24  O   UNL     1       9.008  -4.005  27.193  0.00  0.00    -0.501 OA
ATOM     25  H   UNL     1       8.539  -3.836  28.039  0.00  0.00    +0.292 HD
ENDBRANCH   6  24
TORSDOF 5
ENDMDL
MODEL 6
REMARK VINA RESULT:      -6.8      2.559      2.841
REMARK  Name = 
REMARK  5 active torsions:
REMARK  status: ('A' for Active; 'I' for Inactive)
REMARK    1  A    between atoms: O_1  and  C_2
REMARK    2  A    between atoms: C_10  and  O_11
REMARK    3  A    between atoms: C_12  and  C_14
REMARK    4  A    between atoms: C_17  and  O_18
REMARK    5  A    between atoms: C_19  and  O_20
REMARK                            x       y       z     vdW  Elec       q    Type
REMARK                         _______ _______ _______ _____ _____    ______ ____
ROOT
ATOM      1  C   UNL     1       5.755  -3.941  27.538  0.00  0.00    +0.120 A 
ATOM      2  C   UNL     1       6.439  -5.149  27.448  0.00  0.00    +0.046 A 
ATOM      3  C   UNL     1       7.537  -5.255  26.598  0.00  0.00    +0.019 A 
ATOM      4  C   UNL     1       7.945  -4.137  25.865  0.00  0.00    +0.068 A 
ATOM      5  C   UNL     1       9.082  -4.223  24.951  0.00  0.00    +0.234 A 
ATOM      6  C   UNL     1       9.519  -2.974  24.294  0.00  0.00    +0.208 A 
ATOM      7  C   UNL     1       8.854  -1.827  24.546  0.00  0.00    +0.181 A 
ATOM      8  O   UNL     1       7.701  -1.778  25.337  0.00  0.00    -0.451 OA
ATOM      9  O   UNL     1       9.686  -5.268  24.731  0.00  0.00    -0.283 OA
ATOM     10  C   UNL     1       7.287  -2.916  25.987  0.00  0.00    +0.143 A 
ATOM     11  C   UNL     1       6.168  -2.819  26.817  0.00  0.00    +0.092 A 
ENDROOT
BRANCH   7  12
ATOM     12  C   UNL     1       9.276  -0.497  24.023  0.00  0.00    +0.025 A 
ATOM     13  C   UNL     1       8.931  -0.087  22.723  0.00  0.00    +0.060 A 
ATOM     14  C   UNL     1       9.292   1.182  22.269  0.00  0.00    +0.159 A 
ATOM     15  C   UNL     1      10.004   2.061  23.079  0.00  0.00    +0.158 A 
ATOM     16  C   UNL     1      10.353   1.689  24.366  0.00  0.00    +0.050 A 
ATOM     17  C   UNL     1       9.973   0.425  24.833  0.00  0.00    +0.015 A 
BRANCH  14  18
ATOM     18  O   UNL     1       8.931   1.571  21.009  0.00  0.00    -0.503 OA
ATOM     19  H   UNL     1       9.410   2.413  20.869  0.00  0.00    +0.292 HD
ENDBRANCH  14  18
BRANCH  15  20
ATOM     20  O   UNL     1      10.334   3.287  22.570  0.00  0.00    -0.503 OA
ATOM     21  H   UNL     1       9.533   3.679  22.181  0.00  0.00    +0.292 HD
ENDBRANCH  15  20
ENDBRANCH   7  12
BRANCH   1  22
ATOM     22  O   UNL     1       4.669  -3.900  28.363  0.00  0.00    -0.507 OA
ATOM     23  H   UNL     1       4.061  -4.620  28.126  0.00  0.00    +0.292 HD
ENDBRANCH   1  22
BRANCH   6  24
ATOM     24  O   UNL     1      10.621  -3.086  23.465  0.00  0.00    -0.501 OA
ATOM     25  H   UNL     1      10.489  -2.395  22.780  0.00  0.00    +0.292 HD
ENDBRANCH   6  24
TORSDOF 5
ENDMDL
MODEL 7
REMARK VINA RESULT:      -6.7      1.861      6.636
REMARK  Name = 
REMARK  5 active torsions:
REMARK  status: ('A' for Active; 'I' for Inactive)
REMARK    1  A    between atoms: O_1  and  C_2
REMARK    2  A    between atoms: C_10  and  O_11
REMARK    3  A    between atoms: C_12  and  C_14
REMARK    4  A    between atoms: C_17  and  O_18
REMARK    5  A    between atoms: C_19  and  O_20
REMARK                            x       y       z     vdW  Elec       q    Type
REMARK                         _______ _______ _______ _____ _____    ______ ____
ROOT
ATOM      1  C   UNL     1       7.171   2.397  22.131  0.00  0.00    +0.120 A 
ATOM      2  C   UNL     1       8.554   2.556  22.127  0.00  0.00    +0.046 A 
ATOM      3  C   UNL     1       9.370   1.484  22.477  0.00  0.00    +0.019 A 
ATOM      4  C   UNL     1       8.785   0.259  22.810  0.00  0.00    +0.068 A 
ATOM      5  C   UNL     1       9.615  -0.878  23.201  0.00  0.00    +0.234 A 
ATOM      6  C   UNL     1       8.932  -2.168  23.432  0.00  0.00    +0.208 A 
ATOM      7  C   UNL     1       7.592  -2.239  23.292  0.00  0.00    +0.181 A 
ATOM      8  O   UNL     1       6.797  -1.120  23.025  0.00  0.00    -0.451 OA
ATOM      9  O   UNL     1      10.834  -0.807  23.320  0.00  0.00    -0.283 OA
ATOM     10  C   UNL     1       7.404   0.087  22.773  0.00  0.00    +0.143 A 
ATOM     11  C   UNL     1       6.585   1.171  22.450  0.00  0.00    +0.092 A 
ENDROOT
BRANCH   7  12
ATOM     12  C   UNL     1       6.819  -3.510  23.397  0.00  0.00    +0.025 A 
ATOM     13  C   UNL     1       6.480  -4.248  22.249  0.00  0.00    +0.060 A 
ATOM     14  C   UNL     1       5.800  -5.460  22.371  0.00  0.00    +0.159 A 
ATOM     15  C   UNL     1       5.436  -5.960  23.617  0.00  0.00    +0.158 A 
ATOM     16  C   UNL     1       5.762  -5.260  24.766  0.00  0.00    +0.050 A 
ATOM     17  C   UNL     1       6.463  -4.054  24.649  0.00  0.00    +0.015 A 
BRANCH  14  18
ATOM     18  O   UNL     1       5.496  -6.174  21.245  0.00  0.00    -0.503 OA
ATOM     19  H   UNL     1       6.358  -6.303  20.799  0.00  0.00    +0.292 HD
ENDBRANCH  14  18
BRANCH  15  20
ATOM     20  O   UNL     1       4.765  -7.150  23.666  0.00  0.00    -0.503 OA
ATOM     21  H   UNL     1       4.408  -7.261  24.563  0.00  0.00    +0.292 HD
ENDBRANCH  15  20
ENDBRANCH   7  12
BRANCH   1  22
ATOM     22  O   UNL     1       6.418   3.488  21.808  0.00  0.00    -0.507 OA
ATOM     23  H   UNL     1       6.881   4.005  21.129  0.00  0.00    +0.292 HD
ENDBRANCH   1  22
BRANCH   6  24
ATOM     24  O   UNL     1       9.753  -3.231  23.764  0.00  0.00    -0.501 OA
ATOM     25  H   UNL     1       9.138  -3.973  23.950  0.00  0.00    +0.292 HD
ENDBRANCH   6  24
TORSDOF 5
ENDMDL
MODEL 8
REMARK VINA RESULT:      -6.6      1.499      6.690
REMARK  Name = 
REMARK  5 active torsions:
REMARK  status: ('A' for Active; 'I' for Inactive)
REMARK    1  A    between atoms: O_1  and  C_2
REMARK    2  A    between atoms: C_10  and  O_11
REMARK    3  A    between atoms: C_12  and  C_14
REMARK    4  A    between atoms: C_17  and  O_18
REMARK    5  A    between atoms: C_19  and  O_20
REMARK                            x       y       z     vdW  Elec       q    Type
REMARK                         _______ _______ _______ _____ _____    ______ ____
ROOT
ATOM      1  C   UNL     1       8.508   2.012  22.127  0.00  0.00    +0.120 A 
ATOM      2  C   UNL     1       9.818   1.570  21.966  0.00  0.00    +0.046 A 
ATOM      3  C   UNL     1      10.135   0.245  22.253  0.00  0.00    +0.019 A 
ATOM      4  C   UNL     1       9.127  -0.623  22.679  0.00  0.00    +0.068 A 
ATOM      5  C   UNL     1       9.433  -2.015  23.005  0.00  0.00    +0.234 A 
ATOM      6  C   UNL     1       8.298  -2.897  23.343  0.00  0.00    +0.208 A 
ATOM      7  C   UNL     1       7.047  -2.390  23.353  0.00  0.00    +0.181 A 
ATOM      8  O   UNL     1       6.778  -1.034  23.146  0.00  0.00    -0.451 OA
ATOM      9  O   UNL     1      10.572  -2.470  22.988  0.00  0.00    -0.283 OA
ATOM     10  C   UNL     1       7.808  -0.193  22.798  0.00  0.00    +0.143 A 
ATOM     11  C   UNL     1       7.496   1.144  22.538  0.00  0.00    +0.092 A 
ENDROOT
BRANCH   7  12
ATOM     12  C   UNL     1       5.825  -3.215  23.573  0.00  0.00    +0.025 A 
ATOM     13  C   UNL     1       5.549  -4.332  22.766  0.00  0.00    +0.060 A 
ATOM     14  C   UNL     1       4.427  -5.120  23.019  0.00  0.00    +0.159 A 
ATOM     15  C   UNL     1       3.556  -4.820  24.062  0.00  0.00    +0.158 A 
ATOM     16  C   UNL     1       3.804  -3.731  24.879  0.00  0.00    +0.050 A 
ATOM     17  C   UNL     1       4.941  -2.950  24.641  0.00  0.00    +0.015 A 
BRANCH  14  18
ATOM     18  O   UNL     1       4.185  -6.214  22.235  0.00  0.00    -0.503 OA
ATOM     19  H   UNL     1       3.234  -6.148  22.014  0.00  0.00    +0.292 HD
ENDBRANCH  14  18
BRANCH  15  20
ATOM     20  O   UNL     1       2.470  -5.630  24.252  0.00  0.00    -0.503 OA
ATOM     21  H   UNL     1       1.840  -5.467  23.530  0.00  0.00    +0.292 HD
ENDBRANCH  15  20
ENDBRANCH   7  12
BRANCH   1  22
ATOM     22  O   UNL     1       8.258   3.327  21.860  0.00  0.00    -0.507 OA
ATOM     23  H   UNL     1       9.069   3.745  21.529  0.00  0.00    +0.292 HD
ENDBRANCH   1  22
BRANCH   6  24
ATOM     24  O   UNL     1       8.621  -4.216  23.610  0.00  0.00    -0.501 OA
ATOM     25  H   UNL     1       7.800  -4.718  23.417  0.00  0.00    +0.292 HD
ENDBRANCH   6  24
TORSDOF 5
ENDMDL
MODEL 9
REMARK VINA RESULT:      -6.6      2.026      6.768
REMARK  Name = 
REMARK  5 active torsions:
REMARK  status: ('A' for Active; 'I' for Inactive)
REMARK    1  A    between atoms: O_1  and  C_2
REMARK    2  A    between atoms: C_10  and  O_11
REMARK    3  A    between atoms: C_12  and  C_14
REMARK    4  A    between atoms: C_17  and  O_18
REMARK    5  A    between atoms: C_19  and  O_20
REMARK                            x       y       z     vdW  Elec       q    Type
REMARK                         _______ _______ _______ _____ _____    ______ ____
ROOT
ATOM      1  C   UNL     1       7.139   0.774  23.464  0.00  0.00    +0.120 A 
ATOM      2  C   UNL     1       8.494   0.709  23.155  0.00  0.00    +0.046 A 
ATOM      3  C   UNL     1       9.174  -0.497  23.297  0.00  0.00    +0.019 A 
ATOM      4  C   UNL     1       8.476  -1.629  23.728  0.00  0.00    +0.068 A 
ATOM      5  C   UNL     1       9.167  -2.905  23.905  0.00  0.00    +0.234 A 
ATOM      6  C   UNL     1       8.343  -4.079  24.259  0.00  0.00    +0.208 A 
ATOM      7  C   UNL     1       7.012  -3.926  24.418  0.00  0.00    +0.181 A 
ATOM      8  O   UNL     1       6.378  -2.681  24.355  0.00  0.00    -0.451 OA
ATOM      9  O   UNL     1      10.377  -3.037  23.752  0.00  0.00    -0.283 OA
ATOM     10  C   UNL     1       7.112  -1.575  23.996  0.00  0.00    +0.143 A 
ATOM     11  C   UNL     1       6.437  -0.358  23.882  0.00  0.00    +0.092 A 
ENDROOT
BRANCH   7  12
ATOM     12  C   UNL     1       6.077  -5.060  24.668  0.00  0.00    +0.025 A 
ATOM     13  C   UNL     1       5.998  -5.670  25.932  0.00  0.00    +0.060 A 
ATOM     14  C   UNL     1       5.081  -6.696  26.160  0.00  0.00    +0.159 A 
ATOM     15  C   UNL     1       4.236  -7.144  25.150  0.00  0.00    +0.158 A 
ATOM     16  C   UNL     1       4.285  -6.560  23.896  0.00  0.00    +0.050 A 
ATOM     17  C   UNL     1       5.188  -5.515  23.670  0.00  0.00    +0.015 A 
BRANCH  14  18
ATOM     18  O   UNL     1       5.005  -7.264  27.402  0.00  0.00    -0.503 OA
ATOM     19  H   UNL     1       5.883  -7.677  27.534  0.00  0.00    +0.292 HD
ENDBRANCH  14  18
BRANCH  15  20
ATOM     20  O   UNL     1       3.366  -8.159  25.438  0.00  0.00    -0.503 OA
ATOM     21  H   UNL     1       2.700  -8.198  24.730  0.00  0.00    +0.292 HD
ENDBRANCH  15  20
ENDBRANCH   7  12
BRANCH   1  22
ATOM     22  O   UNL     1       6.528   1.987  23.336  0.00  0.00    -0.507 OA
ATOM     23  H   UNL     1       5.700   1.983  23.843  0.00  0.00    +0.292 HD
ENDBRANCH   1  22
BRANCH   6  24
ATOM     24  O   UNL     1       9.025  -5.276  24.380  0.00  0.00    -0.501 OA
ATOM     25  H   UNL     1       8.696  -5.827  23.638  0.00  0.00    +0.292 HD
ENDBRANCH   6  24
TORSDOF 5
ENDMDL
