MODEL 1
REMARK VINA RESULT:      -5.8      0.000      0.000
REMARK  Name = 
REMARK  31 active torsions:
REMARK  status: ('A' for Active; 'I' for Inactive)
REMARK    1  A    between atoms: C_1  and  C_2
REMARK    2  A    between atoms: C_2  and  C_3
REMARK    3  A    between atoms: C_3  and  C_4
REMARK    4  A    between atoms: C_4  and  C_5
REMARK    5  A    between atoms: C_5  and  C_7
REMARK    6  A    between atoms: C_5  and  C_36
REMARK    7  A    between atoms: C_7  and  N_8
REMARK    8  A    between atoms: N_8  and  N_9
REMARK    9  A    between atoms: N_9  and  C_10
REMARK   10  A    between atoms: C_10  and  C_11
REMARK   11  A    between atoms: C_11  and  C_13
REMARK   12  A    between atoms: C_11  and  C_17
REMARK   13  A    between atoms: C_13  and  C_14
REMARK   14  A    between atoms: C_14  and  C_15
REMARK   15  A    between atoms: C_15  and  C_16
REMARK   16  A    between atoms: N_19  and  C_20
REMARK   17  A    between atoms: C_20  and  C_22
REMARK   18  A    between atoms: C_20  and  C_27
REMARK   19  A    between atoms: C_22  and  C_23
REMARK   20  A    between atoms: C_23  and  C_24
REMARK   21  A    between atoms: C_24  and  C_25
REMARK   22  A    between atoms: C_25  and  N_26
REMARK   23  A    between atoms: N_29  and  C_30
REMARK   24  A    between atoms: N_38  and  C_39
REMARK   25  A    between atoms: C_39  and  C_41
REMARK   26  A    between atoms: C_39  and  C_46
REMARK   27  A    between atoms: C_41  and  C_42
REMARK   28  A    between atoms: C_42  and  C_43
REMARK   29  A    between atoms: C_43  and  C_44
REMARK   30  A    between atoms: C_44  and  N_45
REMARK   31  A    between atoms: N_48  and  C_49
REMARK                            x       y       z     vdW  Elec       q    Type
REMARK                         _______ _______ _______ _____ _____    ______ ____
ROOT
ATOM      1  N   UNL     1       6.844  -0.360  25.087  0.00  0.00    -0.256 NA
ATOM      2  H   UNL     1       7.209  -0.171  24.147  0.00  0.00    +0.141 HD
ENDROOT
BRANCH   1   3
ATOM      3  N   UNL     1       7.397  -1.592  25.623  0.00  0.00    -0.256 NA
ATOM      4  H   UNL     1       7.069  -2.387  25.062  0.00  0.00    +0.141 HD
BRANCH   3   5
ATOM      5  C   UNL     1       8.872  -1.585  25.500  0.00  0.00    +0.111 C 
BRANCH   5   6
ATOM      6  C   UNL     1       9.452  -2.471  24.382  0.00  0.00    +0.090 C 
BRANCH   6   7
ATOM      7  C   UNL     1       9.945  -1.584  23.235  0.00  0.00    +0.218 C 
ATOM      8  N   UNL     1       9.434  -0.314  23.250  0.00  0.00    -0.304 N 
ATOM      9  H   UNL     1       8.729  -0.063  23.943  0.00  0.00    +0.149 HD
ATOM     10  O   UNL     1      10.744  -1.959  22.382  0.00  0.00    -0.275 OA
BRANCH   8  11
ATOM     11  C   UNL     1       9.859   0.775  22.360  0.00  0.00    +0.159 C 
BRANCH  11  12
ATOM     12  C   UNL     1      10.348   1.878  23.332  0.00  0.00    +0.238 C 
ATOM     13  N   UNL     1      10.560   3.119  22.762  0.00  0.00    -0.284 N 
ATOM     14  H   UNL     1      10.449   3.200  21.759  0.00  0.00    +0.155 HD
ATOM     15  O   UNL     1      10.479   1.616  24.532  0.00  0.00    -0.273 OA
BRANCH  13  16
ATOM     16  C   UNL     1      10.837   4.325  23.444  0.00  0.00    +0.033 A 
ATOM     17  C   UNL     1       9.771   4.978  24.078  0.00  0.00    +0.023 A 
ATOM     18  C   UNL     1       9.974   6.193  24.737  0.00  0.00    +0.002 A 
ATOM     19  C   UNL     1      11.241   6.772  24.760  0.00  0.00    +0.000 A 
ATOM     20  C   UNL     1      12.307   6.119  24.153  0.00  0.00    +0.002 A 
ATOM     21  C   UNL     1      12.109   4.897  23.508  0.00  0.00    +0.023 A 
ENDBRANCH  13  16
ENDBRANCH  11  12
BRANCH  11  22
ATOM     22  C   UNL     1       8.691   1.247  21.473  0.00  0.00    +0.032 C 
BRANCH  22  23
ATOM     23  C   UNL     1       7.391   1.543  22.234  0.00  0.00    +0.003 C 
BRANCH  23  24
ATOM     24  C   UNL     1       6.889   2.982  22.105  0.00  0.00    +0.015 C 
BRANCH  24  25
ATOM     25  C   UNL     1       5.643   3.228  22.957  0.00  0.00    +0.077 C 
BRANCH  25  26
ATOM     26  N   UNL     1       5.072   1.970  23.413  0.00  0.00    -0.330 NA
ATOM     27  H   UNL     1       4.717   2.092  24.360  0.00  0.00    +0.118 HD
ATOM     28  H   UNL     1       4.266   1.729  22.837  0.00  0.00    +0.118 HD
ENDBRANCH  25  26
ENDBRANCH  24  25
ENDBRANCH  23  24
ENDBRANCH  22  23
ENDBRANCH  11  22
ENDBRANCH   8  11
ENDBRANCH   6   7
BRANCH   6  29
ATOM     29  C   UNL     1       8.501  -3.598  23.915  0.00  0.00    +0.014 C 
BRANCH  29  30
ATOM     30  C   UNL     1       8.773  -5.027  24.412  0.00  0.00    +0.001 C 
BRANCH  30  31
ATOM     31  C   UNL     1       9.084  -5.127  25.905  0.00  0.00    -0.003 C 
ATOM     32  C   UNL     1       7.838  -4.994  26.763  0.00  0.00    +0.004 C 
ENDBRANCH  30  31
ENDBRANCH  29  30
ENDBRANCH   6  29
ENDBRANCH   5   6
ENDBRANCH   3   5
ENDBRANCH   1   3
BRANCH   1  33
ATOM     33  C   UNL     1       7.244   0.755  25.963  0.00  0.00    +0.111 C 
BRANCH  33  34
ATOM     34  C   UNL     1       6.191   1.065  27.050  0.00  0.00    +0.090 C 
BRANCH  34  35
ATOM     35  C   UNL     1       4.855   0.396  26.662  0.00  0.00    +0.218 C 
ATOM     36  N   UNL     1       4.690  -0.876  27.188  0.00  0.00    -0.304 N 
ATOM     37  H   UNL     1       5.499  -1.339  27.580  0.00  0.00    +0.149 HD
ATOM     38  O   UNL     1       4.012   0.910  25.935  0.00  0.00    -0.275 OA
BRANCH  36  39
ATOM     39  C   UNL     1       3.471  -1.696  27.046  0.00  0.00    +0.159 C 
BRANCH  39  40
ATOM     40  C   UNL     1       3.515  -2.641  25.820  0.00  0.00    +0.238 C 
ATOM     41  N   UNL     1       4.768  -2.861  25.291  0.00  0.00    -0.284 N 
ATOM     42  H   UNL     1       5.442  -2.108  25.418  0.00  0.00    +0.155 HD
ATOM     43  O   UNL     1       2.480  -3.048  25.286  0.00  0.00    -0.273 OA
BRANCH  41  44
ATOM     44  C   UNL     1       4.991  -3.799  24.273  0.00  0.00    +0.033 A 
ATOM     45  C   UNL     1       5.226  -3.400  22.950  0.00  0.00    +0.023 A 
ATOM     46  C   UNL     1       5.470  -4.350  21.961  0.00  0.00    +0.002 A 
ATOM     47  C   UNL     1       5.512  -5.698  22.299  0.00  0.00    +0.000 A 
ATOM     48  C   UNL     1       5.266  -6.100  23.615  0.00  0.00    +0.002 A 
ATOM     49  C   UNL     1       4.977  -5.151  24.596  0.00  0.00    +0.023 A 
ENDBRANCH  41  44
ENDBRANCH  39  40
BRANCH  39  50
ATOM     50  C   UNL     1       3.277  -2.633  28.265  0.00  0.00    +0.032 C 
BRANCH  50  51
ATOM     51  C   UNL     1       4.387  -3.631  28.578  0.00  0.00    +0.003 C 
BRANCH  51  52
ATOM     52  C   UNL     1       3.907  -4.988  29.089  0.00  0.00    +0.015 C 
BRANCH  52  53
ATOM     53  C   UNL     1       4.914  -6.115  28.847  0.00  0.00    +0.077 C 
BRANCH  53  54
ATOM     54  N   UNL     1       4.268  -7.412  28.991  0.00  0.00    -0.330 NA
ATOM     55  H   UNL     1       3.611  -7.374  29.770  0.00  0.00    +0.118 HD
ATOM     56  H   UNL     1       3.709  -7.611  28.162  0.00  0.00    +0.118 HD
ENDBRANCH  53  54
ENDBRANCH  52  53
ENDBRANCH  51  52
ENDBRANCH  50  51
ENDBRANCH  39  50
ENDBRANCH  36  39
ENDBRANCH  34  35
BRANCH  34  57
ATOM     57  C   UNL     1       6.696   0.739  28.487  0.00  0.00    +0.014 C 
BRANCH  57  58
ATOM     58  C   UNL     1       6.195   1.775  29.519  0.00  0.00    +0.001 C 
BRANCH  58  60
ATOM     59  C   UNL     1       6.535   4.239  28.914  0.00  0.00    +0.004 C 
ATOM     60  C   UNL     1       7.044   3.038  29.696  0.00  0.00    -0.003 C 
ENDBRANCH  58  60
ENDBRANCH  57  58
ENDBRANCH  34  57
ENDBRANCH  33  34
ENDBRANCH   1  33
TORSDOF 29
ENDMDL
MODEL 2
REMARK VINA RESULT:      -5.4      1.660      5.510
REMARK  Name = 
REMARK  31 active torsions:
REMARK  status: ('A' for Active; 'I' for Inactive)
REMARK    1  A    between atoms: C_1  and  C_2
REMARK    2  A    between atoms: C_2  and  C_3
REMARK    3  A    between atoms: C_3  and  C_4
REMARK    4  A    between atoms: C_4  and  C_5
REMARK    5  A    between atoms: C_5  and  C_7
REMARK    6  A    between atoms: C_5  and  C_36
REMARK    7  A    between atoms: C_7  and  N_8
REMARK    8  A    between atoms: N_8  and  N_9
REMARK    9  A    between atoms: N_9  and  C_10
REMARK   10  A    between atoms: C_10  and  C_11
REMARK   11  A    between atoms: C_11  and  C_13
REMARK   12  A    between atoms: C_11  and  C_17
REMARK   13  A    between atoms: C_13  and  C_14
REMARK   14  A    between atoms: C_14  and  C_15
REMARK   15  A    between atoms: C_15  and  C_16
REMARK   16  A    between atoms: N_19  and  C_20
REMARK   17  A    between atoms: C_20  and  C_22
REMARK   18  A    between atoms: C_20  and  C_27
REMARK   19  A    between atoms: C_22  and  C_23
REMARK   20  A    between atoms: C_23  and  C_24
REMARK   21  A    between atoms: C_24  and  C_25
REMARK   22  A    between atoms: C_25  and  N_26
REMARK   23  A    between atoms: N_29  and  C_30
REMARK   24  A    between atoms: N_38  and  C_39
REMARK   25  A    between atoms: C_39  and  C_41
REMARK   26  A    between atoms: C_39  and  C_46
REMARK   27  A    between atoms: C_41  and  C_42
REMARK   28  A    between atoms: C_42  and  C_43
REMARK   29  A    between atoms: C_43  and  C_44
REMARK   30  A    between atoms: C_44  and  N_45
REMARK   31  A    between atoms: N_48  and  C_49
REMARK                            x       y       z     vdW  Elec       q    Type
REMARK                         _______ _______ _______ _____ _____    ______ ____
ROOT
ATOM      1  N   UNL     1       4.920   0.875  24.948  0.00  0.00    -0.256 NA
ATOM      2  H   UNL     1       4.068   0.325  25.106  0.00  0.00    +0.141 HD
ENDROOT
BRANCH   1   3
ATOM      3  N   UNL     1       4.697   1.901  23.943  0.00  0.00    -0.256 NA
ATOM      4  H   UNL     1       3.695   1.951  23.722  0.00  0.00    +0.141 HD
BRANCH   3   5
ATOM      5  C   UNL     1       5.065   3.230  24.480  0.00  0.00    +0.111 C 
BRANCH   5   6
ATOM      6  C   UNL     1       5.690   4.209  23.467  0.00  0.00    +0.090 C 
BRANCH   6   7
ATOM      7  C   UNL     1       6.981   3.604  22.907  0.00  0.00    +0.218 C 
ATOM      8  N   UNL     1       7.518   2.613  23.684  0.00  0.00    -0.304 N 
ATOM      9  H   UNL     1       7.095   2.395  24.585  0.00  0.00    +0.149 HD
ATOM     10  O   UNL     1       7.489   3.953  21.846  0.00  0.00    -0.275 OA
BRANCH   8  11
ATOM     11  C   UNL     1       8.659   1.770  23.302  0.00  0.00    +0.159 C 
BRANCH  11  12
ATOM     12  C   UNL     1       8.175   0.331  23.611  0.00  0.00    +0.238 C 
ATOM     13  N   UNL     1       9.080  -0.467  24.287  0.00  0.00    -0.284 N 
ATOM     14  H   UNL     1      10.000  -0.084  24.466  0.00  0.00    +0.155 HD
ATOM     15  O   UNL     1       7.032  -0.008  23.290  0.00  0.00    -0.273 OA
BRANCH  13  16
ATOM     16  C   UNL     1       8.834  -1.745  24.836  0.00  0.00    +0.033 A 
ATOM     17  C   UNL     1       9.296  -2.861  24.126  0.00  0.00    +0.023 A 
ATOM     18  C   UNL     1       9.052  -4.154  24.599  0.00  0.00    +0.002 A 
ATOM     19  C   UNL     1       8.334  -4.342  25.778  0.00  0.00    +0.000 A 
ATOM     20  C   UNL     1       7.892  -3.238  26.499  0.00  0.00    +0.002 A 
ATOM     21  C   UNL     1       8.150  -1.947  26.037  0.00  0.00    +0.023 A 
ENDBRANCH  13  16
ENDBRANCH  11  12
BRANCH  11  22
ATOM     22  C   UNL     1       9.918   2.153  24.103  0.00  0.00    +0.032 C 
BRANCH  22  23
ATOM     23  C   UNL     1      10.971   2.931  23.302  0.00  0.00    +0.003 C 
BRANCH  23  24
ATOM     24  C   UNL     1      11.039   4.426  23.620  0.00  0.00    +0.015 C 
BRANCH  24  25
ATOM     25  C   UNL     1      12.425   5.006  23.336  0.00  0.00    +0.077 C 
BRANCH  25  26
ATOM     26  N   UNL     1      12.745   6.066  24.280  0.00  0.00    -0.330 NA
ATOM     27  H   UNL     1      13.737   6.289  24.204  0.00  0.00    +0.118 HD
ATOM     28  H   UNL     1      12.244   6.916  24.026  0.00  0.00    +0.118 HD
ENDBRANCH  25  26
ENDBRANCH  24  25
ENDBRANCH  23  24
ENDBRANCH  22  23
ENDBRANCH  11  22
ENDBRANCH   8  11
ENDBRANCH   6   7
BRANCH   6  29
ATOM     29  C   UNL     1       5.876   5.644  24.012  0.00  0.00    +0.014 C 
BRANCH  29  30
ATOM     30  C   UNL     1       6.590   5.818  25.362  0.00  0.00    +0.001 C 
BRANCH  30  31
ATOM     31  C   UNL     1       8.045   6.273  25.254  0.00  0.00    -0.003 C 
ATOM     32  C   UNL     1       8.330   6.980  23.940  0.00  0.00    +0.004 C 
ENDBRANCH  30  31
ENDBRANCH  29  30
ENDBRANCH   6  29
ENDBRANCH   5   6
ENDBRANCH   3   5
ENDBRANCH   1   3
BRANCH   1  33
ATOM     33  C   UNL     1       5.279   1.532  26.218  0.00  0.00    +0.111 C 
BRANCH  33  34
ATOM     34  C   UNL     1       4.747   0.770  27.452  0.00  0.00    +0.090 C 
BRANCH  34  35
ATOM     35  C   UNL     1       3.612  -0.178  27.007  0.00  0.00    +0.218 C 
ATOM     36  N   UNL     1       4.002  -1.502  26.880  0.00  0.00    -0.304 N 
ATOM     37  H   UNL     1       4.992  -1.709  26.870  0.00  0.00    +0.149 HD
ATOM     38  O   UNL     1       2.467   0.186  26.758  0.00  0.00    -0.275 OA
BRANCH  36  39
ATOM     39  C   UNL     1       3.096  -2.622  26.558  0.00  0.00    +0.159 C 
BRANCH  39  40
ATOM     40  C   UNL     1       3.490  -3.365  25.258  0.00  0.00    +0.238 C 
ATOM     41  N   UNL     1       4.764  -3.114  24.799  0.00  0.00    -0.284 N 
ATOM     42  H   UNL     1       5.151  -2.202  25.038  0.00  0.00    +0.155 HD
ATOM     43  O   UNL     1       2.664  -4.024  24.620  0.00  0.00    -0.273 OA
BRANCH  41  44
ATOM     44  C   UNL     1       5.317  -3.816  23.718  0.00  0.00    +0.033 A 
ATOM     45  C   UNL     1       5.506  -5.204  23.766  0.00  0.00    +0.023 A 
ATOM     46  C   UNL     1       6.034  -5.881  22.670  0.00  0.00    +0.002 A 
ATOM     47  C   UNL     1       6.343  -5.177  21.512  0.00  0.00    +0.000 A 
ATOM     48  C   UNL     1       6.168  -3.792  21.465  0.00  0.00    +0.002 A 
ATOM     49  C   UNL     1       5.682  -3.107  22.578  0.00  0.00    +0.023 A 
ENDBRANCH  41  44
ENDBRANCH  39  40
BRANCH  39  50
ATOM     50  C   UNL     1       3.127  -3.708  27.663  0.00  0.00    +0.032 C 
BRANCH  50  51
ATOM     51  C   UNL     1       4.409  -3.861  28.475  0.00  0.00    +0.003 C 
BRANCH  51  52
ATOM     52  C   UNL     1       4.583  -5.218  29.153  0.00  0.00    +0.015 C 
BRANCH  52  53
ATOM     53  C   UNL     1       4.319  -6.399  28.216  0.00  0.00    +0.077 C 
BRANCH  53  54
ATOM     54  N   UNL     1       5.353  -7.412  28.373  0.00  0.00    -0.330 NA
ATOM     55  H   UNL     1       6.161  -7.157  27.804  0.00  0.00    +0.118 HD
ATOM     56  H   UNL     1       5.681  -7.422  29.338  0.00  0.00    +0.118 HD
ENDBRANCH  53  54
ENDBRANCH  52  53
ENDBRANCH  51  52
ENDBRANCH  50  51
ENDBRANCH  39  50
ENDBRANCH  36  39
ENDBRANCH  34  35
BRANCH  34  57
ATOM     57  C   UNL     1       5.881   0.093  28.278  0.00  0.00    +0.014 C 
BRANCH  57  58
ATOM     58  C   UNL     1       7.124   1.004  28.396  0.00  0.00    +0.001 C 
BRANCH  58  60
ATOM     59  C   UNL     1       6.790   3.455  29.056  0.00  0.00    +0.004 C 
ATOM     60  C   UNL     1       7.112   2.043  29.522  0.00  0.00    -0.003 C 
ENDBRANCH  58  60
ENDBRANCH  57  58
ENDBRANCH  34  57
ENDBRANCH  33  34
ENDBRANCH   1  33
TORSDOF 29
ENDMDL
MODEL 3
REMARK VINA RESULT:      -5.3      1.939      5.271
REMARK  Name = 
REMARK  31 active torsions:
REMARK  status: ('A' for Active; 'I' for Inactive)
REMARK    1  A    between atoms: C_1  and  C_2
REMARK    2  A    between atoms: C_2  and  C_3
REMARK    3  A    between atoms: C_3  and  C_4
REMARK    4  A    between atoms: C_4  and  C_5
REMARK    5  A    between atoms: C_5  and  C_7
REMARK    6  A    between atoms: C_5  and  C_36
REMARK    7  A    between atoms: C_7  and  N_8
REMARK    8  A    between atoms: N_8  and  N_9
REMARK    9  A    between atoms: N_9  and  C_10
REMARK   10  A    between atoms: C_10  and  C_11
REMARK   11  A    between atoms: C_11  and  C_13
REMARK   12  A    between atoms: C_11  and  C_17
REMARK   13  A    between atoms: C_13  and  C_14
REMARK   14  A    between atoms: C_14  and  C_15
REMARK   15  A    between atoms: C_15  and  C_16
REMARK   16  A    between atoms: N_19  and  C_20
REMARK   17  A    between atoms: C_20  and  C_22
REMARK   18  A    between atoms: C_20  and  C_27
REMARK   19  A    between atoms: C_22  and  C_23
REMARK   20  A    between atoms: C_23  and  C_24
REMARK   21  A    between atoms: C_24  and  C_25
REMARK   22  A    between atoms: C_25  and  N_26
REMARK   23  A    between atoms: N_29  and  C_30
REMARK   24  A    between atoms: N_38  and  C_39
REMARK   25  A    between atoms: C_39  and  C_41
REMARK   26  A    between atoms: C_39  and  C_46
REMARK   27  A    between atoms: C_41  and  C_42
REMARK   28  A    between atoms: C_42  and  C_43
REMARK   29  A    between atoms: C_43  and  C_44
REMARK   30  A    between atoms: C_44  and  N_45
REMARK   31  A    between atoms: N_48  and  C_49
REMARK                            x       y       z     vdW  Elec       q    Type
REMARK                         _______ _______ _______ _____ _____    ______ ____
ROOT
ATOM      1  N   UNL     1       4.851   1.455  24.497  0.00  0.00    -0.256 NA
ATOM      2  H   UNL     1       4.195   0.772  24.894  0.00  0.00    +0.141 HD
ENDROOT
BRANCH   1   3
ATOM      3  N   UNL     1       4.141   2.586  23.924  0.00  0.00    -0.256 NA
ATOM      4  H   UNL     1       3.263   2.260  23.501  0.00  0.00    +0.141 HD
BRANCH   3   5
ATOM      5  C   UNL     1       3.754   3.539  24.987  0.00  0.00    +0.111 C 
BRANCH   5   6
ATOM      6  C   UNL     1       3.888   5.031  24.628  0.00  0.00    +0.090 C 
BRANCH   6   7
ATOM      7  C   UNL     1       4.669   5.169  23.318  0.00  0.00    +0.218 C 
ATOM      8  N   UNL     1       6.021   5.002  23.453  0.00  0.00    -0.304 N 
ATOM      9  H   UNL     1       6.424   4.878  24.381  0.00  0.00    +0.149 HD
ATOM     10  O   UNL     1       4.141   5.389  22.232  0.00  0.00    -0.275 OA
BRANCH   8  11
ATOM     11  C   UNL     1       6.976   4.932  22.337  0.00  0.00    +0.159 C 
BRANCH  11  12
ATOM     12  C   UNL     1       7.338   3.427  22.254  0.00  0.00    +0.238 C 
ATOM     13  N   UNL     1       8.681   3.132  22.399  0.00  0.00    -0.284 N 
ATOM     14  H   UNL     1       9.326   3.908  22.477  0.00  0.00    +0.155 HD
ATOM     15  O   UNL     1       6.439   2.593  22.112  0.00  0.00    -0.273 OA
BRANCH  13  16
ATOM     16  C   UNL     1       9.253   1.847  22.534  0.00  0.00    +0.033 A 
ATOM     17  C   UNL     1       9.953   1.565  23.714  0.00  0.00    +0.023 A 
ATOM     18  C   UNL     1      10.573   0.325  23.892  0.00  0.00    +0.002 A 
ATOM     19  C   UNL     1      10.508  -0.639  22.888  0.00  0.00    +0.000 A 
ATOM     20  C   UNL     1       9.795  -0.374  21.724  0.00  0.00    +0.002 A 
ATOM     21  C   UNL     1       9.162   0.858  21.552  0.00  0.00    +0.023 A 
ENDBRANCH  13  16
ENDBRANCH  11  12
BRANCH  11  22
ATOM     22  C   UNL     1       8.206   5.820  22.610  0.00  0.00    +0.032 C 
BRANCH  22  23
ATOM     23  C   UNL     1       8.390   6.217  24.081  0.00  0.00    +0.003 C 
BRANCH  23  24
ATOM     24  C   UNL     1       9.721   5.782  24.697  0.00  0.00    +0.015 C 
BRANCH  24  25
ATOM     25  C   UNL     1      10.889   5.983  23.731  0.00  0.00    +0.077 C 
BRANCH  25  26
ATOM     26  N   UNL     1      11.471   4.704  23.350  0.00  0.00    -0.330 NA
ATOM     27  H   UNL     1      12.345   4.575  23.858  0.00  0.00    +0.118 HD
ATOM     28  H   UNL     1      10.857   3.946  23.645  0.00  0.00    +0.118 HD
ENDBRANCH  25  26
ENDBRANCH  24  25
ENDBRANCH  23  24
ENDBRANCH  22  23
ENDBRANCH  11  22
ENDBRANCH   8  11
ENDBRANCH   6   7
BRANCH   6  29
ATOM     29  C   UNL     1       4.455   5.905  25.770  0.00  0.00    +0.014 C 
BRANCH  29  30
ATOM     30  C   UNL     1       4.843   5.212  27.086  0.00  0.00    +0.001 C 
BRANCH  30  31
ATOM     31  C   UNL     1       6.298   5.420  27.504  0.00  0.00    -0.003 C 
ATOM     32  C   UNL     1       6.822   4.274  28.353  0.00  0.00    +0.004 C 
ENDBRANCH  30  31
ENDBRANCH  29  30
ENDBRANCH   6  29
ENDBRANCH   5   6
ENDBRANCH   3   5
ENDBRANCH   1   3
BRANCH   1  33
ATOM     33  C   UNL     1       5.713   1.945  25.587  0.00  0.00    +0.111 C 
BRANCH  33  34
ATOM     34  C   UNL     1       5.475   1.195  26.916  0.00  0.00    +0.090 C 
BRANCH  34  35
ATOM     35  C   UNL     1       4.321   0.187  26.725  0.00  0.00    +0.218 C 
ATOM     36  N   UNL     1       4.742  -1.116  26.505  0.00  0.00    -0.304 N 
ATOM     37  H   UNL     1       5.715  -1.269  26.276  0.00  0.00    +0.149 HD
ATOM     38  O   UNL     1       3.132   0.489  26.737  0.00  0.00    -0.275 OA
BRANCH  36  39
ATOM     39  C   UNL     1       3.848  -2.283  26.382  0.00  0.00    +0.159 C 
BRANCH  39  40
ATOM     40  C   UNL     1       4.172  -3.168  25.154  0.00  0.00    +0.238 C 
ATOM     41  N   UNL     1       5.390  -2.926  24.558  0.00  0.00    -0.284 N 
ATOM     42  H   UNL     1       5.748  -1.977  24.650  0.00  0.00    +0.155 HD
ATOM     43  O   UNL     1       3.331  -3.935  24.675  0.00  0.00    -0.273 OA
BRANCH  41  44
ATOM     44  C   UNL     1       5.888  -3.736  23.528  0.00  0.00    +0.033 A 
ATOM     45  C   UNL     1       5.654  -3.432  22.179  0.00  0.00    +0.023 A 
ATOM     46  C   UNL     1       6.181  -4.238  21.174  0.00  0.00    +0.002 A 
ATOM     47  C   UNL     1       6.971  -5.331  21.513  0.00  0.00    +0.000 A 
ATOM     48  C   UNL     1       7.197  -5.644  22.857  0.00  0.00    +0.002 A 
ATOM     49  C   UNL     1       6.631  -4.862  23.864  0.00  0.00    +0.023 A 
ENDBRANCH  41  44
ENDBRANCH  39  40
BRANCH  39  50
ATOM     50  C   UNL     1       3.984  -3.228  27.602  0.00  0.00    +0.032 C 
BRANCH  50  51
ATOM     51  C   UNL     1       5.305  -3.969  27.784  0.00  0.00    +0.003 C 
BRANCH  51  52
ATOM     52  C   UNL     1       5.278  -5.441  27.375  0.00  0.00    +0.015 C 
BRANCH  52  53
ATOM     53  C   UNL     1       4.800  -6.369  28.494  0.00  0.00    +0.077 C 
BRANCH  53  54
ATOM     54  N   UNL     1       5.686  -7.518  28.612  0.00  0.00    -0.330 NA
ATOM     55  H   UNL     1       6.029  -7.579  29.571  0.00  0.00    +0.118 HD
ATOM     56  H   UNL     1       5.162  -8.376  28.446  0.00  0.00    +0.118 HD
ENDBRANCH  53  54
ENDBRANCH  52  53
ENDBRANCH  51  52
ENDBRANCH  50  51
ENDBRANCH  39  50
ENDBRANCH  36  39
ENDBRANCH  34  35
BRANCH  34  57
ATOM     57  C   UNL     1       6.783   0.591  27.510  0.00  0.00    +0.014 C 
BRANCH  57  58
ATOM     58  C   UNL     1       7.792   0.212  26.403  0.00  0.00    +0.001 C 
BRANCH  58  60
ATOM     59  C   UNL     1       8.310  -2.293  26.299  0.00  0.00    +0.004 C 
ATOM     60  C   UNL     1       8.781  -0.912  26.727  0.00  0.00    -0.003 C 
ENDBRANCH  58  60
ENDBRANCH  57  58
ENDBRANCH  34  57
ENDBRANCH  33  34
ENDBRANCH   1  33
TORSDOF 29
ENDMDL
MODEL 4
REMARK VINA RESULT:      -5.3      2.204      7.436
REMARK  Name = 
REMARK  31 active torsions:
REMARK  status: ('A' for Active; 'I' for Inactive)
REMARK    1  A    between atoms: C_1  and  C_2
REMARK    2  A    between atoms: C_2  and  C_3
REMARK    3  A    between atoms: C_3  and  C_4
REMARK    4  A    between atoms: C_4  and  C_5
REMARK    5  A    between atoms: C_5  and  C_7
REMARK    6  A    between atoms: C_5  and  C_36
REMARK    7  A    between atoms: C_7  and  N_8
REMARK    8  A    between atoms: N_8  and  N_9
REMARK    9  A    between atoms: N_9  and  C_10
REMARK   10  A    between atoms: C_10  and  C_11
REMARK   11  A    between atoms: C_11  and  C_13
REMARK   12  A    between atoms: C_11  and  C_17
REMARK   13  A    between atoms: C_13  and  C_14
REMARK   14  A    between atoms: C_14  and  C_15
REMARK   15  A    between atoms: C_15  and  C_16
REMARK   16  A    between atoms: N_19  and  C_20
REMARK   17  A    between atoms: C_20  and  C_22
REMARK   18  A    between atoms: C_20  and  C_27
REMARK   19  A    between atoms: C_22  and  C_23
REMARK   20  A    between atoms: C_23  and  C_24
REMARK   21  A    between atoms: C_24  and  C_25
REMARK   22  A    between atoms: C_25  and  N_26
REMARK   23  A    between atoms: N_29  and  C_30
REMARK   24  A    between atoms: N_38  and  C_39
REMARK   25  A    between atoms: C_39  and  C_41
REMARK   26  A    between atoms: C_39  and  C_46
REMARK   27  A    between atoms: C_41  and  C_42
REMARK   28  A    between atoms: C_42  and  C_43
REMARK   29  A    between atoms: C_43  and  C_44
REMARK   30  A    between atoms: C_44  and  N_45
REMARK   31  A    between atoms: N_48  and  C_49
REMARK                            x       y       z     vdW  Elec       q    Type
REMARK                         _______ _______ _______ _____ _____    ______ ____
ROOT
ATOM      1  N   UNL     1       8.199  -0.822  26.043  0.00  0.00    -0.256 NA
ATOM      2  H   UNL     1       8.540  -0.529  26.966  0.00  0.00    +0.141 HD
ENDROOT
BRANCH   1   3
ATOM      3  N   UNL     1       8.673  -2.156  25.714  0.00  0.00    -0.256 NA
ATOM      4  H   UNL     1       9.689  -2.130  25.561  0.00  0.00    +0.141 HD
BRANCH   3   5
ATOM      5  C   UNL     1       8.454  -3.072  26.855  0.00  0.00    +0.111 C 
BRANCH   5   6
ATOM      6  C   UNL     1       8.479  -4.575  26.518  0.00  0.00    +0.090 C 
BRANCH   6   7
ATOM      7  C   UNL     1       8.695  -4.755  25.012  0.00  0.00    +0.218 C 
ATOM      8  N   UNL     1       7.537  -4.886  24.293  0.00  0.00    -0.304 N 
ATOM      9  H   UNL     1       6.643  -4.933  24.781  0.00  0.00    +0.149 HD
ATOM     10  O   UNL     1       9.800  -4.760  24.481  0.00  0.00    -0.275 OA
BRANCH   8  11
ATOM     11  C   UNL     1       7.457  -4.916  22.825  0.00  0.00    +0.159 C 
BRANCH  11  12
ATOM     12  C   UNL     1       7.130  -3.451  22.443  0.00  0.00    +0.238 C 
ATOM     13  N   UNL     1       8.090  -2.519  22.792  0.00  0.00    -0.284 N 
ATOM     14  H   UNL     1       8.888  -2.844  23.323  0.00  0.00    +0.155 HD
ATOM     15  O   UNL     1       6.088  -3.201  21.829  0.00  0.00    -0.273 OA
BRANCH  13  16
ATOM     16  C   UNL     1       8.122  -1.158  22.414  0.00  0.00    +0.033 A 
ATOM     17  C   UNL     1       9.241  -0.703  21.704  0.00  0.00    +0.023 A 
ATOM     18  C   UNL     1       9.348   0.640  21.333  0.00  0.00    +0.002 A 
ATOM     19  C   UNL     1       8.345   1.542  21.679  0.00  0.00    +0.000 A 
ATOM     20  C   UNL     1       7.221   1.093  22.363  0.00  0.00    +0.002 A 
ATOM     21  C   UNL     1       7.105  -0.251  22.719  0.00  0.00    +0.023 A 
ENDBRANCH  13  16
ENDBRANCH  11  12
BRANCH  11  22
ATOM     22  C   UNL     1       6.373  -5.905  22.355  0.00  0.00    +0.032 C 
BRANCH  22  23
ATOM     23  C   UNL     1       5.349  -6.288  23.432  0.00  0.00    +0.003 C 
BRANCH  23  24
ATOM     24  C   UNL     1       4.011  -5.553  23.331  0.00  0.00    +0.015 C 
BRANCH  24  25
ATOM     25  C   UNL     1       2.825  -6.511  23.447  0.00  0.00    +0.077 C 
BRANCH  25  26
ATOM     26  N   UNL     1       3.258  -7.812  23.935  0.00  0.00    -0.330 NA
ATOM     27  H   UNL     1       2.845  -8.538  23.351  0.00  0.00    +0.118 HD
ATOM     28  H   UNL     1       4.268  -7.902  23.827  0.00  0.00    +0.118 HD
ENDBRANCH  25  26
ENDBRANCH  24  25
ENDBRANCH  23  24
ENDBRANCH  22  23
ENDBRANCH  11  22
ENDBRANCH   8  11
ENDBRANCH   6   7
BRANCH   6  29
ATOM     29  C   UNL     1       7.260  -5.360  27.056  0.00  0.00    +0.014 C 
BRANCH  29  30
ATOM     30  C   UNL     1       6.081  -4.559  27.633  0.00  0.00    +0.001 C 
BRANCH  30  31
ATOM     31  C   UNL     1       4.748  -5.306  27.630  0.00  0.00    -0.003 C 
ATOM     32  C   UNL     1       4.876  -6.710  27.065  0.00  0.00    +0.004 C 
ENDBRANCH  30  31
ENDBRANCH  29  30
ENDBRANCH   6  29
ENDBRANCH   5   6
ENDBRANCH   3   5
ENDBRANCH   1   3
BRANCH   1  33
ATOM     33  C   UNL     1       6.727  -0.845  26.088  0.00  0.00    +0.111 C 
BRANCH  33  34
ATOM     34  C   UNL     1       6.164  -0.309  27.424  0.00  0.00    +0.090 C 
BRANCH  34  35
ATOM     35  C   UNL     1       6.212   1.234  27.407  0.00  0.00    +0.218 C 
ATOM     36  N   UNL     1       6.217   1.783  26.133  0.00  0.00    -0.304 N 
ATOM     37  H   UNL     1       6.404   1.170  25.351  0.00  0.00    +0.149 HD
ATOM     38  O   UNL     1       6.266   1.933  28.412  0.00  0.00    -0.275 OA
BRANCH  36  39
ATOM     39  C   UNL     1       6.168   3.227  25.837  0.00  0.00    +0.159 C 
BRANCH  39  40
ATOM     40  C   UNL     1       7.572   3.866  25.699  0.00  0.00    +0.238 C 
ATOM     41  N   UNL     1       8.198   3.657  24.490  0.00  0.00    -0.284 N 
ATOM     42  H   UNL     1       7.944   2.801  24.000  0.00  0.00    +0.155 HD
ATOM     43  O   UNL     1       8.130   4.403  26.660  0.00  0.00    -0.273 OA
BRANCH  41  44
ATOM     44  C   UNL     1       9.407   4.286  24.160  0.00  0.00    +0.033 A 
ATOM     45  C   UNL     1       9.585   5.666  24.332  0.00  0.00    +0.023 A 
ATOM     46  C   UNL     1      10.803   6.263  24.019  0.00  0.00    +0.002 A 
ATOM     47  C   UNL     1      11.857   5.477  23.567  0.00  0.00    +0.000 A 
ATOM     48  C   UNL     1      11.680   4.103  23.383  0.00  0.00    +0.002 A 
ATOM     49  C   UNL     1      10.445   3.512  23.653  0.00  0.00    +0.023 A 
ENDBRANCH  41  44
ENDBRANCH  39  40
BRANCH  39  50
ATOM     50  C   UNL     1       5.471   3.500  24.480  0.00  0.00    +0.032 C 
BRANCH  50  51
ATOM     51  C   UNL     1       4.207   2.711  24.157  0.00  0.00    +0.003 C 
BRANCH  51  52
ATOM     52  C   UNL     1       3.376   3.270  23.004  0.00  0.00    +0.015 C 
BRANCH  52  53
ATOM     53  C   UNL     1       3.198   4.789  23.070  0.00  0.00    +0.077 C 
BRANCH  53  54
ATOM     54  N   UNL     1       3.750   5.415  21.876  0.00  0.00    -0.330 NA
ATOM     55  H   UNL     1       3.108   6.137  21.550  0.00  0.00    +0.118 HD
ATOM     56  H   UNL     1       4.618   5.894  22.108  0.00  0.00    +0.118 HD
ENDBRANCH  53  54
ENDBRANCH  52  53
ENDBRANCH  51  52
ENDBRANCH  50  51
ENDBRANCH  39  50
ENDBRANCH  36  39
ENDBRANCH  34  35
BRANCH  34  57
ATOM     57  C   UNL     1       4.776  -0.920  27.781  0.00  0.00    +0.014 C 
BRANCH  57  58
ATOM     58  C   UNL     1       4.118  -1.597  26.558  0.00  0.00    +0.001 C 
BRANCH  58  60
ATOM     59  C   UNL     1       2.318  -3.239  25.772  0.00  0.00    +0.004 C 
ATOM     60  C   UNL     1       2.698  -2.141  26.753  0.00  0.00    -0.003 C 
ENDBRANCH  58  60
ENDBRANCH  57  58
ENDBRANCH  34  57
ENDBRANCH  33  34
ENDBRANCH   1  33
TORSDOF 29
ENDMDL
MODEL 5
REMARK VINA RESULT:      -5.2      1.222      2.063
REMARK  Name = 
REMARK  31 active torsions:
REMARK  status: ('A' for Active; 'I' for Inactive)
REMARK    1  A    between atoms: C_1  and  C_2
REMARK    2  A    between atoms: C_2  and  C_3
REMARK    3  A    between atoms: C_3  and  C_4
REMARK    4  A    between atoms: C_4  and  C_5
REMARK    5  A    between atoms: C_5  and  C_7
REMARK    6  A    between atoms: C_5  and  C_36
REMARK    7  A    between atoms: C_7  and  N_8
REMARK    8  A    between atoms: N_8  and  N_9
REMARK    9  A    between atoms: N_9  and  C_10
REMARK   10  A    between atoms: C_10  and  C_11
REMARK   11  A    between atoms: C_11  and  C_13
REMARK   12  A    between atoms: C_11  and  C_17
REMARK   13  A    between atoms: C_13  and  C_14
REMARK   14  A    between atoms: C_14  and  C_15
REMARK   15  A    between atoms: C_15  and  C_16
REMARK   16  A    between atoms: N_19  and  C_20
REMARK   17  A    between atoms: C_20  and  C_22
REMARK   18  A    between atoms: C_20  and  C_27
REMARK   19  A    between atoms: C_22  and  C_23
REMARK   20  A    between atoms: C_23  and  C_24
REMARK   21  A    between atoms: C_24  and  C_25
REMARK   22  A    between atoms: C_25  and  N_26
REMARK   23  A    between atoms: N_29  and  C_30
REMARK   24  A    between atoms: N_38  and  C_39
REMARK   25  A    between atoms: C_39  and  C_41
REMARK   26  A    between atoms: C_39  and  C_46
REMARK   27  A    between atoms: C_41  and  C_42
REMARK   28  A    between atoms: C_42  and  C_43
REMARK   29  A    between atoms: C_43  and  C_44
REMARK   30  A    between atoms: C_44  and  N_45
REMARK   31  A    between atoms: N_48  and  C_49
REMARK                            x       y       z     vdW  Elec       q    Type
REMARK                         _______ _______ _______ _____ _____    ______ ____
ROOT
ATOM      1  N   UNL     1       6.596  -0.453  25.155  0.00  0.00    -0.256 NA
ATOM      2  H   UNL     1       6.790  -0.228  24.173  0.00  0.00    +0.141 HD
ENDROOT
BRANCH   1   3
ATOM      3  N   UNL     1       7.232  -1.703  25.538  0.00  0.00    -0.256 NA
ATOM      4  H   UNL     1       6.936  -2.448  24.896  0.00  0.00    +0.141 HD
BRANCH   3   5
ATOM      5  C   UNL     1       8.700  -1.594  25.391  0.00  0.00    +0.111 C 
BRANCH   5   6
ATOM      6  C   UNL     1       9.321  -2.440  24.263  0.00  0.00    +0.090 C 
BRANCH   6   7
ATOM      7  C   UNL     1       9.821  -1.515  23.150  0.00  0.00    +0.218 C 
ATOM      8  N   UNL     1       9.302  -0.248  23.201  0.00  0.00    -0.304 N 
ATOM      9  H   UNL     1       8.590  -0.023  23.895  0.00  0.00    +0.149 HD
ATOM     10  O   UNL     1      10.629  -1.857  22.294  0.00  0.00    -0.275 OA
BRANCH   8  11
ATOM     11  C   UNL     1       9.731   0.871  22.350  0.00  0.00    +0.159 C 
BRANCH  11  12
ATOM     12  C   UNL     1      10.204   1.945  23.362  0.00  0.00    +0.238 C 
ATOM     13  N   UNL     1      10.128   3.252  22.918  0.00  0.00    -0.284 N 
ATOM     14  H   UNL     1       9.840   3.406  21.960  0.00  0.00    +0.155 HD
ATOM     15  O   UNL     1      10.572   1.598  24.488  0.00  0.00    -0.273 OA
BRANCH  13  16
ATOM     16  C   UNL     1      10.330   4.419  23.689  0.00  0.00    +0.033 A 
ATOM     17  C   UNL     1       9.267   4.871  24.482  0.00  0.00    +0.023 A 
ATOM     18  C   UNL     1       9.394   6.039  25.239  0.00  0.00    +0.002 A 
ATOM     19  C   UNL     1      10.578   6.771  25.201  0.00  0.00    +0.000 A 
ATOM     20  C   UNL     1      11.645   6.316  24.435  0.00  0.00    +0.002 A 
ATOM     21  C   UNL     1      11.526   5.141  23.691  0.00  0.00    +0.023 A 
ENDBRANCH  13  16
ENDBRANCH  11  12
BRANCH  11  22
ATOM     22  C   UNL     1       8.569   1.365  21.467  0.00  0.00    +0.032 C 
BRANCH  22  23
ATOM     23  C   UNL     1       7.201   1.381  22.164  0.00  0.00    +0.003 C 
BRANCH  23  24
ATOM     24  C   UNL     1       6.513   2.748  22.188  0.00  0.00    +0.015 C 
BRANCH  24  25
ATOM     25  C   UNL     1       5.685   2.946  23.458  0.00  0.00    +0.077 C 
BRANCH  25  26
ATOM     26  N   UNL     1       4.302   2.551  23.240  0.00  0.00    -0.330 NA
ATOM     27  H   UNL     1       3.969   2.043  24.059  0.00  0.00    +0.118 HD
ATOM     28  H   UNL     1       3.715   3.381  23.163  0.00  0.00    +0.118 HD
ENDBRANCH  25  26
ENDBRANCH  24  25
ENDBRANCH  23  24
ENDBRANCH  22  23
ENDBRANCH  11  22
ENDBRANCH   8  11
ENDBRANCH   6   7
BRANCH   6  29
ATOM     29  C   UNL     1       8.403  -3.573  23.748  0.00  0.00    +0.014 C 
BRANCH  29  30
ATOM     30  C   UNL     1       8.586  -4.979  24.342  0.00  0.00    +0.001 C 
BRANCH  30  31
ATOM     31  C   UNL     1       9.172  -4.996  25.754  0.00  0.00    -0.003 C 
ATOM     32  C   UNL     1       8.095  -5.048  26.823  0.00  0.00    +0.004 C 
ENDBRANCH  30  31
ENDBRANCH  29  30
ENDBRANCH   6  29
ENDBRANCH   5   6
ENDBRANCH   3   5
ENDBRANCH   1   3
BRANCH   1  33
ATOM     33  C   UNL     1       7.148   0.629  25.988  0.00  0.00    +0.111 C 
BRANCH  33  34
ATOM     34  C   UNL     1       6.079   1.298  26.881  0.00  0.00    +0.090 C 
BRANCH  34  35
ATOM     35  C   UNL     1       4.702   0.676  26.567  0.00  0.00    +0.218 C 
ATOM     36  N   UNL     1       4.492  -0.558  27.164  0.00  0.00    -0.304 N 
ATOM     37  H   UNL     1       5.290  -1.039  27.557  0.00  0.00    +0.149 HD
ATOM     38  O   UNL     1       3.861   1.193  25.839  0.00  0.00    -0.275 OA
BRANCH  36  39
ATOM     39  C   UNL     1       3.232  -1.323  27.101  0.00  0.00    +0.159 C 
BRANCH  39  40
ATOM     40  C   UNL     1       3.270  -2.470  26.061  0.00  0.00    +0.238 C 
ATOM     41  N   UNL     1       4.527  -2.822  25.620  0.00  0.00    -0.284 N 
ATOM     42  H   UNL     1       5.226  -2.082  25.633  0.00  0.00    +0.155 HD
ATOM     43  O   UNL     1       2.234  -2.931  25.575  0.00  0.00    -0.273 OA
BRANCH  41  44
ATOM     44  C   UNL     1       4.739  -3.932  24.790  0.00  0.00    +0.033 A 
ATOM     45  C   UNL     1       4.931  -3.787  23.409  0.00  0.00    +0.023 A 
ATOM     46  C   UNL     1       5.165  -4.903  22.610  0.00  0.00    +0.002 A 
ATOM     47  C   UNL     1       5.242  -6.163  23.193  0.00  0.00    +0.000 A 
ATOM     48  C   UNL     1       5.039  -6.312  24.568  0.00  0.00    +0.002 A 
ATOM     49  C   UNL     1       4.759  -5.200  25.362  0.00  0.00    +0.023 A 
ENDBRANCH  41  44
ENDBRANCH  39  40
BRANCH  39  50
ATOM     50  C   UNL     1       2.926  -2.018  28.452  0.00  0.00    +0.032 C 
BRANCH  50  51
ATOM     51  C   UNL     1       1.983  -1.312  29.419  0.00  0.00    +0.003 C 
BRANCH  51  52
ATOM     52  C   UNL     1       2.621  -0.189  30.235  0.00  0.00    +0.015 C 
BRANCH  52  53
ATOM     53  C   UNL     1       2.083   1.198  29.877  0.00  0.00    +0.077 C 
BRANCH  53  54
ATOM     54  N   UNL     1       3.183   2.131  29.676  0.00  0.00    -0.330 NA
ATOM     55  H   UNL     1       3.975   1.633  29.269  0.00  0.00    +0.118 HD
ATOM     56  H   UNL     1       2.914   2.838  28.993  0.00  0.00    +0.118 HD
ENDBRANCH  53  54
ENDBRANCH  52  53
ENDBRANCH  51  52
ENDBRANCH  50  51
ENDBRANCH  39  50
ENDBRANCH  36  39
ENDBRANCH  34  35
BRANCH  34  57
ATOM     57  C   UNL     1       6.471   1.300  28.389  0.00  0.00    +0.014 C 
BRANCH  57  58
ATOM     58  C   UNL     1       7.110   2.642  28.812  0.00  0.00    +0.001 C 
BRANCH  58  60
ATOM     59  C   UNL     1       5.429   4.444  28.117  0.00  0.00    +0.004 C 
ATOM     60  C   UNL     1       6.818   3.855  27.922  0.00  0.00    -0.003 C 
ENDBRANCH  58  60
ENDBRANCH  57  58
ENDBRANCH  34  57
ENDBRANCH  33  34
ENDBRANCH   1  33
TORSDOF 29
ENDMDL
MODEL 6
REMARK VINA RESULT:      -5.2      2.044      7.875
REMARK  Name = 
REMARK  31 active torsions:
REMARK  status: ('A' for Active; 'I' for Inactive)
REMARK    1  A    between atoms: C_1  and  C_2
REMARK    2  A    between atoms: C_2  and  C_3
REMARK    3  A    between atoms: C_3  and  C_4
REMARK    4  A    between atoms: C_4  and  C_5
REMARK    5  A    between atoms: C_5  and  C_7
REMARK    6  A    between atoms: C_5  and  C_36
REMARK    7  A    between atoms: C_7  and  N_8
REMARK    8  A    between atoms: N_8  and  N_9
REMARK    9  A    between atoms: N_9  and  C_10
REMARK   10  A    between atoms: C_10  and  C_11
REMARK   11  A    between atoms: C_11  and  C_13
REMARK   12  A    between atoms: C_11  and  C_17
REMARK   13  A    between atoms: C_13  and  C_14
REMARK   14  A    between atoms: C_14  and  C_15
REMARK   15  A    between atoms: C_15  and  C_16
REMARK   16  A    between atoms: N_19  and  C_20
REMARK   17  A    between atoms: C_20  and  C_22
REMARK   18  A    between atoms: C_20  and  C_27
REMARK   19  A    between atoms: C_22  and  C_23
REMARK   20  A    between atoms: C_23  and  C_24
REMARK   21  A    between atoms: C_24  and  C_25
REMARK   22  A    between atoms: C_25  and  N_26
REMARK   23  A    between atoms: N_29  and  C_30
REMARK   24  A    between atoms: N_38  and  C_39
REMARK   25  A    between atoms: C_39  and  C_41
REMARK   26  A    between atoms: C_39  and  C_46
REMARK   27  A    between atoms: C_41  and  C_42
REMARK   28  A    between atoms: C_42  and  C_43
REMARK   29  A    between atoms: C_43  and  C_44
REMARK   30  A    between atoms: C_44  and  N_45
REMARK   31  A    between atoms: N_48  and  C_49
REMARK                            x       y       z     vdW  Elec       q    Type
REMARK                         _______ _______ _______ _____ _____    ______ ____
ROOT
ATOM      1  N   UNL     1       5.941   0.922  24.277  0.00  0.00    -0.256 NA
ATOM      2  H   UNL     1       6.776   1.071  24.855  0.00  0.00    +0.141 HD
ENDROOT
BRANCH   1   3
ATOM      3  N   UNL     1       5.487  -0.456  24.365  0.00  0.00    -0.256 NA
ATOM      4  H   UNL     1       4.583  -0.549  23.885  0.00  0.00    +0.141 HD
BRANCH   3   5
ATOM      5  C   UNL     1       6.424  -1.349  23.649  0.00  0.00    +0.111 C 
BRANCH   5   6
ATOM      6  C   UNL     1       5.777  -2.515  22.878  0.00  0.00    +0.090 C 
BRANCH   6   7
ATOM      7  C   UNL     1       4.963  -3.376  23.848  0.00  0.00    +0.218 C 
ATOM      8  N   UNL     1       5.338  -3.249  25.159  0.00  0.00    -0.304 N 
ATOM      9  H   UNL     1       6.148  -2.678  25.398  0.00  0.00    +0.149 HD
ATOM     10  O   UNL     1       4.039  -4.104  23.499  0.00  0.00    -0.275 OA
BRANCH   8  11
ATOM     11  C   UNL     1       4.626  -3.842  26.300  0.00  0.00    +0.159 C 
BRANCH  11  12
ATOM     12  C   UNL     1       4.849  -2.822  27.445  0.00  0.00    +0.238 C 
ATOM     13  N   UNL     1       5.296  -1.575  27.049  0.00  0.00    -0.284 N 
ATOM     14  H   UNL     1       5.507  -1.441  26.068  0.00  0.00    +0.155 HD
ATOM     15  O   UNL     1       4.586  -3.146  28.607  0.00  0.00    -0.273 OA
BRANCH  13  16
ATOM     16  C   UNL     1       5.414  -0.424  27.860  0.00  0.00    +0.033 A 
ATOM     17  C   UNL     1       6.622   0.284  27.818  0.00  0.00    +0.023 A 
ATOM     18  C   UNL     1       6.813   1.410  28.624  0.00  0.00    +0.002 A 
ATOM     19  C   UNL     1       5.804   1.830  29.487  0.00  0.00    +0.000 A 
ATOM     20  C   UNL     1       4.594   1.146  29.517  0.00  0.00    +0.002 A 
ATOM     21  C   UNL     1       4.396   0.032  28.700  0.00  0.00    +0.023 A 
ENDBRANCH  13  16
ENDBRANCH  11  12
BRANCH  11  22
ATOM     22  C   UNL     1       5.188  -5.237  26.634  0.00  0.00    +0.032 C 
BRANCH  22  23
ATOM     23  C   UNL     1       6.594  -5.506  26.080  0.00  0.00    +0.003 C 
BRANCH  23  24
ATOM     24  C   UNL     1       7.736  -5.126  27.025  0.00  0.00    +0.015 C 
BRANCH  24  25
ATOM     25  C   UNL     1       8.720  -4.158  26.367  0.00  0.00    +0.077 C 
BRANCH  25  26
ATOM     26  N   UNL     1       8.234  -2.789  26.452  0.00  0.00    -0.330 NA
ATOM     27  H   UNL     1       7.501  -2.655  25.756  0.00  0.00    +0.118 HD
ATOM     28  H   UNL     1       7.794  -2.636  27.359  0.00  0.00    +0.118 HD
ENDBRANCH  25  26
ENDBRANCH  24  25
ENDBRANCH  23  24
ENDBRANCH  22  23
ENDBRANCH  11  22
ENDBRANCH   8  11
ENDBRANCH   6   7
BRANCH   6  29
ATOM     29  C   UNL     1       6.773  -3.335  22.025  0.00  0.00    +0.014 C 
BRANCH  29  30
ATOM     30  C   UNL     1       7.557  -4.463  22.714  0.00  0.00    +0.001 C 
BRANCH  30  31
ATOM     31  C   UNL     1       7.190  -5.869  22.241  0.00  0.00    -0.003 C 
ATOM     32  C   UNL     1       6.199  -5.848  21.090  0.00  0.00    +0.004 C 
ENDBRANCH  30  31
ENDBRANCH  29  30
ENDBRANCH   6  29
ENDBRANCH   5   6
ENDBRANCH   3   5
ENDBRANCH   1   3
BRANCH   1  33
ATOM     33  C   UNL     1       4.873   1.802  24.784  0.00  0.00    +0.111 C 
BRANCH  33  34
ATOM     34  C   UNL     1       5.393   3.203  25.175  0.00  0.00    +0.090 C 
BRANCH  34  35
ATOM     35  C   UNL     1       6.691   3.494  24.392  0.00  0.00    +0.218 C 
ATOM     36  N   UNL     1       7.759   3.873  25.192  0.00  0.00    -0.304 N 
ATOM     37  H   UNL     1       7.567   4.133  26.150  0.00  0.00    +0.149 HD
ATOM     38  O   UNL     1       6.789   3.429  23.171  0.00  0.00    -0.275 OA
BRANCH  36  39
ATOM     39  C   UNL     1       9.131   4.119  24.708  0.00  0.00    +0.159 C 
BRANCH  39  40
ATOM     40  C   UNL     1       9.760   2.883  24.018  0.00  0.00    +0.238 C 
ATOM     41  N   UNL     1       9.051   1.710  24.151  0.00  0.00    -0.284 N 
ATOM     42  H   UNL     1       8.482   1.627  24.992  0.00  0.00    +0.155 HD
ATOM     43  O   UNL     1      10.882   2.935  23.507  0.00  0.00    -0.273 OA
BRANCH  41  44
ATOM     44  C   UNL     1       9.415   0.540  23.468  0.00  0.00    +0.033 A 
ATOM     45  C   UNL     1       9.966  -0.559  24.141  0.00  0.00    +0.023 A 
ATOM     46  C   UNL     1      10.295  -1.719  23.444  0.00  0.00    +0.002 A 
ATOM     47  C   UNL     1      10.043  -1.795  22.079  0.00  0.00    +0.000 A 
ATOM     48  C   UNL     1       9.504  -0.697  21.403  0.00  0.00    +0.002 A 
ATOM     49  C   UNL     1       9.217   0.481  22.093  0.00  0.00    +0.023 A 
ENDBRANCH  41  44
ENDBRANCH  39  40
BRANCH  39  50
ATOM     50  C   UNL     1       9.158   5.233  23.631  0.00  0.00    +0.032 C 
BRANCH  50  51
ATOM     51  C   UNL     1      10.074   6.429  23.868  0.00  0.00    +0.003 C 
BRANCH  51  52
ATOM     52  C   UNL     1      11.495   6.074  24.301  0.00  0.00    +0.015 C 
BRANCH  52  53
ATOM     53  C   UNL     1      12.460   5.907  23.125  0.00  0.00    +0.077 C 
BRANCH  53  54
ATOM     54  N   UNL     1      13.493   4.933  23.452  0.00  0.00    -0.330 NA
ATOM     55  H   UNL     1      13.147   3.996  23.247  0.00  0.00    +0.118 HD
ATOM     56  H   UNL     1      14.302   5.073  22.849  0.00  0.00    +0.118 HD
ENDBRANCH  53  54
ENDBRANCH  52  53
ENDBRANCH  51  52
ENDBRANCH  50  51
ENDBRANCH  39  50
ENDBRANCH  36  39
ENDBRANCH  34  35
BRANCH  34  57
ATOM     57  C   UNL     1       4.298   4.305  25.064  0.00  0.00    +0.014 C 
BRANCH  57  58
ATOM     58  C   UNL     1       3.334   4.037  23.887  0.00  0.00    +0.001 C 
BRANCH  58  60
ATOM     59  C   UNL     1       4.452   6.099  22.861  0.00  0.00    +0.004 C 
ATOM     60  C   UNL     1       3.425   4.990  22.691  0.00  0.00    -0.003 C 
ENDBRANCH  58  60
ENDBRANCH  57  58
ENDBRANCH  34  57
ENDBRANCH  33  34
ENDBRANCH   1  33
TORSDOF 29
ENDMDL
MODEL 7
REMARK VINA RESULT:      -5.2      1.913      5.402
REMARK  Name = 
REMARK  31 active torsions:
REMARK  status: ('A' for Active; 'I' for Inactive)
REMARK    1  A    between atoms: C_1  and  C_2
REMARK    2  A    between atoms: C_2  and  C_3
REMARK    3  A    between atoms: C_3  and  C_4
REMARK    4  A    between atoms: C_4  and  C_5
REMARK    5  A    between atoms: C_5  and  C_7
REMARK    6  A    between atoms: C_5  and  C_36
REMARK    7  A    between atoms: C_7  and  N_8
REMARK    8  A    between atoms: N_8  and  N_9
REMARK    9  A    between atoms: N_9  and  C_10
REMARK   10  A    between atoms: C_10  and  C_11
REMARK   11  A    between atoms: C_11  and  C_13
REMARK   12  A    between atoms: C_11  and  C_17
REMARK   13  A    between atoms: C_13  and  C_14
REMARK   14  A    between atoms: C_14  and  C_15
REMARK   15  A    between atoms: C_15  and  C_16
REMARK   16  A    between atoms: N_19  and  C_20
REMARK   17  A    between atoms: C_20  and  C_22
REMARK   18  A    between atoms: C_20  and  C_27
REMARK   19  A    between atoms: C_22  and  C_23
REMARK   20  A    between atoms: C_23  and  C_24
REMARK   21  A    between atoms: C_24  and  C_25
REMARK   22  A    between atoms: C_25  and  N_26
REMARK   23  A    between atoms: N_29  and  C_30
REMARK   24  A    between atoms: N_38  and  C_39
REMARK   25  A    between atoms: C_39  and  C_41
REMARK   26  A    between atoms: C_39  and  C_46
REMARK   27  A    between atoms: C_41  and  C_42
REMARK   28  A    between atoms: C_42  and  C_43
REMARK   29  A    between atoms: C_43  and  C_44
REMARK   30  A    between atoms: C_44  and  N_45
REMARK   31  A    between atoms: N_48  and  C_49
REMARK                            x       y       z     vdW  Elec       q    Type
REMARK                         _______ _______ _______ _____ _____    ______ ____
ROOT
ATOM      1  N   UNL     1       5.610   0.902  24.515  0.00  0.00    -0.256 NA
ATOM      2  H   UNL     1       4.684   0.517  24.735  0.00  0.00    +0.141 HD
ENDROOT
BRANCH   1   3
ATOM      3  N   UNL     1       5.550   1.765  23.347  0.00  0.00    -0.256 NA
ATOM      4  H   UNL     1       4.781   1.461  22.737  0.00  0.00    +0.141 HD
BRANCH   3   5
ATOM      5  C   UNL     1       5.228   3.151  23.752  0.00  0.00    +0.111 C 
BRANCH   5   6
ATOM      6  C   UNL     1       5.367   4.217  22.649  0.00  0.00    +0.090 C 
BRANCH   6   7
ATOM      7  C   UNL     1       6.833   4.649  22.542  0.00  0.00    +0.218 C 
ATOM      8  N   UNL     1       7.693   3.902  23.301  0.00  0.00    -0.304 N 
ATOM      9  H   UNL     1       7.323   3.186  23.925  0.00  0.00    +0.149 HD
ATOM     10  O   UNL     1       7.219   5.567  21.826  0.00  0.00    -0.275 OA
BRANCH   8  11
ATOM     11  C   UNL     1       9.159   4.006  23.261  0.00  0.00    +0.159 C 
BRANCH  11  12
ATOM     12  C   UNL     1       9.640   2.559  23.535  0.00  0.00    +0.238 C 
ATOM     13  N   UNL     1       8.667   1.582  23.434  0.00  0.00    -0.284 N 
ATOM     14  H   UNL     1       7.716   1.883  23.261  0.00  0.00    +0.155 HD
ATOM     15  O   UNL     1      10.833   2.352  23.778  0.00  0.00    -0.273 OA
BRANCH  13  16
ATOM     16  C   UNL     1       8.869   0.184  23.465  0.00  0.00    +0.033 A 
ATOM     17  C   UNL     1       9.001  -0.484  22.240  0.00  0.00    +0.023 A 
ATOM     18  C   UNL     1       9.166  -1.872  22.203  0.00  0.00    +0.002 A 
ATOM     19  C   UNL     1       9.189  -2.604  23.388  0.00  0.00    +0.000 A 
ATOM     20  C   UNL     1       9.081  -1.945  24.607  0.00  0.00    +0.002 A 
ATOM     21  C   UNL     1       8.933  -0.558  24.646  0.00  0.00    +0.023 A 
ENDBRANCH  13  16
ENDBRANCH  11  12
BRANCH  11  22
ATOM     22  C   UNL     1       9.667   5.007  24.317  0.00  0.00    +0.032 C 
BRANCH  22  23
ATOM     23  C   UNL     1      10.585   6.105  23.764  0.00  0.00    +0.003 C 
BRANCH  23  24
ATOM     24  C   UNL     1      12.079   5.861  23.988  0.00  0.00    +0.015 C 
BRANCH  24  25
ATOM     25  C   UNL     1      12.729   5.174  22.786  0.00  0.00    +0.077 C 
BRANCH  25  26
ATOM     26  N   UNL     1      13.925   5.890  22.367  0.00  0.00    -0.330 NA
ATOM     27  H   UNL     1      14.685   5.221  22.244  0.00  0.00    +0.118 HD
ATOM     28  H   UNL     1      13.770   6.313  21.453  0.00  0.00    +0.118 HD
ENDBRANCH  25  26
ENDBRANCH  24  25
ENDBRANCH  23  24
ENDBRANCH  22  23
ENDBRANCH  11  22
ENDBRANCH   8  11
ENDBRANCH   6   7
BRANCH   6  29
ATOM     29  C   UNL     1       4.391   5.408  22.799  0.00  0.00    +0.014 C 
BRANCH  29  30
ATOM     30  C   UNL     1       3.014   5.302  22.125  0.00  0.00    +0.001 C 
BRANCH  30  31
ATOM     31  C   UNL     1       2.746   3.961  21.442  0.00  0.00    -0.003 C 
ATOM     32  C   UNL     1       1.788   4.093  20.272  0.00  0.00    +0.004 C 
ENDBRANCH  30  31
ENDBRANCH  29  30
ENDBRANCH   6  29
ENDBRANCH   5   6
ENDBRANCH   3   5
ENDBRANCH   1   3
BRANCH   1  33
ATOM     33  C   UNL     1       6.055   1.703  25.669  0.00  0.00    +0.111 C 
BRANCH  33  34
ATOM     34  C   UNL     1       5.495   1.178  27.009  0.00  0.00    +0.090 C 
BRANCH  34  35
ATOM     35  C   UNL     1       4.314   0.225  26.722  0.00  0.00    +0.218 C 
ATOM     36  N   UNL     1       4.663  -1.117  26.716  0.00  0.00    -0.304 N 
ATOM     37  H   UNL     1       5.646  -1.354  26.681  0.00  0.00    +0.149 HD
ATOM     38  O   UNL     1       3.168   0.596  26.492  0.00  0.00    -0.275 OA
BRANCH  36  39
ATOM     39  C   UNL     1       3.714  -2.236  26.558  0.00  0.00    +0.159 C 
BRANCH  39  40
ATOM     40  C   UNL     1       4.027  -3.128  25.332  0.00  0.00    +0.238 C 
ATOM     41  N   UNL     1       5.207  -2.842  24.682  0.00  0.00    -0.284 N 
ATOM     42  H   UNL     1       5.525  -1.875  24.742  0.00  0.00    +0.155 HD
ATOM     43  O   UNL     1       3.204  -3.940  24.902  0.00  0.00    -0.273 OA
BRANCH  41  44
ATOM     44  C   UNL     1       5.699  -3.647  23.644  0.00  0.00    +0.033 A 
ATOM     45  C   UNL     1       5.511  -3.303  22.298  0.00  0.00    +0.023 A 
ATOM     46  C   UNL     1       6.031  -4.107  21.287  0.00  0.00    +0.002 A 
ATOM     47  C   UNL     1       6.769  -5.237  21.619  0.00  0.00    +0.000 A 
ATOM     48  C   UNL     1       6.949  -5.589  22.960  0.00  0.00    +0.002 A 
ATOM     49  C   UNL     1       6.389  -4.809  23.971  0.00  0.00    +0.023 A 
ENDBRANCH  41  44
ENDBRANCH  39  40
BRANCH  39  50
ATOM     50  C   UNL     1       3.766  -3.196  27.773  0.00  0.00    +0.032 C 
BRANCH  50  51
ATOM     51  C   UNL     1       5.052  -3.982  28.004  0.00  0.00    +0.003 C 
BRANCH  51  52
ATOM     52  C   UNL     1       4.887  -5.500  28.002  0.00  0.00    +0.015 C 
BRANCH  52  53
ATOM     53  C   UNL     1       6.012  -6.228  27.262  0.00  0.00    +0.077 C 
BRANCH  53  54
ATOM     54  N   UNL     1       7.299  -5.918  27.866  0.00  0.00    -0.330 NA
ATOM     55  H   UNL     1       7.935  -5.579  27.145  0.00  0.00    +0.118 HD
ATOM     56  H   UNL     1       7.193  -5.153  28.530  0.00  0.00    +0.118 HD
ENDBRANCH  53  54
ENDBRANCH  52  53
ENDBRANCH  51  52
ENDBRANCH  50  51
ENDBRANCH  39  50
ENDBRANCH  36  39
ENDBRANCH  34  35
BRANCH  34  57
ATOM     57  C   UNL     1       6.601   0.592  27.937  0.00  0.00    +0.014 C 
BRANCH  57  58
ATOM     58  C   UNL     1       6.774   1.433  29.222  0.00  0.00    +0.001 C 
BRANCH  58  60
ATOM     59  C   UNL     1       5.644   3.626  29.906  0.00  0.00    +0.004 C 
ATOM     60  C   UNL     1       6.718   2.956  29.062  0.00  0.00    -0.003 C 
ENDBRANCH  58  60
ENDBRANCH  57  58
ENDBRANCH  34  57
ENDBRANCH  33  34
ENDBRANCH   1  33
TORSDOF 29
ENDMDL
MODEL 8
REMARK VINA RESULT:      -5.2      2.154      8.813
REMARK  Name = 
REMARK  31 active torsions:
REMARK  status: ('A' for Active; 'I' for Inactive)
REMARK    1  A    between atoms: C_1  and  C_2
REMARK    2  A    between atoms: C_2  and  C_3
REMARK    3  A    between atoms: C_3  and  C_4
REMARK    4  A    between atoms: C_4  and  C_5
REMARK    5  A    between atoms: C_5  and  C_7
REMARK    6  A    between atoms: C_5  and  C_36
REMARK    7  A    between atoms: C_7  and  N_8
REMARK    8  A    between atoms: N_8  and  N_9
REMARK    9  A    between atoms: N_9  and  C_10
REMARK   10  A    between atoms: C_10  and  C_11
REMARK   11  A    between atoms: C_11  and  C_13
REMARK   12  A    between atoms: C_11  and  C_17
REMARK   13  A    between atoms: C_13  and  C_14
REMARK   14  A    between atoms: C_14  and  C_15
REMARK   15  A    between atoms: C_15  and  C_16
REMARK   16  A    between atoms: N_19  and  C_20
REMARK   17  A    between atoms: C_20  and  C_22
REMARK   18  A    between atoms: C_20  and  C_27
REMARK   19  A    between atoms: C_22  and  C_23
REMARK   20  A    between atoms: C_23  and  C_24
REMARK   21  A    between atoms: C_24  and  C_25
REMARK   22  A    between atoms: C_25  and  N_26
REMARK   23  A    between atoms: N_29  and  C_30
REMARK   24  A    between atoms: N_38  and  C_39
REMARK   25  A    between atoms: C_39  and  C_41
REMARK   26  A    between atoms: C_39  and  C_46
REMARK   27  A    between atoms: C_41  and  C_42
REMARK   28  A    between atoms: C_42  and  C_43
REMARK   29  A    between atoms: C_43  and  C_44
REMARK   30  A    between atoms: C_44  and  N_45
REMARK   31  A    between atoms: N_48  and  C_49
REMARK                            x       y       z     vdW  Elec       q    Type
REMARK                         _______ _______ _______ _____ _____    ______ ____
ROOT
ATOM      1  N   UNL     1       5.784   1.964  23.157  0.00  0.00    -0.256 NA
ATOM      2  H   UNL     1       6.708   2.391  23.282  0.00  0.00    +0.141 HD
ENDROOT
BRANCH   1   3
ATOM      3  N   UNL     1       5.547   0.936  24.157  0.00  0.00    -0.256 NA
ATOM      4  H   UNL     1       6.433   0.468  24.383  0.00  0.00    +0.141 HD
BRANCH   3   5
ATOM      5  C   UNL     1       5.075   1.549  25.418  0.00  0.00    +0.111 C 
BRANCH   5   6
ATOM      6  C   UNL     1       6.101   1.585  26.567  0.00  0.00    +0.090 C 
BRANCH   6   7
ATOM      7  C   UNL     1       6.494   0.153  26.941  0.00  0.00    +0.218 C 
ATOM      8  N   UNL     1       5.502  -0.770  26.743  0.00  0.00    -0.304 N 
ATOM      9  H   UNL     1       4.578  -0.460  26.445  0.00  0.00    +0.149 HD
ATOM     10  O   UNL     1       7.604  -0.158  27.362  0.00  0.00    -0.275 OA
BRANCH   8  11
ATOM     11  C   UNL     1       5.668  -2.225  26.874  0.00  0.00    +0.159 C 
BRANCH  11  12
ATOM     12  C   UNL     1       5.462  -2.752  25.432  0.00  0.00    +0.238 C 
ATOM     13  N   UNL     1       6.572  -3.335  24.850  0.00  0.00    -0.284 N 
ATOM     14  H   UNL     1       7.440  -3.314  25.370  0.00  0.00    +0.155 HD
ATOM     15  O   UNL     1       4.347  -2.670  24.909  0.00  0.00    -0.273 OA
BRANCH  13  16
ATOM     16  C   UNL     1       6.612  -4.042  23.627  0.00  0.00    +0.033 A 
ATOM     17  C   UNL     1       5.963  -3.473  22.523  0.00  0.00    +0.023 A 
ATOM     18  C   UNL     1       5.935  -4.140  21.295  0.00  0.00    +0.002 A 
ATOM     19  C   UNL     1       6.545  -5.386  21.163  0.00  0.00    +0.000 A 
ATOM     20  C   UNL     1       7.210  -5.945  22.248  0.00  0.00    +0.002 A 
ATOM     21  C   UNL     1       7.252  -5.272  23.470  0.00  0.00    +0.023 A 
ENDBRANCH  13  16
ENDBRANCH  11  12
BRANCH  11  22
ATOM     22  C   UNL     1       4.643  -2.806  27.868  0.00  0.00    +0.032 C 
BRANCH  22  23
ATOM     23  C   UNL     1       4.955  -4.232  28.343  0.00  0.00    +0.003 C 
BRANCH  23  24
ATOM     24  C   UNL     1       4.078  -5.319  27.719  0.00  0.00    +0.015 C 
BRANCH  24  25
ATOM     25  C   UNL     1       4.844  -6.142  26.683  0.00  0.00    +0.077 C 
BRANCH  25  26
ATOM     26  N   UNL     1       6.279  -6.039  26.900  0.00  0.00    -0.330 NA
ATOM     27  H   UNL     1       6.714  -5.655  26.061  0.00  0.00    +0.118 HD
ATOM     28  H   UNL     1       6.468  -5.372  27.647  0.00  0.00    +0.118 HD
ENDBRANCH  25  26
ENDBRANCH  24  25
ENDBRANCH  23  24
ENDBRANCH  22  23
ENDBRANCH  11  22
ENDBRANCH   8  11
ENDBRANCH   6   7
BRANCH   6  29
ATOM     29  C   UNL     1       5.655   2.431  27.783  0.00  0.00    +0.014 C 
BRANCH  29  30
ATOM     30  C   UNL     1       6.125   3.893  27.857  0.00  0.00    +0.001 C 
BRANCH  30  31
ATOM     31  C   UNL     1       5.127   4.906  27.298  0.00  0.00    -0.003 C 
ATOM     32  C   UNL     1       5.801   6.197  26.866  0.00  0.00    +0.004 C 
ENDBRANCH  30  31
ENDBRANCH  29  30
ENDBRANCH   6  29
ENDBRANCH   5   6
ENDBRANCH   3   5
ENDBRANCH   1   3
BRANCH   1  33
ATOM     33  C   UNL     1       4.768   3.019  23.319  0.00  0.00    +0.111 C 
BRANCH  33  34
ATOM     34  C   UNL     1       5.392   4.424  23.478  0.00  0.00    +0.090 C 
BRANCH  34  35
ATOM     35  C   UNL     1       6.917   4.325  23.261  0.00  0.00    +0.218 C 
ATOM     36  N   UNL     1       7.646   4.212  24.435  0.00  0.00    -0.304 N 
ATOM     37  H   UNL     1       7.179   4.415  25.308  0.00  0.00    +0.149 HD
ATOM     38  O   UNL     1       7.461   4.364  22.163  0.00  0.00    -0.275 OA
BRANCH  36  39
ATOM     39  C   UNL     1       9.107   4.011  24.505  0.00  0.00    +0.159 C 
BRANCH  39  40
ATOM     40  C   UNL     1       9.562   2.658  23.904  0.00  0.00    +0.238 C 
ATOM     41  N   UNL     1       8.822   1.563  24.293  0.00  0.00    -0.284 N 
ATOM     42  H   UNL     1       8.382   1.626  25.209  0.00  0.00    +0.155 HD
ATOM     43  O   UNL     1      10.595   2.568  23.237  0.00  0.00    -0.273 OA
BRANCH  41  44
ATOM     44  C   UNL     1       9.019   0.295  23.728  0.00  0.00    +0.033 A 
ATOM     45  C   UNL     1       8.665   0.022  22.399  0.00  0.00    +0.023 A 
ATOM     46  C   UNL     1       8.893  -1.239  21.854  0.00  0.00    +0.002 A 
ATOM     47  C   UNL     1       9.506  -2.220  22.625  0.00  0.00    +0.000 A 
ATOM     48  C   UNL     1       9.849  -1.955  23.954  0.00  0.00    +0.002 A 
ATOM     49  C   UNL     1       9.579  -0.707  24.514  0.00  0.00    +0.023 A 
ENDBRANCH  41  44
ENDBRANCH  39  40
BRANCH  39  50
ATOM     50  C   UNL     1       9.864   5.086  23.685  0.00  0.00    +0.032 C 
BRANCH  50  51
ATOM     51  C   UNL     1      10.596   6.182  24.453  0.00  0.00    +0.003 C 
BRANCH  51  52
ATOM     52  C   UNL     1      12.116   6.167  24.304  0.00  0.00    +0.015 C 
BRANCH  52  53
ATOM     53  C   UNL     1      12.594   5.387  23.076  0.00  0.00    +0.077 C 
BRANCH  53  54
ATOM     54  N   UNL     1      14.027   5.142  23.159  0.00  0.00    -0.330 NA
ATOM     55  H   UNL     1      14.527   5.980  22.863  0.00  0.00    +0.118 HD
ATOM     56  H   UNL     1      14.293   4.983  24.129  0.00  0.00    +0.118 HD
ENDBRANCH  53  54
ENDBRANCH  52  53
ENDBRANCH  51  52
ENDBRANCH  50  51
ENDBRANCH  39  50
ENDBRANCH  36  39
ENDBRANCH  34  35
BRANCH  34  57
ATOM     57  C   UNL     1       4.674   5.503  22.614  0.00  0.00    +0.014 C 
BRANCH  57  58
ATOM     58  C   UNL     1       4.437   6.807  23.407  0.00  0.00    +0.001 C 
BRANCH  58  60
ATOM     59  C   UNL     1       2.043   5.993  23.808  0.00  0.00    +0.004 C 
ATOM     60  C   UNL     1       3.195   6.853  24.304  0.00  0.00    -0.003 C 
ENDBRANCH  58  60
ENDBRANCH  57  58
ENDBRANCH  34  57
ENDBRANCH  33  34
ENDBRANCH   1  33
TORSDOF 29
ENDMDL
MODEL 9
REMARK VINA RESULT:      -5.1      2.182      7.402
REMARK  Name = 
REMARK  31 active torsions:
REMARK  status: ('A' for Active; 'I' for Inactive)
REMARK    1  A    between atoms: C_1  and  C_2
REMARK    2  A    between atoms: C_2  and  C_3
REMARK    3  A    between atoms: C_3  and  C_4
REMARK    4  A    between atoms: C_4  and  C_5
REMARK    5  A    between atoms: C_5  and  C_7
REMARK    6  A    between atoms: C_5  and  C_36
REMARK    7  A    between atoms: C_7  and  N_8
REMARK    8  A    between atoms: N_8  and  N_9
REMARK    9  A    between atoms: N_9  and  C_10
REMARK   10  A    between atoms: C_10  and  C_11
REMARK   11  A    between atoms: C_11  and  C_13
REMARK   12  A    between atoms: C_11  and  C_17
REMARK   13  A    between atoms: C_13  and  C_14
REMARK   14  A    between atoms: C_14  and  C_15
REMARK   15  A    between atoms: C_15  and  C_16
REMARK   16  A    between atoms: N_19  and  C_20
REMARK   17  A    between atoms: C_20  and  C_22
REMARK   18  A    between atoms: C_20  and  C_27
REMARK   19  A    between atoms: C_22  and  C_23
REMARK   20  A    between atoms: C_23  and  C_24
REMARK   21  A    between atoms: C_24  and  C_25
REMARK   22  A    between atoms: C_25  and  N_26
REMARK   23  A    between atoms: N_29  and  C_30
REMARK   24  A    between atoms: N_38  and  C_39
REMARK   25  A    between atoms: C_39  and  C_41
REMARK   26  A    between atoms: C_39  and  C_46
REMARK   27  A    between atoms: C_41  and  C_42
REMARK   28  A    between atoms: C_42  and  C_43
REMARK   29  A    between atoms: C_43  and  C_44
REMARK   30  A    between atoms: C_44  and  N_45
REMARK   31  A    between atoms: N_48  and  C_49
REMARK                            x       y       z     vdW  Elec       q    Type
REMARK                         _______ _______ _______ _____ _____    ______ ____
ROOT
ATOM      1  N   UNL     1       5.407  -1.894  25.031  0.00  0.00    -0.256 NA
ATOM      2  H   UNL     1       6.253  -2.138  24.505  0.00  0.00    +0.141 HD
ENDROOT
BRANCH   1   3
ATOM      3  N   UNL     1       5.338  -2.637  26.279  0.00  0.00    -0.256 NA
ATOM      4  H   UNL     1       4.904  -2.050  27.002  0.00  0.00    +0.141 HD
BRANCH   3   5
ATOM      5  C   UNL     1       4.457  -3.815  26.124  0.00  0.00    +0.111 C 
BRANCH   5   6
ATOM      6  C   UNL     1       4.934  -5.102  26.824  0.00  0.00    +0.090 C 
BRANCH   6   7
ATOM      7  C   UNL     1       6.362  -5.426  26.372  0.00  0.00    +0.218 C 
ATOM      8  N   UNL     1       6.656  -5.004  25.104  0.00  0.00    -0.304 N 
ATOM      9  H   UNL     1       5.925  -4.587  24.529  0.00  0.00    +0.149 HD
ATOM     10  O   UNL     1       7.185  -5.994  27.082  0.00  0.00    -0.275 OA
BRANCH   8  11
ATOM     11  C   UNL     1       7.991  -5.051  24.490  0.00  0.00    +0.159 C 
BRANCH  11  12
ATOM     12  C   UNL     1       8.441  -3.569  24.467  0.00  0.00    +0.238 C 
ATOM     13  N   UNL     1       9.062  -3.156  23.303  0.00  0.00    -0.284 N 
ATOM     14  H   UNL     1       9.238  -3.854  22.592  0.00  0.00    +0.155 HD
ATOM     15  O   UNL     1       8.192  -2.843  25.435  0.00  0.00    -0.273 OA
BRANCH  13  16
ATOM     16  C   UNL     1       9.411  -1.832  22.956  0.00  0.00    +0.033 A 
ATOM     17  C   UNL     1      10.132  -1.079  23.893  0.00  0.00    +0.023 A 
ATOM     18  C   UNL     1      10.475   0.249  23.624  0.00  0.00    +0.002 A 
ATOM     19  C   UNL     1      10.091   0.839  22.422  0.00  0.00    +0.000 A 
ATOM     20  C   UNL     1       9.396   0.091  21.478  0.00  0.00    +0.002 A 
ATOM     21  C   UNL     1       9.068  -1.240  21.739  0.00  0.00    +0.023 A 
ENDBRANCH  13  16
ENDBRANCH  11  12
BRANCH  11  22
ATOM     22  C   UNL     1       7.925  -5.670  23.080  0.00  0.00    +0.032 C 
BRANCH  22  23
ATOM     23  C   UNL     1       6.512  -6.046  22.615  0.00  0.00    +0.003 C 
BRANCH  23  24
ATOM     24  C   UNL     1       6.080  -5.400  21.297  0.00  0.00    +0.015 C 
BRANCH  24  25
ATOM     25  C   UNL     1       6.008  -3.877  21.407  0.00  0.00    +0.077 C 
BRANCH  25  26
ATOM     26  N   UNL     1       5.149  -3.479  22.512  0.00  0.00    -0.330 NA
ATOM     27  H   UNL     1       4.235  -3.219  22.143  0.00  0.00    +0.118 HD
ATOM     28  H   UNL     1       4.990  -4.275  23.128  0.00  0.00    +0.118 HD
ENDBRANCH  25  26
ENDBRANCH  24  25
ENDBRANCH  23  24
ENDBRANCH  22  23
ENDBRANCH  11  22
ENDBRANCH   8  11
ENDBRANCH   6   7
BRANCH   6  29
ATOM     29  C   UNL     1       3.963  -6.296  26.676  0.00  0.00    +0.014 C 
BRANCH  29  30
ATOM     30  C   UNL     1       2.857  -6.201  25.613  0.00  0.00    +0.001 C 
BRANCH  30  31
ATOM     31  C   UNL     1       3.177  -6.919  24.303  0.00  0.00    -0.003 C 
ATOM     32  C   UNL     1       2.763  -6.109  23.087  0.00  0.00    +0.004 C 
ENDBRANCH  30  31
ENDBRANCH  29  30
ENDBRANCH   6  29
ENDBRANCH   5   6
ENDBRANCH   3   5
ENDBRANCH   1   3
BRANCH   1  33
ATOM     33  C   UNL     1       5.464  -0.456  25.344  0.00  0.00    +0.111 C 
BRANCH  33  34
ATOM     34  C   UNL     1       6.822   0.180  24.970  0.00  0.00    +0.090 C 
BRANCH  34  35
ATOM     35  C   UNL     1       6.575   1.358  24.003  0.00  0.00    +0.218 C 
ATOM     36  N   UNL     1       6.342   2.568  24.638  0.00  0.00    -0.304 N 
ATOM     37  H   UNL     1       6.140   2.555  25.628  0.00  0.00    +0.149 HD
ATOM     38  O   UNL     1       6.557   1.255  22.781  0.00  0.00    -0.275 OA
BRANCH  36  39
ATOM     39  C   UNL     1       6.169   3.863  23.951  0.00  0.00    +0.159 C 
BRANCH  39  40
ATOM     40  C   UNL     1       7.513   4.521  23.550  0.00  0.00    +0.238 C 
ATOM     41  N   UNL     1       8.484   4.519  24.527  0.00  0.00    -0.284 N 
ATOM     42  H   UNL     1       8.147   4.522  25.488  0.00  0.00    +0.155 HD
ATOM     43  O   UNL     1       7.641   5.117  22.477  0.00  0.00    -0.273 OA
BRANCH  41  44
ATOM     44  C   UNL     1       9.795   4.948  24.274  0.00  0.00    +0.033 A 
ATOM     45  C   UNL     1      10.272   6.172  24.761  0.00  0.00    +0.023 A 
ATOM     46  C   UNL     1      11.585   6.564  24.516  0.00  0.00    +0.002 A 
ATOM     47  C   UNL     1      12.435   5.717  23.814  0.00  0.00    +0.000 A 
ATOM     48  C   UNL     1      11.959   4.501  23.316  0.00  0.00    +0.002 A 
ATOM     49  C   UNL     1      10.631   4.129  23.522  0.00  0.00    +0.023 A 
ENDBRANCH  41  44
ENDBRANCH  39  40
BRANCH  39  50
ATOM     50  C   UNL     1       5.394   3.695  22.619  0.00  0.00    +0.032 C 
BRANCH  50  51
ATOM     51  C   UNL     1       3.908   4.034  22.613  0.00  0.00    +0.003 C 
BRANCH  51  52
ATOM     52  C   UNL     1       3.337   4.450  23.968  0.00  0.00    +0.015 C 
BRANCH  52  53
ATOM     53  C   UNL     1       2.394   3.406  24.571  0.00  0.00    +0.077 C 
BRANCH  53  54
ATOM     54  N   UNL     1       3.158   2.342  25.207  0.00  0.00    -0.330 NA
ATOM     55  H   UNL     1       2.550   1.537  25.357  0.00  0.00    +0.118 HD
ATOM     56  H   UNL     1       3.895   2.024  24.578  0.00  0.00    +0.118 HD
ENDBRANCH  53  54
ENDBRANCH  52  53
ENDBRANCH  51  52
ENDBRANCH  50  51
ENDBRANCH  39  50
ENDBRANCH  36  39
ENDBRANCH  34  35
BRANCH  34  57
ATOM     57  C   UNL     1       7.690   0.525  26.216  0.00  0.00    +0.014 C 
BRANCH  57  58
ATOM     58  C   UNL     1       6.905   0.326  27.533  0.00  0.00    +0.001 C 
BRANCH  58  60
ATOM     59  C   UNL     1       5.937   1.325  29.682  0.00  0.00    +0.004 C 
ATOM     60  C   UNL     1       6.893   1.504  28.512  0.00  0.00    -0.003 C 
ENDBRANCH  58  60
ENDBRANCH  57  58
ENDBRANCH  34  57
ENDBRANCH  33  34
ENDBRANCH   1  33
TORSDOF 29
ENDMDL
