MODEL 1
REMARK VINA RESULT:      -6.0      0.000      0.000
REMARK  Name = 
REMARK  5 active torsions:
REMARK  status: ('A' for Active; 'I' for Inactive)
REMARK    1  A    between atoms: O5*_1  and  C5*_2
REMARK    2  A    between atoms: C5*_2  and  C4*_3
REMARK    3  A    between atoms: C1*_6  and  N_14
REMARK    4  A    between atoms: C2*_8  and  O2*_10
REMARK    5  A    between atoms: C3*_11  and  O3*_13
REMARK                            x       y       z     vdW  Elec       q    Type
REMARK                         _______ _______ _______ _____ _____    ______ ____
ROOT
ATOM      1  C4* UNL     1       8.617  -4.427  26.327  0.00  0.00    +0.177 C 
ATOM      2  C3* UNL     1       8.819  -5.203  25.031  0.00  0.00    +0.178 C 
ATOM      3  C2* UNL     1       8.529  -4.215  23.905  0.00  0.00    +0.195 C 
ATOM      4  C1* UNL     1       8.073  -2.926  24.619  0.00  0.00    +0.255 C 
ATOM      5  O4* UNL     1       8.534  -3.040  25.981  0.00  0.00    -0.346 OA
ENDROOT
BRANCH   4   6
ATOM      6  N   UNL     1       8.582  -1.647  24.078  0.00  0.00    -0.272 N 
ATOM      7  C   UNL     1       7.786  -0.869  23.243  0.00  0.00    +0.329 A 
ATOM      8  O   UNL     1       6.615  -1.165  22.985  0.00  0.00    -0.246 OA
ATOM      9  N   UNL     1       8.338   0.195  22.550  0.00  0.00    -0.314 N 
ATOM     10  H   UNL     1       7.723   0.490  21.799  0.00  0.00    +0.170 HD
ATOM     11  C   UNL     1       9.515   0.915  22.670  0.00  0.00    +0.087 A 
ATOM     12  C   UNL     1      10.347   0.880  23.719  0.00  0.00    +0.019 A 
ATOM     13  C   UNL     1      10.003   0.064  24.860  0.00  0.00    +0.019 A 
ATOM     14  C   UNL     1       9.818  -1.229  24.565  0.00  0.00    +0.093 A 
ENDBRANCH   4   6
BRANCH   2  15
ATOM     15  O3* UNL     1      10.193  -5.638  24.954  0.00  0.00    -0.386 OA
ATOM     16  H3* UNL     1      10.245  -6.352  24.292  0.00  0.00    +0.210 HD
ENDBRANCH   2  15
BRANCH   3  17
ATOM     17  O2* UNL     1       7.526  -4.731  23.021  0.00  0.00    -0.385 OA
ATOM     18  H2* UNL     1       7.567  -5.706  23.119  0.00  0.00    +0.210 HD
ENDBRANCH   3  17
BRANCH   1  19
ATOM     19  C5* UNL     1       7.362  -4.826  27.110  0.00  0.00    +0.190 C 
BRANCH  19  20
ATOM     20  O5* UNL     1       7.568  -6.017  27.860  0.00  0.00    -0.392 OA
ATOM     21  H5* UNL     1       8.105  -6.611  27.307  0.00  0.00    +0.210 HD
ENDBRANCH  19  20
ENDBRANCH   1  19
TORSDOF 5
ENDMDL
MODEL 2
REMARK VINA RESULT:      -5.9      2.541      5.392
REMARK  Name = 
REMARK  5 active torsions:
REMARK  status: ('A' for Active; 'I' for Inactive)
REMARK    1  A    between atoms: O5*_1  and  C5*_2
REMARK    2  A    between atoms: C5*_2  and  C4*_3
REMARK    3  A    between atoms: C1*_6  and  N_14
REMARK    4  A    between atoms: C2*_8  and  O2*_10
REMARK    5  A    between atoms: C3*_11  and  O3*_13
REMARK                            x       y       z     vdW  Elec       q    Type
REMARK                         _______ _______ _______ _____ _____    ______ ____
ROOT
ATOM      1  C4* UNL     1       9.132   0.844  23.412  0.00  0.00    +0.177 C 
ATOM      2  C3* UNL     1       9.670   0.480  22.033  0.00  0.00    +0.178 C 
ATOM      3  C2* UNL     1       9.508  -1.033  21.910  0.00  0.00    +0.195 C 
ATOM      4  C1* UNL     1       8.966  -1.485  23.282  0.00  0.00    +0.255 C 
ATOM      5  O4* UNL     1       8.430  -0.301  23.908  0.00  0.00    -0.346 OA
ENDROOT
BRANCH   4   6
ATOM      6  N   UNL     1       7.901  -2.511  23.275  0.00  0.00    -0.272 N 
ATOM      7  C   UNL     1       8.170  -3.807  23.701  0.00  0.00    +0.329 A 
ATOM      8  O   UNL     1       9.265  -4.134  24.170  0.00  0.00    -0.246 OA
ATOM      9  N   UNL     1       7.252  -4.819  23.472  0.00  0.00    -0.314 N 
ATOM     10  H   UNL     1       7.686  -5.728  23.589  0.00  0.00    +0.170 HD
ATOM     11  C   UNL     1       5.910  -4.841  23.132  0.00  0.00    +0.087 A 
ATOM     12  C   UNL     1       5.078  -3.793  23.174  0.00  0.00    +0.019 A 
ATOM     13  C   UNL     1       5.573  -2.522  23.647  0.00  0.00    +0.019 A 
ATOM     14  C   UNL     1       6.623  -2.059  22.957  0.00  0.00    +0.093 A 
ENDBRANCH   4   6
BRANCH   2  15
ATOM     15  O3* UNL     1       8.870   1.136  21.028  0.00  0.00    -0.386 OA
ATOM     16  H3* UNL     1       8.022   1.391  21.437  0.00  0.00    +0.210 HD
ENDBRANCH   2  15
BRANCH   3  17
ATOM     17  O2* UNL     1      10.759  -1.654  21.588  0.00  0.00    -0.385 OA
ATOM     18  H2* UNL     1      10.596  -2.619  21.648  0.00  0.00    +0.210 HD
ENDBRANCH   3  17
BRANCH   1  19
ATOM     19  C5* UNL     1      10.211   1.250  24.420  0.00  0.00    +0.190 C 
BRANCH  19  20
ATOM     20  O5* UNL     1      10.098   0.516  25.634  0.00  0.00    -0.392 OA
ATOM     21  H5* UNL     1      10.909   0.686  26.145  0.00  0.00    +0.210 HD
ENDBRANCH  19  20
ENDBRANCH   1  19
TORSDOF 5
ENDMDL
MODEL 3
REMARK VINA RESULT:      -5.8      1.872      2.985
REMARK  Name = 
REMARK  5 active torsions:
REMARK  status: ('A' for Active; 'I' for Inactive)
REMARK    1  A    between atoms: O5*_1  and  C5*_2
REMARK    2  A    between atoms: C5*_2  and  C4*_3
REMARK    3  A    between atoms: C1*_6  and  N_14
REMARK    4  A    between atoms: C2*_8  and  O2*_10
REMARK    5  A    between atoms: C3*_11  and  O3*_13
REMARK                            x       y       z     vdW  Elec       q    Type
REMARK                         _______ _______ _______ _____ _____    ______ ____
ROOT
ATOM      1  C4* UNL     1       7.041  -4.781  23.452  0.00  0.00    +0.177 C 
ATOM      2  C3* UNL     1       7.788  -5.310  24.670  0.00  0.00    +0.178 C 
ATOM      3  C2* UNL     1       8.974  -4.369  24.872  0.00  0.00    +0.195 C 
ATOM      4  C1* UNL     1       8.904  -3.387  23.685  0.00  0.00    +0.255 C 
ATOM      5  O4* UNL     1       7.559  -3.476  23.172  0.00  0.00    -0.346 OA
ENDROOT
BRANCH   4   6
ATOM      6  N   UNL     1       9.181  -1.964  23.978  0.00  0.00    -0.272 N 
ATOM      7  C   UNL     1      10.112  -1.259  23.223  0.00  0.00    +0.329 A 
ATOM      8  O   UNL     1      10.680  -1.754  22.245  0.00  0.00    -0.246 OA
ATOM      9  N   UNL     1      10.545  -0.011  23.642  0.00  0.00    -0.314 N 
ATOM     10  H   UNL     1      11.395   0.254  23.156  0.00  0.00    +0.170 HD
ATOM     11  C   UNL     1      10.069   0.916  24.554  0.00  0.00    +0.087 A 
ATOM     12  C   UNL     1       8.853   0.903  25.116  0.00  0.00    +0.019 A 
ATOM     13  C   UNL     1       7.914  -0.125  24.735  0.00  0.00    +0.019 A 
ATOM     14  C   UNL     1       8.364  -1.370  24.937  0.00  0.00    +0.093 A 
ENDBRANCH   4   6
BRANCH   2  15
ATOM     15  O3* UNL     1       6.918  -5.247  25.819  0.00  0.00    -0.386 OA
ATOM     16  H3* UNL     1       7.141  -4.442  26.322  0.00  0.00    +0.210 HD
ENDBRANCH   2  15
BRANCH   3  17
ATOM     17  O2* UNL     1      10.205  -5.102  24.901  0.00  0.00    -0.385 OA
ATOM     18  H2* UNL     1      10.285  -5.516  24.017  0.00  0.00    +0.210 HD
ENDBRANCH   3  17
BRANCH   1  19
ATOM     19  C5* UNL     1       7.179  -5.656  22.202  0.00  0.00    +0.190 C 
BRANCH  19  20
ATOM     20  O5* UNL     1       6.101  -6.577  22.084  0.00  0.00    -0.392 OA
ATOM     21  H5* UNL     1       6.263  -7.287  22.730  0.00  0.00    +0.210 HD
ENDBRANCH  19  20
ENDBRANCH   1  19
TORSDOF 5
ENDMDL
MODEL 4
REMARK VINA RESULT:      -5.7      2.265      4.026
REMARK  Name = 
REMARK  5 active torsions:
REMARK  status: ('A' for Active; 'I' for Inactive)
REMARK    1  A    between atoms: O5*_1  and  C5*_2
REMARK    2  A    between atoms: C5*_2  and  C4*_3
REMARK    3  A    between atoms: C1*_6  and  N_14
REMARK    4  A    between atoms: C2*_8  and  O2*_10
REMARK    5  A    between atoms: C3*_11  and  O3*_13
REMARK                            x       y       z     vdW  Elec       q    Type
REMARK                         _______ _______ _______ _____ _____    ______ ____
ROOT
ATOM      1  C4* UNL     1       4.869  -5.621  25.598  0.00  0.00    +0.177 C 
ATOM      2  C3* UNL     1       5.565  -5.426  26.940  0.00  0.00    +0.178 C 
ATOM      3  C2* UNL     1       7.005  -5.043  26.609  0.00  0.00    +0.195 C 
ATOM      4  C1* UNL     1       7.094  -5.132  25.072  0.00  0.00    +0.255 C 
ATOM      5  O4* UNL     1       5.735  -5.088  24.590  0.00  0.00    -0.346 OA
ENDROOT
BRANCH   4   6
ATOM      6  N   UNL     1       7.851  -4.064  24.383  0.00  0.00    -0.272 N 
ATOM      7  C   UNL     1       9.239  -4.021  24.463  0.00  0.00    +0.329 A 
ATOM      8  O   UNL     1       9.895  -4.899  25.033  0.00  0.00    -0.246 OA
ATOM      9  N   UNL     1       9.926  -2.900  24.026  0.00  0.00    -0.314 N 
ATOM     10  H   UNL     1      10.875  -2.901  24.384  0.00  0.00    +0.170 HD
ATOM     11  C   UNL     1       9.594  -1.820  23.225  0.00  0.00    +0.087 A 
ATOM     12  C   UNL     1       8.509  -1.732  22.446  0.00  0.00    +0.019 A 
ATOM     13  C   UNL     1       7.601  -2.853  22.376  0.00  0.00    +0.019 A 
ATOM     14  C   UNL     1       7.104  -3.222  23.563  0.00  0.00    +0.093 A 
ENDBRANCH   4   6
BRANCH   2  15
ATOM     15  O3* UNL     1       4.925  -4.343  27.647  0.00  0.00    -0.386 OA
ATOM     16  H3* UNL     1       5.042  -4.497  28.602  0.00  0.00    +0.210 HD
ENDBRANCH   2  15
BRANCH   3  17
ATOM     17  O2* UNL     1       7.928  -5.925  27.260  0.00  0.00    -0.385 OA
ATOM     18  H2* UNL     1       7.388  -6.676  27.585  0.00  0.00    +0.210 HD
ENDBRANCH   3  17
BRANCH   1  19
ATOM     19  C5* UNL     1       4.547  -7.081  25.264  0.00  0.00    +0.190 C 
BRANCH  19  20
ATOM     20  O5* UNL     1       4.557  -7.313  23.860  0.00  0.00    -0.392 OA
ATOM     21  H5* UNL     1       3.687  -7.681  23.628  0.00  0.00    +0.210 HD
ENDBRANCH  19  20
ENDBRANCH   1  19
TORSDOF 5
ENDMDL
MODEL 5
REMARK VINA RESULT:      -5.6      1.492      2.612
REMARK  Name = 
REMARK  5 active torsions:
REMARK  status: ('A' for Active; 'I' for Inactive)
REMARK    1  A    between atoms: O5*_1  and  C5*_2
REMARK    2  A    between atoms: C5*_2  and  C4*_3
REMARK    3  A    between atoms: C1*_6  and  N_14
REMARK    4  A    between atoms: C2*_8  and  O2*_10
REMARK    5  A    between atoms: C3*_11  and  O3*_13
REMARK                            x       y       z     vdW  Elec       q    Type
REMARK                         _______ _______ _______ _____ _____    ______ ____
ROOT
ATOM      1  C4* UNL     1       8.722  -4.267  24.160  0.00  0.00    +0.177 C 
ATOM      2  C3* UNL     1       7.337  -4.070  23.556  0.00  0.00    +0.178 C 
ATOM      3  C2* UNL     1       7.066  -2.569  23.619  0.00  0.00    +0.195 C 
ATOM      4  C1* UNL     1       8.285  -1.978  24.355  0.00  0.00    +0.255 C 
ATOM      5  O4* UNL     1       9.326  -2.973  24.265  0.00  0.00    -0.346 OA
ENDROOT
BRANCH   4   6
ATOM      6  N   UNL     1       8.832  -0.708  23.830  0.00  0.00    -0.272 N 
ATOM      7  C   UNL     1       9.543   0.150  24.663  0.00  0.00    +0.329 A 
ATOM      8  O   UNL     1       9.814  -0.141  25.833  0.00  0.00    -0.246 OA
ATOM      9  N   UNL     1       9.845   1.435  24.243  0.00  0.00    -0.314 N 
ATOM     10  H   UNL     1      10.117   2.013  25.031  0.00  0.00    +0.170 HD
ATOM     11  C   UNL     1       9.854   2.067  23.011  0.00  0.00    +0.087 A 
ATOM     12  C   UNL     1       9.782   1.458  21.822  0.00  0.00    +0.019 A 
ATOM     13  C   UNL     1       9.731   0.015  21.774  0.00  0.00    +0.019 A 
ATOM     14  C   UNL     1       8.707  -0.513  22.457  0.00  0.00    +0.093 A 
ENDBRANCH   4   6
BRANCH   2  15
ATOM     15  O3* UNL     1       7.359  -4.502  22.179  0.00  0.00    -0.386 OA
ATOM     16  H3* UNL     1       6.606  -4.085  21.721  0.00  0.00    +0.210 HD
ENDBRANCH   2  15
BRANCH   3  17
ATOM     17  O2* UNL     1       5.835  -2.302  24.303  0.00  0.00    -0.385 OA
ATOM     18  H2* UNL     1       5.362  -1.649  23.746  0.00  0.00    +0.210 HD
ENDBRANCH   3  17
BRANCH   1  19
ATOM     19  C5* UNL     1       8.717  -4.933  25.540  0.00  0.00    +0.190 C 
BRANCH  19  20
ATOM     20  O5* UNL     1       9.709  -5.947  25.637  0.00  0.00    -0.392 OA
ATOM     21  H5* UNL     1      10.069  -5.907  26.540  0.00  0.00    +0.210 HD
ENDBRANCH  19  20
ENDBRANCH   1  19
TORSDOF 5
ENDMDL
MODEL 6
REMARK VINA RESULT:      -5.5      2.353      5.583
REMARK  Name = 
REMARK  5 active torsions:
REMARK  status: ('A' for Active; 'I' for Inactive)
REMARK    1  A    between atoms: O5*_1  and  C5*_2
REMARK    2  A    between atoms: C5*_2  and  C4*_3
REMARK    3  A    between atoms: C1*_6  and  N_14
REMARK    4  A    between atoms: C2*_8  and  O2*_10
REMARK    5  A    between atoms: C3*_11  and  O3*_13
REMARK                            x       y       z     vdW  Elec       q    Type
REMARK                         _______ _______ _______ _____ _____    ______ ____
ROOT
ATOM      1  C4* UNL     1       9.659   0.225  23.255  0.00  0.00    +0.177 C 
ATOM      2  C3* UNL     1       8.531   0.976  23.953  0.00  0.00    +0.178 C 
ATOM      3  C2* UNL     1       7.448  -0.064  24.230  0.00  0.00    +0.195 C 
ATOM      4  C1* UNL     1       7.972  -1.361  23.582  0.00  0.00    +0.255 C 
ATOM      5  O4* UNL     1       9.391  -1.174  23.405  0.00  0.00    -0.346 OA
ENDROOT
BRANCH   4   6
ATOM      6  N   UNL     1       7.775  -2.614  24.343  0.00  0.00    -0.272 N 
ATOM      7  C   UNL     1       7.536  -3.812  23.676  0.00  0.00    +0.329 A 
ATOM      8  O   UNL     1       7.554  -3.897  22.444  0.00  0.00    -0.246 OA
ATOM      9  N   UNL     1       7.117  -4.928  24.382  0.00  0.00    -0.314 N 
ATOM     10  H   UNL     1       6.733  -5.625  23.753  0.00  0.00    +0.170 HD
ATOM     11  C   UNL     1       7.120  -5.276  25.723  0.00  0.00    +0.087 A 
ATOM     12  C   UNL     1       7.794  -4.642  26.691  0.00  0.00    +0.019 A 
ATOM     13  C   UNL     1       8.634  -3.520  26.343  0.00  0.00    +0.019 A 
ATOM     14  C   UNL     1       7.984  -2.531  25.717  0.00  0.00    +0.093 A 
ENDBRANCH   4   6
BRANCH   2  15
ATOM     15  O3* UNL     1       9.023   1.508  25.201  0.00  0.00    -0.386 OA
ATOM     16  H3* UNL     1       8.360   1.321  25.890  0.00  0.00    +0.210 HD
ENDBRANCH   2  15
BRANCH   3  17
ATOM     17  O2* UNL     1       6.192   0.352  23.679  0.00  0.00    -0.385 OA
ATOM     18  H2* UNL     1       6.070  -0.187  22.869  0.00  0.00    +0.210 HD
ENDBRANCH   3  17
BRANCH   1  19
ATOM     19  C5* UNL     1       9.805   0.553  21.766  0.00  0.00    +0.190 C 
BRANCH  19  20
ATOM     20  O5* UNL     1       9.785   1.956  21.533  0.00  0.00    -0.392 OA
ATOM     21  H5* UNL     1      10.620   2.182  21.087  0.00  0.00    +0.210 HD
ENDBRANCH  19  20
ENDBRANCH   1  19
TORSDOF 5
ENDMDL
MODEL 7
REMARK VINA RESULT:      -5.5      2.631      5.849
REMARK  Name = 
REMARK  5 active torsions:
REMARK  status: ('A' for Active; 'I' for Inactive)
REMARK    1  A    between atoms: O5*_1  and  C5*_2
REMARK    2  A    between atoms: C5*_2  and  C4*_3
REMARK    3  A    between atoms: C1*_6  and  N_14
REMARK    4  A    between atoms: C2*_8  and  O2*_10
REMARK    5  A    between atoms: C3*_11  and  O3*_13
REMARK                            x       y       z     vdW  Elec       q    Type
REMARK                         _______ _______ _______ _____ _____    ______ ____
ROOT
ATOM      1  C4* UNL     1       8.734   2.094  23.556  0.00  0.00    +0.177 C 
ATOM      2  C3* UNL     1       8.374   1.551  22.178  0.00  0.00    +0.178 C 
ATOM      3  C2* UNL     1       8.747   0.071  22.203  0.00  0.00    +0.195 C 
ATOM      4  C1* UNL     1       9.402  -0.147  23.582  0.00  0.00    +0.255 C 
ATOM      5  O4* UNL     1       8.989   0.966  24.401  0.00  0.00    -0.346 OA
ENDROOT
BRANCH   4   6
ATOM      6  N   UNL     1       9.048  -1.390  24.301  0.00  0.00    -0.272 N 
ATOM      7  C   UNL     1       9.663  -2.594  23.971  0.00  0.00    +0.329 A 
ATOM      8  O   UNL     1      10.569  -2.664  23.134  0.00  0.00    -0.246 OA
ATOM      9  N   UNL     1       9.166  -3.787  24.470  0.00  0.00    -0.314 N 
ATOM     10  H   UNL     1       9.533  -4.574  23.945  0.00  0.00    +0.170 HD
ATOM     11  C   UNL     1       8.306  -4.114  25.504  0.00  0.00    +0.087 A 
ATOM     12  C   UNL     1       7.906  -3.284  26.477  0.00  0.00    +0.019 A 
ATOM     13  C   UNL     1       8.426  -1.937  26.509  0.00  0.00    +0.019 A 
ATOM     14  C   UNL     1       8.192  -1.241  25.389  0.00  0.00    +0.093 A 
ENDBRANCH   4   6
BRANCH   2  15
ATOM     15  O3* UNL     1       6.952   1.690  21.975  0.00  0.00    -0.386 OA
ATOM     16  H3* UNL     1       6.777   1.633  21.018  0.00  0.00    +0.210 HD
ENDBRANCH   2  15
BRANCH   3  17
ATOM     17  O2* UNL     1       9.633  -0.249  21.123  0.00  0.00    -0.385 OA
ATOM     18  H2* UNL     1      10.293   0.475  21.102  0.00  0.00    +0.210 HD
ENDBRANCH   3  17
BRANCH   1  19
ATOM     19  C5* UNL     1       9.955   3.018  23.568  0.00  0.00    +0.190 C 
BRANCH  19  20
ATOM     20  O5* UNL     1      10.657   2.977  22.331  0.00  0.00    -0.392 OA
ATOM     21  H5* UNL     1      10.212   2.314  21.774  0.00  0.00    +0.210 HD
ENDBRANCH  19  20
ENDBRANCH   1  19
TORSDOF 5
ENDMDL
MODEL 8
REMARK VINA RESULT:      -5.5      1.914      3.142
REMARK  Name = 
REMARK  5 active torsions:
REMARK  status: ('A' for Active; 'I' for Inactive)
REMARK    1  A    between atoms: O5*_1  and  C5*_2
REMARK    2  A    between atoms: C5*_2  and  C4*_3
REMARK    3  A    between atoms: C1*_6  and  N_14
REMARK    4  A    between atoms: C2*_8  and  O2*_10
REMARK    5  A    between atoms: C3*_11  and  O3*_13
REMARK                            x       y       z     vdW  Elec       q    Type
REMARK                         _______ _______ _______ _____ _____    ______ ____
ROOT
ATOM      1  C4* UNL     1       6.868  -4.539  23.063  0.00  0.00    +0.177 C 
ATOM      2  C3* UNL     1       7.742  -4.429  24.307  0.00  0.00    +0.178 C 
ATOM      3  C2* UNL     1       8.669  -3.241  24.060  0.00  0.00    +0.195 C 
ATOM      4  C1* UNL     1       8.345  -2.780  22.625  0.00  0.00    +0.255 C 
ATOM      5  O4* UNL     1       7.051  -3.335  22.310  0.00  0.00    -0.346 OA
ENDROOT
BRANCH   4   6
ATOM      6  N   UNL     1       8.276  -1.321  22.392  0.00  0.00    -0.272 N 
ATOM      7  C   UNL     1       7.298  -0.554  23.017  0.00  0.00    +0.329 A 
ATOM      8  O   UNL     1       6.509  -1.031  23.838  0.00  0.00    -0.246 OA
ATOM      9  N   UNL     1       7.082   0.756  22.619  0.00  0.00    -0.314 N 
ATOM     10  H   UNL     1       6.189   1.091  22.963  0.00  0.00    +0.170 HD
ATOM     11  C   UNL     1       7.813   1.669  21.878  0.00  0.00    +0.087 A 
ATOM     12  C   UNL     1       9.104   1.547  21.544  0.00  0.00    +0.019 A 
ATOM     13  C   UNL     1       9.844   0.398  22.011  0.00  0.00    +0.019 A 
ATOM     14  C   UNL     1       9.314  -0.774  21.641  0.00  0.00    +0.093 A 
ENDBRANCH   4   6
BRANCH   2  15
ATOM     15  O3* UNL     1       6.902  -4.159  25.449  0.00  0.00    -0.386 OA
ATOM     16  H3* UNL     1       6.291  -3.438  25.209  0.00  0.00    +0.210 HD
ENDBRANCH   2  15
BRANCH   3  17
ATOM     17  O2* UNL     1      10.041  -3.627  24.210  0.00  0.00    -0.385 OA
ATOM     18  H2* UNL     1      10.466  -2.895  24.704  0.00  0.00    +0.210 HD
ENDBRANCH   3  17
BRANCH   1  19
ATOM     19  C5* UNL     1       7.190  -5.744  22.174  0.00  0.00    +0.190 C 
BRANCH  19  20
ATOM     20  O5* UNL     1       6.521  -5.665  20.921  0.00  0.00    -0.392 OA
ATOM     21  H5* UNL     1       6.984  -4.991  20.394  0.00  0.00    +0.210 HD
ENDBRANCH  19  20
ENDBRANCH   1  19
TORSDOF 5
ENDMDL
MODEL 9
REMARK VINA RESULT:      -5.4      2.719      6.316
REMARK  Name = 
REMARK  5 active torsions:
REMARK  status: ('A' for Active; 'I' for Inactive)
REMARK    1  A    between atoms: O5*_1  and  C5*_2
REMARK    2  A    between atoms: C5*_2  and  C4*_3
REMARK    3  A    between atoms: C1*_6  and  N_14
REMARK    4  A    between atoms: C2*_8  and  O2*_10
REMARK    5  A    between atoms: C3*_11  and  O3*_13
REMARK                            x       y       z     vdW  Elec       q    Type
REMARK                         _______ _______ _______ _____ _____    ______ ____
ROOT
ATOM      1  C4* UNL     1       7.769   2.096  21.932  0.00  0.00    +0.177 C 
ATOM      2  C3* UNL     1       9.117   2.362  22.589  0.00  0.00    +0.178 C 
ATOM      3  C2* UNL     1       9.281   1.282  23.655  0.00  0.00    +0.195 C 
ATOM      4  C1* UNL     1       7.957   0.493  23.624  0.00  0.00    +0.255 C 
ATOM      5  O4* UNL     1       7.341   0.796  22.355  0.00  0.00    -0.346 OA
ENDROOT
BRANCH   4   6
ATOM      6  N   UNL     1       8.052  -0.978  23.737  0.00  0.00    -0.272 N 
ATOM      7  C   UNL     1       8.392  -1.571  24.949  0.00  0.00    +0.329 A 
ATOM      8  O   UNL     1       8.549  -0.914  25.983  0.00  0.00    -0.246 OA
ATOM      9  N   UNL     1       8.715  -2.917  24.998  0.00  0.00    -0.314 N 
ATOM     10  H   UNL     1       9.189  -3.140  25.867  0.00  0.00    +0.170 HD
ATOM     11  C   UNL     1       8.525  -3.984  24.136  0.00  0.00    +0.087 A 
ATOM     12  C   UNL     1       7.716  -3.990  23.069  0.00  0.00    +0.019 A 
ATOM     13  C   UNL     1       6.926  -2.816  22.781  0.00  0.00    +0.019 A 
ATOM     14  C   UNL     1       7.651  -1.702  22.617  0.00  0.00    +0.093 A 
ENDBRANCH   4   6
BRANCH   2  15
ATOM     15  O3* UNL     1      10.158   2.228  21.598  0.00  0.00    -0.386 OA
ATOM     16  H3* UNL     1      11.016   2.338  22.047  0.00  0.00    +0.210 HD
ENDBRANCH   2  15
BRANCH   3  17
ATOM     17  O2* UNL     1       9.536   1.868  24.938  0.00  0.00    -0.385 OA
ATOM     18  H2* UNL     1      10.430   1.559  25.194  0.00  0.00    +0.210 HD
ENDBRANCH   3  17
BRANCH   1  19
ATOM     19  C5* UNL     1       6.685   3.121  22.282  0.00  0.00    +0.190 C 
BRANCH  19  20
ATOM     20  O5* UNL     1       7.014   4.418  21.799  0.00  0.00    -0.392 OA
ATOM     21  H5* UNL     1       6.260   4.997  22.007  0.00  0.00    +0.210 HD
ENDBRANCH  19  20
ENDBRANCH   1  19
TORSDOF 5
ENDMDL
