MODEL 1
REMARK VINA RESULT:      -6.5      0.000      0.000
REMARK  Name = 
REMARK  12 active torsions:
REMARK  status: ('A' for Active; 'I' for Inactive)
REMARK    1  A    between atoms: C_3  and  C_5
REMARK    2  A    between atoms: C_6  and  S_7
REMARK    3  A    between atoms: S_7  and  C_8
REMARK    4  A    between atoms: C_12  and  C_14
REMARK    5  A    between atoms: C_14  and  N_15
REMARK    6  A    between atoms: N_15  and  S_16
REMARK    7  A    between atoms: S_16  and  N_17
REMARK    8  A    between atoms: C_21  and  C_31
REMARK    9  A    between atoms: C_25  and  C_27
REMARK   10  A    between atoms: C_27  and  C_29
REMARK   11  A    between atoms: C_27  and  O_30
REMARK   12  A    between atoms: C_31  and  O_32
REMARK                            x       y       z     vdW  Elec       q    Type
REMARK                         _______ _______ _______ _____ _____    ______ ____
ROOT
ATOM      1  C   UNL     1       8.347   0.114  22.564  0.00  0.00    +0.104 C 
ATOM      2  C   UNL     1       9.125   1.077  23.517  0.00  0.00    +0.125 C 
ATOM      3  C   UNL     1       7.926   0.917  24.455  0.00  0.00    +0.228 C 
ATOM      4  O   UNL     1       7.623   1.249  25.579  0.00  0.00    -0.275 OA
ATOM      5  N   UNL     1       7.324   0.003  23.641  0.00  0.00    -0.260 N 
ATOM      6  C   UNL     1       7.209  -1.334  23.999  0.00  0.00    +0.131 C 
ATOM      7  C   UNL     1       7.966  -2.136  23.218  0.00  0.00    +0.019 C 
ATOM      8  C   UNL     1       8.771  -1.323  22.227  0.00  0.00    +0.046 C 
ATOM      9  C   UNL     1      10.287  -1.466  22.292  0.00  0.00    +0.015 C 
ENDROOT
BRANCH   2  10
ATOM     10  C   UNL     1       9.422   2.434  22.913  0.00  0.00    +0.125 C 
ATOM     11  C   UNL     1      10.697   3.032  23.485  0.00  0.00    +0.038 C 
BRANCH  10  12
ATOM     12  O   UNL     1       9.581   2.228  21.509  0.00  0.00    -0.391 OA
ATOM     13  H   UNL     1       8.809   1.732  21.182  0.00  0.00    +0.210 HD
ENDBRANCH  10  12
ENDBRANCH   2  10
BRANCH   6  14
ATOM     14  C   UNL     1       6.311  -1.776  25.119  0.00  0.00    +0.352 C 
ATOM     15  O   UNL     1       5.198  -2.251  24.963  0.00  0.00    -0.244 OA
BRANCH  14  16
ATOM     16  O   UNL     1       6.809  -1.581  26.361  0.00  0.00    -0.476 OA
ATOM     17  H   UNL     1       7.728  -1.889  26.521  0.00  0.00    +0.295 HD
ENDBRANCH  14  16
ENDBRANCH   6  14
BRANCH   7  18
ATOM     18  S   UNL     1       8.085  -3.848  23.362  0.00  0.00    -0.122 S 
BRANCH  18  19
ATOM     19  C   UNL     1       7.080  -4.536  22.002  0.00  0.00    +0.066 C 
ATOM     20  C   UNL     1       6.657  -5.957  22.391  0.00  0.00    +0.035 C 
ATOM     21  C   UNL     1       5.193  -5.857  22.829  0.00  0.00    +0.070 C 
ATOM     22  N   UNL     1       4.791  -4.440  22.679  0.00  0.00    -0.311 NA
ATOM     23  H   UNL     1       3.844  -4.406  22.294  0.00  0.00    +0.122 HD
ATOM     24  C   UNL     1       5.737  -3.859  21.727  0.00  0.00    +0.095 C 
BRANCH  21  25
ATOM     25  C   UNL     1       4.916  -6.334  24.271  0.00  0.00    +0.125 C 
BRANCH  25  26
ATOM     26  N   UNL     1       5.213  -5.234  25.251  0.00  0.00    -0.179 NA
ATOM     27  H   UNL     1       4.307  -4.847  25.525  0.00  0.00    +0.149 HD
BRANCH  26  28
ATOM     28  S   UNL     1       6.094  -5.691  26.600  0.00  0.00    +0.092 S 
ATOM     29  O   UNL     1       7.483  -5.755  26.248  0.00  0.00    -0.142 OA
ATOM     30  O   UNL     1       5.380  -6.758  27.256  0.00  0.00    -0.142 OA
BRANCH  28  31
ATOM     31  N   UNL     1       5.836  -4.330  27.491  0.00  0.00    -0.193 NA
ATOM     32  H   UNL     1       5.909  -4.487  28.490  0.00  0.00    +0.145 HD
ATOM     33  H   UNL     1       6.277  -3.502  27.108  0.00  0.00    +0.145 HD
ENDBRANCH  28  31
ENDBRANCH  26  28
ENDBRANCH  25  26
ENDBRANCH  21  25
ENDBRANCH  18  19
ENDBRANCH   7  18
TORSDOF 10
ENDMDL
MODEL 2
REMARK VINA RESULT:      -6.4      2.770      3.757
REMARK  Name = 
REMARK  12 active torsions:
REMARK  status: ('A' for Active; 'I' for Inactive)
REMARK    1  A    between atoms: C_3  and  C_5
REMARK    2  A    between atoms: C_6  and  S_7
REMARK    3  A    between atoms: S_7  and  C_8
REMARK    4  A    between atoms: C_12  and  C_14
REMARK    5  A    between atoms: C_14  and  N_15
REMARK    6  A    between atoms: N_15  and  S_16
REMARK    7  A    between atoms: S_16  and  N_17
REMARK    8  A    between atoms: C_21  and  C_31
REMARK    9  A    between atoms: C_25  and  C_27
REMARK   10  A    between atoms: C_27  and  C_29
REMARK   11  A    between atoms: C_27  and  O_30
REMARK   12  A    between atoms: C_31  and  O_32
REMARK                            x       y       z     vdW  Elec       q    Type
REMARK                         _______ _______ _______ _____ _____    ______ ____
ROOT
ATOM      1  C   UNL     1       8.514   1.185  24.606  0.00  0.00    +0.104 C 
ATOM      2  C   UNL     1       8.264   2.073  23.345  0.00  0.00    +0.125 C 
ATOM      3  C   UNL     1       9.411   1.281  22.712  0.00  0.00    +0.228 C 
ATOM      4  O   UNL     1       9.938   1.189  21.626  0.00  0.00    -0.275 OA
ATOM      5  N   UNL     1       9.531   0.461  23.795  0.00  0.00    -0.260 N 
ATOM      6  C   UNL     1       9.175  -0.881  23.742  0.00  0.00    +0.131 C 
ATOM      7  C   UNL     1       8.091  -1.148  24.504  0.00  0.00    +0.019 C 
ATOM      8  C   UNL     1       7.547   0.116  25.133  0.00  0.00    +0.046 C 
ATOM      9  C   UNL     1       6.105   0.483  24.802  0.00  0.00    +0.015 C 
ENDROOT
BRANCH   2  10
ATOM     10  C   UNL     1       8.434   3.558  23.594  0.00  0.00    +0.125 C 
ATOM     11  C   UNL     1       8.411   3.881  25.079  0.00  0.00    +0.038 C 
BRANCH  10  12
ATOM     12  O   UNL     1       9.704   3.919  23.050  0.00  0.00    -0.391 OA
ATOM     13  H   UNL     1       9.603   4.036  22.088  0.00  0.00    +0.210 HD
ENDBRANCH  10  12
ENDBRANCH   2  10
BRANCH   6  14
ATOM     14  C   UNL     1       9.958  -1.874  22.933  0.00  0.00    +0.352 C 
ATOM     15  O   UNL     1      10.629  -2.775  23.408  0.00  0.00    -0.244 OA
BRANCH  14  16
ATOM     16  O   UNL     1       9.905  -1.687  21.593  0.00  0.00    -0.476 OA
ATOM     17  H   UNL     1      10.714  -1.330  21.166  0.00  0.00    +0.295 HD
ENDBRANCH  14  16
ENDBRANCH   6  14
BRANCH   7  18
ATOM     18  S   UNL     1       7.354  -2.694  24.684  0.00  0.00    -0.122 S 
BRANCH  18  19
ATOM     19  C   UNL     1       7.899  -3.321  26.311  0.00  0.00    +0.066 C 
ATOM     20  C   UNL     1       6.678  -3.900  27.034  0.00  0.00    +0.035 C 
ATOM     21  C   UNL     1       6.793  -5.422  26.904  0.00  0.00    +0.070 C 
ATOM     22  N   UNL     1       8.038  -5.701  26.154  0.00  0.00    -0.311 NA
ATOM     23  H   UNL     1       8.506  -6.504  26.581  0.00  0.00    +0.122 HD
ATOM     24  C   UNL     1       8.866  -4.505  26.303  0.00  0.00    +0.095 C 
BRANCH  21  25
ATOM     25  C   UNL     1       5.594  -6.103  26.211  0.00  0.00    +0.125 C 
BRANCH  25  26
ATOM     26  N   UNL     1       5.017  -5.198  25.158  0.00  0.00    -0.179 NA
ATOM     27  H   UNL     1       5.484  -4.296  25.274  0.00  0.00    +0.149 HD
BRANCH  26  28
ATOM     28  S   UNL     1       5.165  -5.744  23.581  0.00  0.00    +0.092 S 
ATOM     29  O   UNL     1       6.559  -5.861  23.260  0.00  0.00    -0.142 OA
ATOM     30  O   UNL     1       4.210  -5.029  22.772  0.00  0.00    -0.142 OA
BRANCH  28  31
ATOM     31  N   UNL     1       4.549  -7.252  23.823  0.00  0.00    -0.193 NA
ATOM     32  H   UNL     1       3.597  -7.352  23.487  0.00  0.00    +0.145 HD
ATOM     33  H   UNL     1       5.204  -7.998  23.621  0.00  0.00    +0.145 HD
ENDBRANCH  28  31
ENDBRANCH  26  28
ENDBRANCH  25  26
ENDBRANCH  21  25
ENDBRANCH  18  19
ENDBRANCH   7  18
TORSDOF 10
ENDMDL
MODEL 3
REMARK VINA RESULT:      -6.3      2.672      3.920
REMARK  Name = 
REMARK  12 active torsions:
REMARK  status: ('A' for Active; 'I' for Inactive)
REMARK    1  A    between atoms: C_3  and  C_5
REMARK    2  A    between atoms: C_6  and  S_7
REMARK    3  A    between atoms: S_7  and  C_8
REMARK    4  A    between atoms: C_12  and  C_14
REMARK    5  A    between atoms: C_14  and  N_15
REMARK    6  A    between atoms: N_15  and  S_16
REMARK    7  A    between atoms: S_16  and  N_17
REMARK    8  A    between atoms: C_21  and  C_31
REMARK    9  A    between atoms: C_25  and  C_27
REMARK   10  A    between atoms: C_27  and  C_29
REMARK   11  A    between atoms: C_27  and  O_30
REMARK   12  A    between atoms: C_31  and  O_32
REMARK                            x       y       z     vdW  Elec       q    Type
REMARK                         _______ _______ _______ _____ _____    ______ ____
ROOT
ATOM      1  C   UNL     1       9.282  -1.017  25.034  0.00  0.00    +0.104 C 
ATOM      2  C   UNL     1       9.522  -0.147  23.759  0.00  0.00    +0.125 C 
ATOM      3  C   UNL     1       9.624  -1.482  23.018  0.00  0.00    +0.228 C 
ATOM      4  O   UNL     1       9.723  -1.860  21.872  0.00  0.00    -0.275 OA
ATOM      5  N   UNL     1       9.312  -2.202  24.133  0.00  0.00    -0.260 N 
ATOM      6  C   UNL     1       8.105  -2.877  24.257  0.00  0.00    +0.131 C 
ATOM      7  C   UNL     1       7.314  -2.332  25.207  0.00  0.00    +0.019 C 
ATOM      8  C   UNL     1       7.957  -1.100  25.805  0.00  0.00    +0.046 C 
ATOM      9  C   UNL     1       7.181   0.207  25.685  0.00  0.00    +0.015 C 
ENDROOT
BRANCH   2  10
ATOM     10  C   UNL     1      10.740   0.751  23.847  0.00  0.00    +0.125 C 
ATOM     11  C   UNL     1      10.393   2.196  23.528  0.00  0.00    +0.038 C 
BRANCH  10  12
ATOM     12  O   UNL     1      11.215   0.661  25.191  0.00  0.00    -0.391 OA
ATOM     13  H   UNL     1      12.143   0.367  25.169  0.00  0.00    +0.210 HD
ENDBRANCH  10  12
ENDBRANCH   2  10
BRANCH   6  14
ATOM     14  C   UNL     1       7.786  -4.082  23.419  0.00  0.00    +0.352 C 
ATOM     15  O   UNL     1       7.944  -5.236  23.782  0.00  0.00    -0.244 OA
BRANCH  14  16
ATOM     16  O   UNL     1       7.325  -3.808  22.177  0.00  0.00    -0.476 OA
ATOM     17  H   UNL     1       6.889  -2.937  22.051  0.00  0.00    +0.295 HD
ENDBRANCH  14  16
ENDBRANCH   6  14
BRANCH   7  18
ATOM     18  S   UNL     1       5.743  -2.891  25.641  0.00  0.00    -0.122 S 
BRANCH  18  19
ATOM     19  C   UNL     1       5.969  -3.894  27.151  0.00  0.00    +0.066 C 
ATOM     20  C   UNL     1       4.776  -4.848  27.274  0.00  0.00    +0.035 C 
ATOM     21  C   UNL     1       5.285  -6.220  26.821  0.00  0.00    +0.070 C 
ATOM     22  N   UNL     1       6.715  -6.058  26.472  0.00  0.00    -0.311 NA
ATOM     23  H   UNL     1       7.232  -6.871  26.819  0.00  0.00    +0.122 HD
ATOM     24  C   UNL     1       7.159  -4.853  27.170  0.00  0.00    +0.095 C 
BRANCH  21  25
ATOM     25  C   UNL     1       4.517  -6.834  25.631  0.00  0.00    +0.125 C 
BRANCH  25  26
ATOM     26  N   UNL     1       5.016  -6.258  24.335  0.00  0.00    -0.179 NA
ATOM     27  H   UNL     1       5.432  -7.038  23.821  0.00  0.00    +0.149 HD
BRANCH  26  28
ATOM     28  S   UNL     1       3.862  -5.481  23.403  0.00  0.00    +0.092 S 
ATOM     29  O   UNL     1       4.519  -4.791  22.330  0.00  0.00    -0.142 OA
ATOM     30  O   UNL     1       2.912  -4.864  24.295  0.00  0.00    -0.142 OA
BRANCH  28  31
ATOM     31  N   UNL     1       3.137  -6.831  22.799  0.00  0.00    -0.193 NA
ATOM     32  H   UNL     1       2.154  -6.898  23.040  0.00  0.00    +0.145 HD
ATOM     33  H   UNL     1       3.407  -7.049  21.847  0.00  0.00    +0.145 HD
ENDBRANCH  28  31
ENDBRANCH  26  28
ENDBRANCH  25  26
ENDBRANCH  21  25
ENDBRANCH  18  19
ENDBRANCH   7  18
TORSDOF 10
ENDMDL
MODEL 4
REMARK VINA RESULT:      -6.2      2.843      3.700
REMARK  Name = 
REMARK  12 active torsions:
REMARK  status: ('A' for Active; 'I' for Inactive)
REMARK    1  A    between atoms: C_3  and  C_5
REMARK    2  A    between atoms: C_6  and  S_7
REMARK    3  A    between atoms: S_7  and  C_8
REMARK    4  A    between atoms: C_12  and  C_14
REMARK    5  A    between atoms: C_14  and  N_15
REMARK    6  A    between atoms: N_15  and  S_16
REMARK    7  A    between atoms: S_16  and  N_17
REMARK    8  A    between atoms: C_21  and  C_31
REMARK    9  A    between atoms: C_25  and  C_27
REMARK   10  A    between atoms: C_27  and  C_29
REMARK   11  A    between atoms: C_27  and  O_30
REMARK   12  A    between atoms: C_31  and  O_32
REMARK                            x       y       z     vdW  Elec       q    Type
REMARK                         _______ _______ _______ _____ _____    ______ ____
ROOT
ATOM      1  C   UNL     1       8.376   1.243  24.485  0.00  0.00    +0.104 C 
ATOM      2  C   UNL     1       8.024   2.258  23.351  0.00  0.00    +0.125 C 
ATOM      3  C   UNL     1       9.209   1.644  22.602  0.00  0.00    +0.228 C 
ATOM      4  O   UNL     1       9.711   1.729  21.504  0.00  0.00    -0.275 OA
ATOM      5  N   UNL     1       9.423   0.708  23.571  0.00  0.00    -0.260 N 
ATOM      6  C   UNL     1       9.169  -0.641  23.355  0.00  0.00    +0.131 C 
ATOM      7  C   UNL     1       8.130  -1.086  24.098  0.00  0.00    +0.019 C 
ATOM      8  C   UNL     1       7.509   0.043  24.891  0.00  0.00    +0.046 C 
ATOM      9  C   UNL     1       6.034   0.332  24.635  0.00  0.00    +0.015 C 
ENDROOT
BRANCH   2  10
ATOM     10  C   UNL     1       8.086   3.709  23.782  0.00  0.00    +0.125 C 
ATOM     11  C   UNL     1       8.320   3.837  25.278  0.00  0.00    +0.038 C 
BRANCH  10  12
ATOM     12  O   UNL     1       9.183   4.295  23.078  0.00  0.00    -0.391 OA
ATOM     13  H   UNL     1       9.018   4.204  22.122  0.00  0.00    +0.210 HD
ENDBRANCH  10  12
ENDBRANCH   2  10
BRANCH   6  14
ATOM     14  C   UNL     1      10.002  -1.460  22.413  0.00  0.00    +0.352 C 
ATOM     15  O   UNL     1      10.864  -2.250  22.764  0.00  0.00    -0.244 OA
BRANCH  14  16
ATOM     16  O   UNL     1       9.761  -1.242  21.100  0.00  0.00    -0.476 OA
ATOM     17  H   UNL     1      10.428  -0.710  20.612  0.00  0.00    +0.295 HD
ENDBRANCH  14  16
ENDBRANCH   6  14
BRANCH   7  18
ATOM     18  S   UNL     1       7.519  -2.696  24.096  0.00  0.00    -0.122 S 
BRANCH  18  19
ATOM     19  C   UNL     1       8.689  -3.676  25.100  0.00  0.00    +0.066 C 
ATOM     20  C   UNL     1       8.341  -3.467  26.579  0.00  0.00    +0.035 C 
ATOM     21  C   UNL     1       7.594  -4.730  27.018  0.00  0.00    +0.070 C 
ATOM     22  N   UNL     1       7.534  -5.630  25.845  0.00  0.00    -0.311 NA
ATOM     23  H   UNL     1       7.706  -6.589  26.157  0.00  0.00    +0.122 HD
ATOM     24  C   UNL     1       8.613  -5.196  24.958  0.00  0.00    +0.095 C 
BRANCH  21  25
ATOM     25  C   UNL     1       6.173  -4.482  27.567  0.00  0.00    +0.125 C 
BRANCH  25  26
ATOM     26  N   UNL     1       5.983  -5.206  28.871  0.00  0.00    -0.179 NA
ATOM     27  H   UNL     1       5.343  -4.631  29.424  0.00  0.00    +0.149 HD
BRANCH  26  28
ATOM     28  S   UNL     1       5.411  -6.775  28.744  0.00  0.00    +0.092 S 
ATOM     29  O   UNL     1       5.230  -7.093  27.357  0.00  0.00    -0.142 OA
ATOM     30  O   UNL     1       4.396  -6.961  29.751  0.00  0.00    -0.142 OA
BRANCH  28  31
ATOM     31  N   UNL     1       6.766  -7.537  29.290  0.00  0.00    -0.193 NA
ATOM     32  H   UNL     1       7.624  -7.114  28.950  0.00  0.00    +0.145 HD
ATOM     33  H   UNL     1       6.722  -7.800  30.267  0.00  0.00    +0.145 HD
ENDBRANCH  28  31
ENDBRANCH  26  28
ENDBRANCH  25  26
ENDBRANCH  21  25
ENDBRANCH  18  19
ENDBRANCH   7  18
TORSDOF 10
ENDMDL
MODEL 5
REMARK VINA RESULT:      -6.1      2.315      3.039
REMARK  Name = 
REMARK  12 active torsions:
REMARK  status: ('A' for Active; 'I' for Inactive)
REMARK    1  A    between atoms: C_3  and  C_5
REMARK    2  A    between atoms: C_6  and  S_7
REMARK    3  A    between atoms: S_7  and  C_8
REMARK    4  A    between atoms: C_12  and  C_14
REMARK    5  A    between atoms: C_14  and  N_15
REMARK    6  A    between atoms: N_15  and  S_16
REMARK    7  A    between atoms: S_16  and  N_17
REMARK    8  A    between atoms: C_21  and  C_31
REMARK    9  A    between atoms: C_25  and  C_27
REMARK   10  A    between atoms: C_27  and  C_29
REMARK   11  A    between atoms: C_27  and  O_30
REMARK   12  A    between atoms: C_31  and  O_32
REMARK                            x       y       z     vdW  Elec       q    Type
REMARK                         _______ _______ _______ _____ _____    ______ ____
ROOT
ATOM      1  C   UNL     1       8.885   0.481  22.948  0.00  0.00    +0.104 C 
ATOM      2  C   UNL     1       8.307   1.586  23.890  0.00  0.00    +0.125 C 
ATOM      3  C   UNL     1       6.935   1.073  23.445  0.00  0.00    +0.228 C 
ATOM      4  O   UNL     1       5.775   1.270  23.729  0.00  0.00    -0.275 OA
ATOM      5  N   UNL     1       7.477   0.058  22.713  0.00  0.00    -0.260 N 
ATOM      6  C   UNL     1       7.350  -1.272  23.095  0.00  0.00    +0.131 C 
ATOM      7  C   UNL     1       8.533  -1.808  23.466  0.00  0.00    +0.019 C 
ATOM      8  C   UNL     1       9.635  -0.772  23.420  0.00  0.00    +0.046 C 
ATOM      9  C   UNL     1      10.375  -0.498  24.725  0.00  0.00    +0.015 C 
ENDROOT
BRANCH   2  10
ATOM     10  C   UNL     1       8.730   2.993  23.521  0.00  0.00    +0.125 C 
ATOM     11  C   UNL     1      10.240   3.155  23.580  0.00  0.00    +0.038 C 
BRANCH  10  12
ATOM     12  O   UNL     1       8.281   3.215  22.183  0.00  0.00    -0.391 OA
ATOM     13  H   UNL     1       8.582   2.471  21.631  0.00  0.00    +0.210 HD
ENDBRANCH  10  12
ENDBRANCH   2  10
BRANCH   6  14
ATOM     14  C   UNL     1       6.027  -1.981  23.053  0.00  0.00    +0.352 C 
ATOM     15  O   UNL     1       5.665  -2.712  22.147  0.00  0.00    -0.244 OA
BRANCH  14  16
ATOM     16  O   UNL     1       5.211  -1.728  24.103  0.00  0.00    -0.476 OA
ATOM     17  H   UNL     1       5.027  -0.784  24.301  0.00  0.00    +0.295 HD
ENDBRANCH  14  16
ENDBRANCH   6  14
BRANCH   7  18
ATOM     18  S   UNL     1       8.771  -3.427  24.005  0.00  0.00    -0.122 S 
BRANCH  18  19
ATOM     19  C   UNL     1       8.562  -3.385  25.819  0.00  0.00    +0.066 C 
ATOM     20  C   UNL     1       7.070  -3.541  26.132  0.00  0.00    +0.035 C 
ATOM     21  C   UNL     1       6.883  -4.991  26.587  0.00  0.00    +0.070 C 
ATOM     22  N   UNL     1       8.217  -5.632  26.553  0.00  0.00    -0.311 NA
ATOM     23  H   UNL     1       8.318  -6.227  27.380  0.00  0.00    +0.122 HD
ATOM     24  C   UNL     1       9.184  -4.536  26.609  0.00  0.00    +0.095 C 
BRANCH  21  25
ATOM     25  C   UNL     1       5.882  -5.810  25.744  0.00  0.00    +0.125 C 
BRANCH  25  26
ATOM     26  N   UNL     1       5.417  -5.006  24.562  0.00  0.00    -0.179 NA
ATOM     27  H   UNL     1       6.201  -4.402  24.304  0.00  0.00    +0.149 HD
BRANCH  26  28
ATOM     28  S   UNL     1       4.899  -5.900  23.244  0.00  0.00    +0.092 S 
ATOM     29  O   UNL     1       6.024  -6.171  22.396  0.00  0.00    -0.142 OA
ATOM     30  O   UNL     1       3.659  -5.330  22.779  0.00  0.00    -0.142 OA
BRANCH  28  31
ATOM     31  N   UNL     1       4.512  -7.276  24.064  0.00  0.00    -0.193 NA
ATOM     32  H   UNL     1       4.445  -7.136  25.067  0.00  0.00    +0.145 HD
ATOM     33  H   UNL     1       3.793  -7.831  23.614  0.00  0.00    +0.145 HD
ENDBRANCH  28  31
ENDBRANCH  26  28
ENDBRANCH  25  26
ENDBRANCH  21  25
ENDBRANCH  18  19
ENDBRANCH   7  18
TORSDOF 10
ENDMDL
MODEL 6
REMARK VINA RESULT:      -6.0      2.950      7.510
REMARK  Name = 
REMARK  12 active torsions:
REMARK  status: ('A' for Active; 'I' for Inactive)
REMARK    1  A    between atoms: C_3  and  C_5
REMARK    2  A    between atoms: C_6  and  S_7
REMARK    3  A    between atoms: S_7  and  C_8
REMARK    4  A    between atoms: C_12  and  C_14
REMARK    5  A    between atoms: C_14  and  N_15
REMARK    6  A    between atoms: N_15  and  S_16
REMARK    7  A    between atoms: S_16  and  N_17
REMARK    8  A    between atoms: C_21  and  C_31
REMARK    9  A    between atoms: C_25  and  C_27
REMARK   10  A    between atoms: C_27  and  C_29
REMARK   11  A    between atoms: C_27  and  O_30
REMARK   12  A    between atoms: C_31  and  O_32
REMARK                            x       y       z     vdW  Elec       q    Type
REMARK                         _______ _______ _______ _____ _____    ______ ____
ROOT
ATOM      1  C   UNL     1       6.480  -4.872  23.106  0.00  0.00    +0.104 C 
ATOM      2  C   UNL     1       5.315  -4.945  24.144  0.00  0.00    +0.125 C 
ATOM      3  C   UNL     1       6.351  -5.578  25.077  0.00  0.00    +0.228 C 
ATOM      4  O   UNL     1       6.413  -5.929  26.234  0.00  0.00    -0.275 OA
ATOM      5  N   UNL     1       7.363  -5.405  24.179  0.00  0.00    -0.260 N 
ATOM      6  C   UNL     1       8.388  -4.493  24.396  0.00  0.00    +0.131 C 
ATOM      7  C   UNL     1       8.343  -3.462  23.524  0.00  0.00    +0.019 C 
ATOM      8  C   UNL     1       7.139  -3.576  22.614  0.00  0.00    +0.046 C 
ATOM      9  C   UNL     1       6.144  -2.421  22.642  0.00  0.00    +0.015 C 
ENDROOT
BRANCH   2  10
ATOM     10  C   UNL     1       4.129  -5.768  23.683  0.00  0.00    +0.125 C 
ATOM     11  C   UNL     1       2.868  -4.924  23.588  0.00  0.00    +0.038 C 
BRANCH  10  12
ATOM     12  O   UNL     1       4.463  -6.271  22.388  0.00  0.00    -0.391 OA
ATOM     13  H   UNL     1       4.054  -5.692  21.720  0.00  0.00    +0.210 HD
ENDBRANCH  10  12
ENDBRANCH   2  10
BRANCH   6  14
ATOM     14  C   UNL     1       9.412  -4.699  25.475  0.00  0.00    +0.352 C 
ATOM     15  O   UNL     1       9.286  -4.318  26.627  0.00  0.00    -0.244 OA
BRANCH  14  16
ATOM     16  O   UNL     1      10.544  -5.325  25.076  0.00  0.00    -0.476 OA
ATOM     17  H   UNL     1      11.390  -4.973  25.430  0.00  0.00    +0.295 HD
ENDBRANCH  14  16
ENDBRANCH   6  14
BRANCH   7  18
ATOM     18  S   UNL     1       9.442  -2.137  23.485  0.00  0.00    -0.122 S 
BRANCH  18  19
ATOM     19  C   UNL     1       9.069  -1.134  24.966  0.00  0.00    +0.066 C 
ATOM     20  C   UNL     1      10.063   0.032  25.016  0.00  0.00    +0.035 C 
ATOM     21  C   UNL     1       9.292   1.264  24.533  0.00  0.00    +0.070 C 
ATOM     22  N   UNL     1       7.911   0.823  24.236  0.00  0.00    -0.311 NA
ATOM     23  H   UNL     1       7.259   1.537  24.570  0.00  0.00    +0.122 HD
ATOM     24  C   UNL     1       7.721  -0.416  24.989  0.00  0.00    +0.095 C 
BRANCH  21  25
ATOM     25  C   UNL     1       9.901   1.962  23.297  0.00  0.00    +0.125 C 
BRANCH  25  26
ATOM     26  N   UNL     1       8.875   2.840  22.637  0.00  0.00    -0.179 NA
ATOM     27  H   UNL     1       8.053   2.250  22.485  0.00  0.00    +0.149 HD
BRANCH  26  28
ATOM     28  S   UNL     1       8.462   4.225  23.483  0.00  0.00    +0.092 S 
ATOM     29  O   UNL     1       9.655   4.816  24.016  0.00  0.00    -0.142 OA
ATOM     30  O   UNL     1       7.288   3.933  24.268  0.00  0.00    -0.142 OA
BRANCH  28  31
ATOM     31  N   UNL     1       7.960   5.117  22.192  0.00  0.00    -0.193 NA
ATOM     32  H   UNL     1       8.722   5.404  21.586  0.00  0.00    +0.145 HD
ATOM     33  H   UNL     1       7.114   4.767  21.758  0.00  0.00    +0.145 HD
ENDBRANCH  28  31
ENDBRANCH  26  28
ENDBRANCH  25  26
ENDBRANCH  21  25
ENDBRANCH  18  19
ENDBRANCH   7  18
TORSDOF 10
ENDMDL
MODEL 7
REMARK VINA RESULT:      -6.0      2.384      3.041
REMARK  Name = 
REMARK  12 active torsions:
REMARK  status: ('A' for Active; 'I' for Inactive)
REMARK    1  A    between atoms: C_3  and  C_5
REMARK    2  A    between atoms: C_6  and  S_7
REMARK    3  A    between atoms: S_7  and  C_8
REMARK    4  A    between atoms: C_12  and  C_14
REMARK    5  A    between atoms: C_14  and  N_15
REMARK    6  A    between atoms: N_15  and  S_16
REMARK    7  A    between atoms: S_16  and  N_17
REMARK    8  A    between atoms: C_21  and  C_31
REMARK    9  A    between atoms: C_25  and  C_27
REMARK   10  A    between atoms: C_27  and  C_29
REMARK   11  A    between atoms: C_27  and  O_30
REMARK   12  A    between atoms: C_31  and  O_32
REMARK                            x       y       z     vdW  Elec       q    Type
REMARK                         _______ _______ _______ _____ _____    ______ ____
ROOT
ATOM      1  C   UNL     1       8.714   0.334  24.527  0.00  0.00    +0.104 C 
ATOM      2  C   UNL     1       8.567   0.756  23.029  0.00  0.00    +0.125 C 
ATOM      3  C   UNL     1       9.377  -0.506  22.722  0.00  0.00    +0.228 C 
ATOM      4  O   UNL     1       9.729  -1.124  21.742  0.00  0.00    -0.275 OA
ATOM      5  N   UNL     1       9.397  -0.893  24.030  0.00  0.00    -0.260 N 
ATOM      6  C   UNL     1       8.689  -2.000  24.479  0.00  0.00    +0.131 C 
ATOM      7  C   UNL     1       7.671  -1.654  25.297  0.00  0.00    +0.019 C 
ATOM      8  C   UNL     1       7.564  -0.149  25.421  0.00  0.00    +0.046 C 
ATOM      9  C   UNL     1       6.246   0.484  24.991  0.00  0.00    +0.015 C 
ENDROOT
BRANCH   2  10
ATOM     10  C   UNL     1       9.158   2.114  22.712  0.00  0.00    +0.125 C 
ATOM     11  C   UNL     1      10.220   2.511  23.724  0.00  0.00    +0.038 C 
BRANCH  10  12
ATOM     12  O   UNL     1       9.753   2.006  21.417  0.00  0.00    -0.391 OA
ATOM     13  H   UNL     1      10.316   1.211  21.404  0.00  0.00    +0.210 HD
ENDBRANCH  10  12
ENDBRANCH   2  10
BRANCH   6  14
ATOM     14  C   UNL     1       9.077  -3.397  24.086  0.00  0.00    +0.352 C 
ATOM     15  O   UNL     1       9.839  -4.106  24.721  0.00  0.00    -0.244 OA
BRANCH  14  16
ATOM     16  O   UNL     1       8.539  -3.832  22.923  0.00  0.00    -0.476 OA
ATOM     17  H   UNL     1       8.238  -3.142  22.292  0.00  0.00    +0.295 HD
ENDBRANCH  14  16
ENDBRANCH   6  14
BRANCH   7  18
ATOM     18  S   UNL     1       6.571  -2.750  26.043  0.00  0.00    -0.122 S 
BRANCH  18  19
ATOM     19  C   UNL     1       5.461  -3.327  24.713  0.00  0.00    +0.066 C 
ATOM     20  C   UNL     1       5.661  -4.838  24.544  0.00  0.00    +0.035 C 
ATOM     21  C   UNL     1       4.462  -5.501  25.227  0.00  0.00    +0.070 C 
ATOM     22  N   UNL     1       3.603  -4.414  25.748  0.00  0.00    -0.311 NA
ATOM     23  H   UNL     1       2.624  -4.659  25.579  0.00  0.00    +0.122 HD
ATOM     24  C   UNL     1       3.959  -3.224  24.977  0.00  0.00    +0.095 C 
BRANCH  21  25
ATOM     25  C   UNL     1       4.827  -6.478  26.366  0.00  0.00    +0.125 C 
BRANCH  25  26
ATOM     26  N   UNL     1       4.947  -5.739  27.669  0.00  0.00    -0.179 NA
ATOM     27  H   UNL     1       4.026  -5.791  28.110  0.00  0.00    +0.149 HD
BRANCH  26  28
ATOM     28  S   UNL     1       6.134  -6.302  28.708  0.00  0.00    +0.092 S 
ATOM     29  O   UNL     1       6.026  -7.730  28.804  0.00  0.00    -0.142 OA
ATOM     30  O   UNL     1       6.184  -5.420  29.847  0.00  0.00    -0.142 OA
BRANCH  28  31
ATOM     31  N   UNL     1       7.432  -5.932  27.763  0.00  0.00    -0.193 NA
ATOM     32  H   UNL     1       7.357  -6.301  26.821  0.00  0.00    +0.145 HD
ATOM     33  H   UNL     1       7.760  -4.981  27.875  0.00  0.00    +0.145 HD
ENDBRANCH  28  31
ENDBRANCH  26  28
ENDBRANCH  25  26
ENDBRANCH  21  25
ENDBRANCH  18  19
ENDBRANCH   7  18
TORSDOF 10
ENDMDL
MODEL 8
REMARK VINA RESULT:      -6.0      2.716      7.525
REMARK  Name = 
REMARK  12 active torsions:
REMARK  status: ('A' for Active; 'I' for Inactive)
REMARK    1  A    between atoms: C_3  and  C_5
REMARK    2  A    between atoms: C_6  and  S_7
REMARK    3  A    between atoms: S_7  and  C_8
REMARK    4  A    between atoms: C_12  and  C_14
REMARK    5  A    between atoms: C_14  and  N_15
REMARK    6  A    between atoms: N_15  and  S_16
REMARK    7  A    between atoms: S_16  and  N_17
REMARK    8  A    between atoms: C_21  and  C_31
REMARK    9  A    between atoms: C_25  and  C_27
REMARK   10  A    between atoms: C_27  and  C_29
REMARK   11  A    between atoms: C_27  and  O_30
REMARK   12  A    between atoms: C_31  and  O_32
REMARK                            x       y       z     vdW  Elec       q    Type
REMARK                         _______ _______ _______ _____ _____    ______ ____
ROOT
ATOM      1  C   UNL     1       5.659  -4.567  24.454  0.00  0.00    +0.104 C 
ATOM      2  C   UNL     1       4.888  -4.988  25.746  0.00  0.00    +0.125 C 
ATOM      3  C   UNL     1       6.164  -5.751  26.110  0.00  0.00    +0.228 C 
ATOM      4  O   UNL     1       6.592  -6.375  27.056  0.00  0.00    -0.275 OA
ATOM      5  N   UNL     1       6.836  -5.282  25.020  0.00  0.00    -0.260 N 
ATOM      6  C   UNL     1       7.883  -4.376  25.137  0.00  0.00    +0.131 C 
ATOM      7  C   UNL     1       7.567  -3.166  24.625  0.00  0.00    +0.019 C 
ATOM      8  C   UNL     1       6.134  -3.142  24.139  0.00  0.00    +0.046 C 
ATOM      9  C   UNL     1       5.210  -2.112  24.777  0.00  0.00    +0.015 C 
ENDROOT
BRANCH   2  10
ATOM     10  C   UNL     1       3.611  -5.758  25.479  0.00  0.00    +0.125 C 
ATOM     11  C   UNL     1       3.346  -5.898  23.989  0.00  0.00    +0.038 C 
BRANCH  10  12
ATOM     12  O   UNL     1       3.790  -7.053  26.054  0.00  0.00    -0.391 OA
ATOM     13  H   UNL     1       3.753  -6.966  27.023  0.00  0.00    +0.210 HD
ENDBRANCH  10  12
ENDBRANCH   2  10
BRANCH   6  14
ATOM     14  C   UNL     1       9.198  -4.766  25.750  0.00  0.00    +0.352 C 
ATOM     15  O   UNL     1      10.199  -5.048  25.112  0.00  0.00    -0.244 OA
BRANCH  14  16
ATOM     16  O   UNL     1       9.203  -4.822  27.102  0.00  0.00    -0.476 OA
ATOM     17  H   UNL     1       8.669  -5.535  27.515  0.00  0.00    +0.295 HD
ENDBRANCH  14  16
ENDBRANCH   6  14
BRANCH   7  18
ATOM     18  S   UNL     1       8.606  -1.793  24.594  0.00  0.00    -0.122 S 
BRANCH  18  19
ATOM     19  C   UNL     1       9.480  -1.862  22.993  0.00  0.00    +0.066 C 
ATOM     20  C   UNL     1       8.577  -1.232  21.927  0.00  0.00    +0.035 C 
ATOM     21  C   UNL     1       9.141   0.169  21.671  0.00  0.00    +0.070 C 
ATOM     22  N   UNL     1      10.328   0.325  22.541  0.00  0.00    -0.311 NA
ATOM     23  H   UNL     1      11.062   0.804  22.014  0.00  0.00    +0.122 HD
ATOM     24  C   UNL     1      10.759  -1.033  22.870  0.00  0.00    +0.095 C 
BRANCH  21  25
ATOM     25  C   UNL     1       8.146   1.322  21.923  0.00  0.00    +0.125 C 
BRANCH  25  26
ATOM     26  N   UNL     1       8.855   2.646  21.859  0.00  0.00    -0.179 NA
ATOM     27  H   UNL     1       8.266   3.255  21.284  0.00  0.00    +0.149 HD
BRANCH  26  28
ATOM     28  S   UNL     1       9.178   3.361  23.338  0.00  0.00    +0.092 S 
ATOM     29  O   UNL     1       8.913   2.411  24.380  0.00  0.00    -0.142 OA
ATOM     30  O   UNL     1       8.641   4.699  23.313  0.00  0.00    -0.142 OA
BRANCH  28  31
ATOM     31  N   UNL     1      10.809   3.501  23.151  0.00  0.00    -0.193 NA
ATOM     32  H   UNL     1      11.276   3.851  23.981  0.00  0.00    +0.145 HD
ATOM     33  H   UNL     1      11.232   2.721  22.663  0.00  0.00    +0.145 HD
ENDBRANCH  28  31
ENDBRANCH  26  28
ENDBRANCH  25  26
ENDBRANCH  21  25
ENDBRANCH  18  19
ENDBRANCH   7  18
TORSDOF 10
ENDMDL
MODEL 9
REMARK VINA RESULT:      -6.0      2.544      7.830
REMARK  Name = 
REMARK  12 active torsions:
REMARK  status: ('A' for Active; 'I' for Inactive)
REMARK    1  A    between atoms: C_3  and  C_5
REMARK    2  A    between atoms: C_6  and  S_7
REMARK    3  A    between atoms: S_7  and  C_8
REMARK    4  A    between atoms: C_12  and  C_14
REMARK    5  A    between atoms: C_14  and  N_15
REMARK    6  A    between atoms: N_15  and  S_16
REMARK    7  A    between atoms: S_16  and  N_17
REMARK    8  A    between atoms: C_21  and  C_31
REMARK    9  A    between atoms: C_25  and  C_27
REMARK   10  A    between atoms: C_27  and  C_29
REMARK   11  A    between atoms: C_27  and  O_30
REMARK   12  A    between atoms: C_31  and  O_32
REMARK                            x       y       z     vdW  Elec       q    Type
REMARK                         _______ _______ _______ _____ _____    ______ ____
ROOT
ATOM      1  C   UNL     1       4.617  -6.401  24.536  0.00  0.00    +0.104 C 
ATOM      2  C   UNL     1       3.246  -6.470  25.283  0.00  0.00    +0.125 C 
ATOM      3  C   UNL     1       4.082  -6.746  26.535  0.00  0.00    +0.228 C 
ATOM      4  O   UNL     1       3.894  -6.865  27.725  0.00  0.00    -0.275 OA
ATOM      5  N   UNL     1       5.260  -6.580  25.867  0.00  0.00    -0.260 N 
ATOM      6  C   UNL     1       6.089  -5.490  26.102  0.00  0.00    +0.131 C 
ATOM      7  C   UNL     1       6.145  -4.657  25.039  0.00  0.00    +0.019 C 
ATOM      8  C   UNL     1       5.226  -5.128  23.933  0.00  0.00    +0.046 C 
ATOM      9  C   UNL     1       4.132  -4.164  23.491  0.00  0.00    +0.015 C 
ENDROOT
BRANCH   2  10
ATOM     10  C   UNL     1       2.313  -7.544  24.760  0.00  0.00    +0.125 C 
ATOM     11  C   UNL     1       2.074  -7.396  23.266  0.00  0.00    +0.038 C 
BRANCH  10  12
ATOM     12  O   UNL     1       2.949  -8.796  25.018  0.00  0.00    -0.391 OA
ATOM     13  H   UNL     1       3.406  -8.737  25.877  0.00  0.00    +0.210 HD
ENDBRANCH  10  12
ENDBRANCH   2  10
BRANCH   6  14
ATOM     14  C   UNL     1       6.829  -5.327  27.398  0.00  0.00    +0.352 C 
ATOM     15  O   UNL     1       6.380  -4.763  28.383  0.00  0.00    -0.244 OA
BRANCH  14  16
ATOM     16  O   UNL     1       8.085  -5.830  27.406  0.00  0.00    -0.476 OA
ATOM     17  H   UNL     1       8.581  -5.764  28.251  0.00  0.00    +0.295 HD
ENDBRANCH  14  16
ENDBRANCH   6  14
BRANCH   7  18
ATOM     18  S   UNL     1       7.062  -3.201  24.959  0.00  0.00    -0.122 S 
BRANCH  18  19
ATOM     19  C   UNL     1       8.386  -3.511  23.740  0.00  0.00    +0.066 C 
ATOM     20  C   UNL     1       8.077  -2.694  22.480  0.00  0.00    +0.035 C 
ATOM     21  C   UNL     1       9.010  -1.481  22.524  0.00  0.00    +0.070 C 
ATOM     22  N   UNL     1       9.831  -1.609  23.749  0.00  0.00    -0.311 NA
ATOM     23  H   UNL     1      10.792  -1.335  23.531  0.00  0.00    +0.122 HD
ATOM     24  C   UNL     1       9.788  -3.026  24.108  0.00  0.00    +0.095 C 
BRANCH  21  25
ATOM     25  C   UNL     1       8.293  -0.114  22.509  0.00  0.00    +0.125 C 
BRANCH  25  26
ATOM     26  N   UNL     1       8.807   0.757  23.622  0.00  0.00    -0.179 NA
ATOM     27  H   UNL     1       9.493   0.192  24.129  0.00  0.00    +0.149 HD
BRANCH  26  28
ATOM     28  S   UNL     1       9.479   2.214  23.143  0.00  0.00    +0.092 S 
ATOM     29  O   UNL     1      10.787   2.335  23.719  0.00  0.00    -0.142 OA
ATOM     30  O   UNL     1       8.458   3.228  23.242  0.00  0.00    -0.142 OA
BRANCH  28  31
ATOM     31  N   UNL     1       9.637   1.855  21.543  0.00  0.00    -0.193 NA
ATOM     32  H   UNL     1      10.536   1.444  21.313  0.00  0.00    +0.145 HD
ATOM     33  H   UNL     1       8.808   1.441  21.133  0.00  0.00    +0.145 HD
ENDBRANCH  28  31
ENDBRANCH  26  28
ENDBRANCH  25  26
ENDBRANCH  21  25
ENDBRANCH  18  19
ENDBRANCH   7  18
TORSDOF 10
ENDMDL
