MODEL 1
REMARK VINA RESULT:      -7.6      0.000      0.000
REMARK  Name = 
REMARK  9 active torsions:
REMARK  status: ('A' for Active; 'I' for Inactive)
REMARK    1  A    between atoms: C_1  and  C_2
REMARK    2  A    between atoms: C_2  and  O_3
REMARK    3  A    between atoms: O_3  and  C_4
REMARK    4  A    between atoms: C_4  and  C_5
REMARK    5  A    between atoms: C_5  and  C_6
REMARK    6  A    between atoms: C_6  and  O_7
REMARK    7  A    between atoms: O_7  and  C_8
REMARK    8  A    between atoms: C_11  and  O_12
REMARK    9  A    between atoms: O_12  and  C_13
REMARK                            x       y       z     vdW  Elec       q    Type
REMARK                         _______ _______ _______ _____ _____    ______ ____
ROOT
ATOM      1  C   UNL     1       8.018  -4.128  24.105  0.00  0.00    +0.263 C 
ATOM      2  C   UNL     1       9.050  -4.783  25.039  0.00  0.00    +0.274 C 
ATOM      3  O   UNL     1      10.249  -4.882  24.779  0.00  0.00    -0.270 OA
ATOM      4  N   UNL     1       8.572  -5.286  26.223  0.00  0.00    -0.236 N 
ATOM      5  H   UNL     1       9.262  -5.697  26.837  0.00  0.00    +0.159 HD
ATOM      6  C   UNL     1       7.369  -4.997  26.790  0.00  0.00    +0.312 C 
ATOM      7  O   UNL     1       7.139  -5.266  27.965  0.00  0.00    -0.252 OA
ATOM      8  N   UNL     1       6.473  -4.320  26.026  0.00  0.00    -0.236 N 
ATOM      9  H   UNL     1       5.650  -3.999  26.521  0.00  0.00    +0.159 HD
ATOM     10  C   UNL     1       6.792  -3.623  24.891  0.00  0.00    +0.274 C 
ATOM     11  O   UNL     1       6.075  -2.691  24.531  0.00  0.00    -0.270 OA
ENDROOT
BRANCH   1  12
ATOM     12  C   UNL     1       7.520  -5.325  23.248  0.00  0.00    +0.095 C 
BRANCH  12  13
ATOM     13  C   UNL     1       7.002  -4.956  21.861  0.00  0.00    +0.164 C 
BRANCH  13  14
ATOM     14  O   UNL     1       5.574  -4.954  21.938  0.00  0.00    -0.380 OA
BRANCH  14  16
ATOM     15  C   UNL     1       3.764  -5.514  23.392  0.00  0.00    +0.034 C 
ATOM     16  C   UNL     1       5.089  -5.970  22.812  0.00  0.00    +0.156 C 
ENDBRANCH  14  16
ENDBRANCH  13  14
ENDBRANCH  12  13
ENDBRANCH   1  12
BRANCH   1  17
ATOM     17  O   UNL     1       8.551  -3.166  23.196  0.00  0.00    -0.467 OA
BRANCH  17  18
ATOM     18  C   UNL     1       8.658  -1.850  23.560  0.00  0.00    +0.123 A 
ATOM     19  C   UNL     1       8.047  -0.936  22.690  0.00  0.00    +0.049 A 
ATOM     20  C   UNL     1       8.056   0.444  22.959  0.00  0.00    +0.050 A 
ATOM     21  C   UNL     1       8.713   0.921  24.088  0.00  0.00    +0.129 A 
ATOM     22  C   UNL     1       9.350   0.015  24.937  0.00  0.00    +0.050 A 
ATOM     23  C   UNL     1       9.321  -1.359  24.679  0.00  0.00    +0.049 A 
BRANCH  21  24
ATOM     24  O   UNL     1       8.695   2.206  24.563  0.00  0.00    -0.456 OA
BRANCH  24  25
ATOM     25  C   UNL     1       9.563   3.177  24.135  0.00  0.00    +0.129 A 
ATOM     26  C   UNL     1      10.804   2.945  23.541  0.00  0.00    +0.049 A 
ATOM     27  C   UNL     1      11.657   4.024  23.284  0.00  0.00    +0.042 A 
ATOM     28  C   UNL     1      11.274   5.314  23.642  0.00  0.00    +0.124 A 
ATOM     29  F   UNL     1      12.110   6.338  23.426  0.00  0.00    -0.205 F 
ATOM     30  C   UNL     1      10.045   5.554  24.242  0.00  0.00    +0.042 A 
ATOM     31  C   UNL     1       9.191   4.481  24.490  0.00  0.00    +0.049 A 
ENDBRANCH  24  25
ENDBRANCH  21  24
ENDBRANCH  17  18
ENDBRANCH   1  17
TORSDOF 8
ENDMDL
MODEL 2
REMARK VINA RESULT:      -7.4      2.922      4.628
REMARK  Name = 
REMARK  9 active torsions:
REMARK  status: ('A' for Active; 'I' for Inactive)
REMARK    1  A    between atoms: C_1  and  C_2
REMARK    2  A    between atoms: C_2  and  O_3
REMARK    3  A    between atoms: O_3  and  C_4
REMARK    4  A    between atoms: C_4  and  C_5
REMARK    5  A    between atoms: C_5  and  C_6
REMARK    6  A    between atoms: C_6  and  O_7
REMARK    7  A    between atoms: O_7  and  C_8
REMARK    8  A    between atoms: C_11  and  O_12
REMARK    9  A    between atoms: O_12  and  C_13
REMARK                            x       y       z     vdW  Elec       q    Type
REMARK                         _______ _______ _______ _____ _____    ______ ____
ROOT
ATOM      1  C   UNL     1       5.544  -5.545  27.673  0.00  0.00    +0.263 C 
ATOM      2  C   UNL     1       5.552  -6.807  28.553  0.00  0.00    +0.274 C 
ATOM      3  O   UNL     1       6.567  -7.288  29.058  0.00  0.00    -0.270 OA
ATOM      4  N   UNL     1       4.340  -7.414  28.763  0.00  0.00    -0.236 N 
ATOM      5  H   UNL     1       4.354  -8.231  29.358  0.00  0.00    +0.159 HD
ATOM      6  C   UNL     1       3.116  -6.860  28.543  0.00  0.00    +0.312 C 
ATOM      7  O   UNL     1       2.098  -7.361  29.011  0.00  0.00    -0.252 OA
ATOM      8  N   UNL     1       3.083  -5.687  27.862  0.00  0.00    -0.236 N 
ATOM      9  H   UNL     1       2.178  -5.233  27.840  0.00  0.00    +0.159 HD
ATOM     10  C   UNL     1       4.162  -4.862  27.683  0.00  0.00    +0.274 C 
ATOM     11  O   UNL     1       3.983  -3.661  27.490  0.00  0.00    -0.270 OA
ENDROOT
BRANCH   1  12
ATOM     12  C   UNL     1       5.730  -6.123  26.242  0.00  0.00    +0.095 C 
BRANCH  12  13
ATOM     13  C   UNL     1       4.728  -5.621  25.207  0.00  0.00    +0.164 C 
BRANCH  13  14
ATOM     14  O   UNL     1       5.190  -6.071  23.930  0.00  0.00    -0.380 OA
BRANCH  14  16
ATOM     15  C   UNL     1       7.108  -5.676  22.562  0.00  0.00    +0.034 C 
ATOM     16  C   UNL     1       5.900  -5.051  23.233  0.00  0.00    +0.156 C 
ENDBRANCH  14  16
ENDBRANCH  13  14
ENDBRANCH  12  13
ENDBRANCH   1  12
BRANCH   1  17
ATOM     17  O   UNL     1       6.629  -4.646  27.896  0.00  0.00    -0.467 OA
BRANCH  17  18
ATOM     18  C   UNL     1       7.473  -4.306  26.871  0.00  0.00    +0.123 A 
ATOM     19  C   UNL     1       7.177  -3.098  26.226  0.00  0.00    +0.049 A 
ATOM     20  C   UNL     1       7.979  -2.616  25.176  0.00  0.00    +0.050 A 
ATOM     21  C   UNL     1       9.066  -3.366  24.741  0.00  0.00    +0.129 A 
ATOM     22  C   UNL     1       9.342  -4.585  25.360  0.00  0.00    +0.050 A 
ATOM     23  C   UNL     1       8.556  -5.052  26.418  0.00  0.00    +0.049 A 
BRANCH  21  24
ATOM     24  O   UNL     1      10.018  -2.975  23.836  0.00  0.00    -0.456 OA
BRANCH  24  25
ATOM     25  C   UNL     1      10.089  -1.707  23.321  0.00  0.00    +0.129 A 
ATOM     26  C   UNL     1      10.482  -0.570  24.027  0.00  0.00    +0.049 A 
ATOM     27  C   UNL     1      10.369   0.688  23.425  0.00  0.00    +0.042 A 
ATOM     28  C   UNL     1       9.848   0.800  22.139  0.00  0.00    +0.124 A 
ATOM     29  F   UNL     1       9.710   2.010  21.581  0.00  0.00    -0.205 F 
ATOM     30  C   UNL     1       9.446  -0.326  21.431  0.00  0.00    +0.042 A 
ATOM     31  C   UNL     1       9.567  -1.579  22.027  0.00  0.00    +0.049 A 
ENDBRANCH  24  25
ENDBRANCH  21  24
ENDBRANCH  17  18
ENDBRANCH   1  17
TORSDOF 8
ENDMDL
MODEL 3
REMARK VINA RESULT:      -7.3      2.205      3.807
REMARK  Name = 
REMARK  9 active torsions:
REMARK  status: ('A' for Active; 'I' for Inactive)
REMARK    1  A    between atoms: C_1  and  C_2
REMARK    2  A    between atoms: C_2  and  O_3
REMARK    3  A    between atoms: O_3  and  C_4
REMARK    4  A    between atoms: C_4  and  C_5
REMARK    5  A    between atoms: C_5  and  C_6
REMARK    6  A    between atoms: C_6  and  O_7
REMARK    7  A    between atoms: O_7  and  C_8
REMARK    8  A    between atoms: C_11  and  O_12
REMARK    9  A    between atoms: O_12  and  C_13
REMARK                            x       y       z     vdW  Elec       q    Type
REMARK                         _______ _______ _______ _____ _____    ______ ____
ROOT
ATOM      1  C   UNL     1       6.468  -5.317  24.337  0.00  0.00    +0.263 C 
ATOM      2  C   UNL     1       5.749  -6.041  23.185  0.00  0.00    +0.274 C 
ATOM      3  O   UNL     1       6.138  -6.032  22.017  0.00  0.00    -0.270 OA
ATOM      4  N   UNL     1       4.604  -6.723  23.511  0.00  0.00    -0.236 N 
ATOM      5  H   UNL     1       4.150  -7.210  22.750  0.00  0.00    +0.159 HD
ATOM      6  C   UNL     1       4.213  -7.083  24.764  0.00  0.00    +0.312 C 
ATOM      7  O   UNL     1       3.331  -7.918  24.939  0.00  0.00    -0.252 OA
ATOM      8  N   UNL     1       4.900  -6.544  25.803  0.00  0.00    -0.236 N 
ATOM      9  H   UNL     1       4.679  -6.939  26.709  0.00  0.00    +0.159 HD
ATOM     10  C   UNL     1       6.134  -5.960  25.697  0.00  0.00    +0.274 C 
ATOM     11  O   UNL     1       6.876  -5.926  26.679  0.00  0.00    -0.270 OA
ENDROOT
BRANCH   1  12
ATOM     12  C   UNL     1       5.790  -3.919  24.340  0.00  0.00    +0.095 C 
BRANCH  12  13
ATOM     13  C   UNL     1       5.550  -3.321  25.723  0.00  0.00    +0.164 C 
BRANCH  13  14
ATOM     14  O   UNL     1       6.191  -2.042  25.739  0.00  0.00    -0.380 OA
BRANCH  14  16
ATOM     15  C   UNL     1       6.561   0.069  24.684  0.00  0.00    +0.034 C 
ATOM     16  C   UNL     1       5.763  -1.220  24.656  0.00  0.00    +0.156 C 
ENDBRANCH  14  16
ENDBRANCH  13  14
ENDBRANCH  12  13
ENDBRANCH   1  12
BRANCH   1  17
ATOM     17  O   UNL     1       7.863  -5.096  24.134  0.00  0.00    -0.467 OA
BRANCH  17  18
ATOM     18  C   UNL     1       8.312  -3.898  23.643  0.00  0.00    +0.123 A 
ATOM     19  C   UNL     1       9.256  -3.239  24.442  0.00  0.00    +0.049 A 
ATOM     20  C   UNL     1       9.822  -2.015  24.043  0.00  0.00    +0.050 A 
ATOM     21  C   UNL     1       9.414  -1.425  22.853  0.00  0.00    +0.129 A 
ATOM     22  C   UNL     1       8.450  -2.063  22.072  0.00  0.00    +0.050 A 
ATOM     23  C   UNL     1       7.904  -3.290  22.460  0.00  0.00    +0.049 A 
BRANCH  21  24
ATOM     24  O   UNL     1       9.963  -0.318  22.259  0.00  0.00    -0.456 OA
BRANCH  24  25
ATOM     25  C   UNL     1       9.616   0.965  22.595  0.00  0.00    +0.129 A 
ATOM     26  C   UNL     1      10.060   1.651  23.725  0.00  0.00    +0.049 A 
ATOM     27  C   UNL     1       9.515   2.903  24.030  0.00  0.00    +0.042 A 
ATOM     28  C   UNL     1       8.520   3.444  23.220  0.00  0.00    +0.124 A 
ATOM     29  F   UNL     1       7.977   4.626  23.537  0.00  0.00    -0.205 F 
ATOM     30  C   UNL     1       8.064   2.764  22.098  0.00  0.00    +0.042 A 
ATOM     31  C   UNL     1       8.614   1.522  21.789  0.00  0.00    +0.049 A 
ENDBRANCH  24  25
ENDBRANCH  21  24
ENDBRANCH  17  18
ENDBRANCH   1  17
TORSDOF 8
ENDMDL
MODEL 4
REMARK VINA RESULT:      -7.1      2.076      3.876
REMARK  Name = 
REMARK  9 active torsions:
REMARK  status: ('A' for Active; 'I' for Inactive)
REMARK    1  A    between atoms: C_1  and  C_2
REMARK    2  A    between atoms: C_2  and  O_3
REMARK    3  A    between atoms: O_3  and  C_4
REMARK    4  A    between atoms: C_4  and  C_5
REMARK    5  A    between atoms: C_5  and  C_6
REMARK    6  A    between atoms: C_6  and  O_7
REMARK    7  A    between atoms: O_7  and  C_8
REMARK    8  A    between atoms: C_11  and  O_12
REMARK    9  A    between atoms: O_12  and  C_13
REMARK                            x       y       z     vdW  Elec       q    Type
REMARK                         _______ _______ _______ _____ _____    ______ ____
ROOT
ATOM      1  C   UNL     1       7.351  -4.091  24.825  0.00  0.00    +0.263 C 
ATOM      2  C   UNL     1       6.342  -3.192  24.089  0.00  0.00    +0.274 C 
ATOM      3  O   UNL     1       6.029  -2.061  24.460  0.00  0.00    -0.270 OA
ATOM      4  N   UNL     1       5.768  -3.715  22.958  0.00  0.00    -0.236 N 
ATOM      5  H   UNL     1       5.121  -3.108  22.472  0.00  0.00    +0.159 HD
ATOM      6  C   UNL     1       6.214  -4.791  22.255  0.00  0.00    +0.312 C 
ATOM      7  O   UNL     1       5.811  -5.020  21.119  0.00  0.00    -0.252 OA
ATOM      8  N   UNL     1       7.185  -5.545  22.832  0.00  0.00    -0.236 N 
ATOM      9  H   UNL     1       7.592  -6.248  22.227  0.00  0.00    +0.159 HD
ATOM     10  C   UNL     1       7.974  -5.131  23.872  0.00  0.00    +0.274 C 
ATOM     11  O   UNL     1       9.086  -5.632  24.028  0.00  0.00    -0.270 OA
ENDROOT
BRANCH   1  12
ATOM     12  C   UNL     1       6.449  -4.889  25.806  0.00  0.00    +0.095 C 
BRANCH  12  13
ATOM     13  C   UNL     1       6.716  -4.630  27.286  0.00  0.00    +0.164 C 
BRANCH  13  14
ATOM     14  O   UNL     1       7.130  -5.874  27.857  0.00  0.00    -0.380 OA
BRANCH  14  16
ATOM     15  C   UNL     1       5.066  -6.943  28.407  0.00  0.00    +0.034 C 
ATOM     16  C   UNL     1       6.303  -6.256  28.953  0.00  0.00    +0.156 C 
ENDBRANCH  14  16
ENDBRANCH  13  14
ENDBRANCH  12  13
ENDBRANCH   1  12
BRANCH   1  17
ATOM     17  O   UNL     1       8.310  -3.397  25.621  0.00  0.00    -0.467 OA
BRANCH  17  18
ATOM     18  C   UNL     1       8.876  -2.233  25.171  0.00  0.00    +0.123 A 
ATOM     19  C   UNL     1       9.584  -2.338  23.966  0.00  0.00    +0.049 A 
ATOM     20  C   UNL     1      10.190  -1.214  23.376  0.00  0.00    +0.050 A 
ATOM     21  C   UNL     1      10.120   0.019  24.014  0.00  0.00    +0.129 A 
ATOM     22  C   UNL     1       9.443   0.118  25.230  0.00  0.00    +0.050 A 
ATOM     23  C   UNL     1       8.823  -0.995  25.804  0.00  0.00    +0.049 A 
BRANCH  21  24
ATOM     24  O   UNL     1      10.531   1.226  23.509  0.00  0.00    -0.456 OA
BRANCH  24  25
ATOM     25  C   UNL     1       9.664   2.234  23.176  0.00  0.00    +0.129 A 
ATOM     26  C   UNL     1       9.546   3.451  23.847  0.00  0.00    +0.049 A 
ATOM     27  C   UNL     1       8.520   4.336  23.495  0.00  0.00    +0.042 A 
ATOM     28  C   UNL     1       7.614   3.988  22.497  0.00  0.00    +0.124 A 
ATOM     29  F   UNL     1       6.613   4.822  22.190  0.00  0.00    -0.205 F 
ATOM     30  C   UNL     1       7.718   2.774  21.830  0.00  0.00    +0.042 A 
ATOM     31  C   UNL     1       8.744   1.897  22.174  0.00  0.00    +0.049 A 
ENDBRANCH  24  25
ENDBRANCH  21  24
ENDBRANCH  17  18
ENDBRANCH   1  17
TORSDOF 8
ENDMDL
MODEL 5
REMARK VINA RESULT:      -7.1      1.932      3.261
REMARK  Name = 
REMARK  9 active torsions:
REMARK  status: ('A' for Active; 'I' for Inactive)
REMARK    1  A    between atoms: C_1  and  C_2
REMARK    2  A    between atoms: C_2  and  O_3
REMARK    3  A    between atoms: O_3  and  C_4
REMARK    4  A    between atoms: C_4  and  C_5
REMARK    5  A    between atoms: C_5  and  C_6
REMARK    6  A    between atoms: C_6  and  O_7
REMARK    7  A    between atoms: O_7  and  C_8
REMARK    8  A    between atoms: C_11  and  O_12
REMARK    9  A    between atoms: O_12  and  C_13
REMARK                            x       y       z     vdW  Elec       q    Type
REMARK                         _______ _______ _______ _____ _____    ______ ____
ROOT
ATOM      1  C   UNL     1       7.634  -4.227  24.730  0.00  0.00    +0.263 C 
ATOM      2  C   UNL     1       6.405  -4.991  24.206  0.00  0.00    +0.274 C 
ATOM      3  O   UNL     1       6.061  -5.012  23.024  0.00  0.00    -0.270 OA
ATOM      4  N   UNL     1       5.664  -5.673  25.138  0.00  0.00    -0.236 N 
ATOM      5  H   UNL     1       4.871  -6.186  24.778  0.00  0.00    +0.159 HD
ATOM      6  C   UNL     1       6.064  -6.000  26.397  0.00  0.00    +0.312 C 
ATOM      7  O   UNL     1       5.458  -6.838  27.058  0.00  0.00    -0.252 OA
ATOM      8  N   UNL     1       7.207  -5.425  26.850  0.00  0.00    -0.236 N 
ATOM      9  H   UNL     1       7.549  -5.796  27.729  0.00  0.00    +0.159 HD
ATOM     10  C   UNL     1       8.148  -4.833  26.051  0.00  0.00    +0.274 C 
ATOM     11  O   UNL     1       9.314  -4.763  26.435  0.00  0.00    -0.270 OA
ENDROOT
BRANCH   1  12
ATOM     12  C   UNL     1       7.044  -2.836  25.093  0.00  0.00    +0.095 C 
BRANCH  12  13
ATOM     13  C   UNL     1       5.732  -2.487  24.396  0.00  0.00    +0.164 C 
BRANCH  13  14
ATOM     14  O   UNL     1       5.426  -1.133  24.740  0.00  0.00    -0.380 OA
BRANCH  14  16
ATOM     15  C   UNL     1       6.782   0.794  25.136  0.00  0.00    +0.034 C 
ATOM     16  C   UNL     1       6.309  -0.212  24.103  0.00  0.00    +0.156 C 
ENDBRANCH  14  16
ENDBRANCH  13  14
ENDBRANCH  12  13
ENDBRANCH   1  12
BRANCH   1  17
ATOM     17  O   UNL     1       8.660  -3.999  23.766  0.00  0.00    -0.467 OA
BRANCH  17  18
ATOM     18  C   UNL     1       9.091  -2.726  23.498  0.00  0.00    +0.123 A 
ATOM     19  C   UNL     1       8.802  -2.253  22.211  0.00  0.00    +0.049 A 
ATOM     20  C   UNL     1       9.163  -0.953  21.814  0.00  0.00    +0.050 A 
ATOM     21  C   UNL     1       9.851  -0.130  22.698  0.00  0.00    +0.129 A 
ATOM     22  C   UNL     1      10.168  -0.611  23.968  0.00  0.00    +0.050 A 
ATOM     23  C   UNL     1       9.791  -1.896  24.369  0.00  0.00    +0.049 A 
BRANCH  21  24
ATOM     24  O   UNL     1      10.147   1.196  22.518  0.00  0.00    -0.456 OA
BRANCH  24  25
ATOM     25  C   UNL     1       9.252   2.205  22.760  0.00  0.00    +0.129 A 
ATOM     26  C   UNL     1       8.122   2.483  21.991  0.00  0.00    +0.049 A 
ATOM     27  C   UNL     1       7.370   3.632  22.261  0.00  0.00    +0.042 A 
ATOM     28  C   UNL     1       7.766   4.500  23.276  0.00  0.00    +0.124 A 
ATOM     29  F   UNL     1       7.063   5.616  23.505  0.00  0.00    -0.205 F 
ATOM     30  C   UNL     1       8.895   4.236  24.040  0.00  0.00    +0.042 A 
ATOM     31  C   UNL     1       9.638   3.088  23.778  0.00  0.00    +0.049 A 
ENDBRANCH  24  25
ENDBRANCH  21  24
ENDBRANCH  17  18
ENDBRANCH   1  17
TORSDOF 8
ENDMDL
MODEL 6
REMARK VINA RESULT:      -7.0      4.298      8.147
REMARK  Name = 
REMARK  9 active torsions:
REMARK  status: ('A' for Active; 'I' for Inactive)
REMARK    1  A    between atoms: C_1  and  C_2
REMARK    2  A    between atoms: C_2  and  O_3
REMARK    3  A    between atoms: O_3  and  C_4
REMARK    4  A    between atoms: C_4  and  C_5
REMARK    5  A    between atoms: C_5  and  C_6
REMARK    6  A    between atoms: C_6  and  O_7
REMARK    7  A    between atoms: O_7  and  C_8
REMARK    8  A    between atoms: C_11  and  O_12
REMARK    9  A    between atoms: O_12  and  C_13
REMARK                            x       y       z     vdW  Elec       q    Type
REMARK                         _______ _______ _______ _____ _____    ______ ____
ROOT
ATOM      1  C   UNL     1       9.025   2.989  23.075  0.00  0.00    +0.263 C 
ATOM      2  C   UNL     1       9.460   4.433  23.380  0.00  0.00    +0.274 C 
ATOM      3  O   UNL     1      10.568   4.739  23.821  0.00  0.00    -0.270 OA
ATOM      4  N   UNL     1       8.532   5.416  23.143  0.00  0.00    -0.236 N 
ATOM      5  H   UNL     1       8.836   6.361  23.329  0.00  0.00    +0.159 HD
ATOM      6  C   UNL     1       7.405   5.290  22.390  0.00  0.00    +0.312 C 
ATOM      7  O   UNL     1       6.784   6.276  22.007  0.00  0.00    -0.252 OA
ATOM      8  N   UNL     1       7.053   4.035  22.011  0.00  0.00    -0.236 N 
ATOM      9  H   UNL     1       6.297   3.991  21.339  0.00  0.00    +0.159 HD
ATOM     10  C   UNL     1       7.894   2.954  22.028  0.00  0.00    +0.274 C 
ATOM     11  O   UNL     1       7.684   2.010  21.269  0.00  0.00    -0.270 OA
ENDROOT
BRANCH   1  12
ATOM     12  C   UNL     1       8.387   2.532  24.416  0.00  0.00    +0.095 C 
BRANCH  12  13
ATOM     13  C   UNL     1       6.910   2.159  24.335  0.00  0.00    +0.164 C 
BRANCH  13  14
ATOM     14  O   UNL     1       6.778   0.856  24.909  0.00  0.00    -0.380 OA
BRANCH  14  16
ATOM     15  C   UNL     1       5.957  -1.372  24.648  0.00  0.00    +0.034 C 
ATOM     16  C   UNL     1       6.428  -0.121  23.932  0.00  0.00    +0.156 C 
ENDBRANCH  14  16
ENDBRANCH  13  14
ENDBRANCH  12  13
ENDBRANCH   1  12
BRANCH   1  17
ATOM     17  O   UNL     1      10.091   2.083  22.798  0.00  0.00    -0.467 OA
BRANCH  17  18
ATOM     18  C   UNL     1      10.012   0.774  23.196  0.00  0.00    +0.123 A 
ATOM     19  C   UNL     1       9.806  -0.155  22.167  0.00  0.00    +0.049 A 
ATOM     20  C   UNL     1       9.735  -1.534  22.433  0.00  0.00    +0.050 A 
ATOM     21  C   UNL     1       9.833  -1.987  23.744  0.00  0.00    +0.129 A 
ATOM     22  C   UNL     1      10.005  -1.061  24.773  0.00  0.00    +0.050 A 
ATOM     23  C   UNL     1      10.097   0.308  24.504  0.00  0.00    +0.049 A 
BRANCH  21  24
ATOM     24  O   UNL     1       9.924  -3.292  24.153  0.00  0.00    -0.456 OA
BRANCH  24  25
ATOM     25  C   UNL     1       8.925  -3.936  24.836  0.00  0.00    +0.129 A 
ATOM     26  C   UNL     1       8.976  -4.309  26.179  0.00  0.00    +0.049 A 
ATOM     27  C   UNL     1       7.949  -5.093  26.717  0.00  0.00    +0.042 A 
ATOM     28  C   UNL     1       6.897  -5.512  25.906  0.00  0.00    +0.124 A 
ATOM     29  F   UNL     1       5.936  -6.291  26.418  0.00  0.00    -0.205 F 
ATOM     30  C   UNL     1       6.843  -5.154  24.565  0.00  0.00    +0.042 A 
ATOM     31  C   UNL     1       7.861  -4.367  24.032  0.00  0.00    +0.049 A 
ENDBRANCH  24  25
ENDBRANCH  21  24
ENDBRANCH  17  18
ENDBRANCH   1  17
TORSDOF 8
ENDMDL
MODEL 7
REMARK VINA RESULT:      -6.9      4.009      8.907
REMARK  Name = 
REMARK  9 active torsions:
REMARK  status: ('A' for Active; 'I' for Inactive)
REMARK    1  A    between atoms: C_1  and  C_2
REMARK    2  A    between atoms: C_2  and  O_3
REMARK    3  A    between atoms: O_3  and  C_4
REMARK    4  A    between atoms: C_4  and  C_5
REMARK    5  A    between atoms: C_5  and  C_6
REMARK    6  A    between atoms: C_6  and  O_7
REMARK    7  A    between atoms: O_7  and  C_8
REMARK    8  A    between atoms: C_11  and  O_12
REMARK    9  A    between atoms: O_12  and  C_13
REMARK                            x       y       z     vdW  Elec       q    Type
REMARK                         _______ _______ _______ _____ _____    ______ ____
ROOT
ATOM      1  C   UNL     1       8.856   2.494  23.727  0.00  0.00    +0.263 C 
ATOM      2  C   UNL     1       8.368   2.223  22.293  0.00  0.00    +0.274 C 
ATOM      3  O   UNL     1       9.009   1.587  21.456  0.00  0.00    -0.270 OA
ATOM      4  N   UNL     1       7.144   2.743  21.955  0.00  0.00    -0.236 N 
ATOM      5  H   UNL     1       6.825   2.542  21.017  0.00  0.00    +0.159 HD
ATOM      6  C   UNL     1       6.196   3.192  22.822  0.00  0.00    +0.312 C 
ATOM      7  O   UNL     1       5.039   3.379  22.458  0.00  0.00    -0.252 OA
ATOM      8  N   UNL     1       6.566   3.338  24.120  0.00  0.00    -0.236 N 
ATOM      9  H   UNL     1       5.805   3.536  24.759  0.00  0.00    +0.159 HD
ATOM     10  C   UNL     1       7.675   2.762  24.680  0.00  0.00    +0.274 C 
ATOM     11  O   UNL     1       7.699   2.542  25.890  0.00  0.00    -0.270 OA
ENDROOT
BRANCH   1  12
ATOM     12  C   UNL     1       9.612   3.844  23.584  0.00  0.00    +0.095 C 
BRANCH  12  13
ATOM     13  C   UNL     1      11.120   3.724  23.390  0.00  0.00    +0.164 C 
BRANCH  13  14
ATOM     14  O   UNL     1      11.655   5.049  23.461  0.00  0.00    -0.380 OA
BRANCH  14  16
ATOM     15  C   UNL     1      13.348   5.721  21.915  0.00  0.00    +0.034 C 
ATOM     16  C   UNL     1      13.065   5.063  23.252  0.00  0.00    +0.156 C 
ENDBRANCH  14  16
ENDBRANCH  13  14
ENDBRANCH  12  13
ENDBRANCH   1  12
BRANCH   1  17
ATOM     17  O   UNL     1       9.798   1.549  24.233  0.00  0.00    -0.467 OA
BRANCH  17  18
ATOM     18  C   UNL     1       9.532   0.206  24.180  0.00  0.00    +0.123 A 
ATOM     19  C   UNL     1      10.376  -0.541  23.348  0.00  0.00    +0.049 A 
ATOM     20  C   UNL     1      10.233  -1.934  23.224  0.00  0.00    +0.050 A 
ATOM     21  C   UNL     1       9.212  -2.583  23.910  0.00  0.00    +0.129 A 
ATOM     22  C   UNL     1       8.350  -1.837  24.713  0.00  0.00    +0.050 A 
ATOM     23  C   UNL     1       8.508  -0.455  24.851  0.00  0.00    +0.049 A 
BRANCH  21  24
ATOM     24  O   UNL     1       9.026  -3.938  24.007  0.00  0.00    -0.456 OA
BRANCH  24  25
ATOM     25  C   UNL     1       7.789  -4.529  23.994  0.00  0.00    +0.129 A 
ATOM     26  C   UNL     1       7.096  -4.976  25.119  0.00  0.00    +0.049 A 
ATOM     27  C   UNL     1       5.906  -5.695  24.956  0.00  0.00    +0.042 A 
ATOM     28  C   UNL     1       5.435  -5.977  23.676  0.00  0.00    +0.124 A 
ATOM     29  F   UNL     1       4.315  -6.696  23.526  0.00  0.00    -0.205 F 
ATOM     30  C   UNL     1       6.123  -5.544  22.550  0.00  0.00    +0.042 A 
ATOM     31  C   UNL     1       7.302  -4.821  22.713  0.00  0.00    +0.049 A 
ENDBRANCH  24  25
ENDBRANCH  21  24
ENDBRANCH  17  18
ENDBRANCH   1  17
TORSDOF 8
ENDMDL
MODEL 8
REMARK VINA RESULT:      -6.9      2.411      3.958
REMARK  Name = 
REMARK  9 active torsions:
REMARK  status: ('A' for Active; 'I' for Inactive)
REMARK    1  A    between atoms: C_1  and  C_2
REMARK    2  A    between atoms: C_2  and  O_3
REMARK    3  A    between atoms: O_3  and  C_4
REMARK    4  A    between atoms: C_4  and  C_5
REMARK    5  A    between atoms: C_5  and  C_6
REMARK    6  A    between atoms: C_6  and  O_7
REMARK    7  A    between atoms: O_7  and  C_8
REMARK    8  A    between atoms: C_11  and  O_12
REMARK    9  A    between atoms: O_12  and  C_13
REMARK                            x       y       z     vdW  Elec       q    Type
REMARK                         _______ _______ _______ _____ _____    ______ ____
ROOT
ATOM      1  C   UNL     1       5.194  -5.104  24.924  0.00  0.00    +0.263 C 
ATOM      2  C   UNL     1       5.347  -4.245  26.190  0.00  0.00    +0.274 C 
ATOM      3  O   UNL     1       6.358  -4.229  26.893  0.00  0.00    -0.270 OA
ATOM      4  N   UNL     1       4.272  -3.465  26.535  0.00  0.00    -0.236 N 
ATOM      5  H   UNL     1       4.391  -2.891  27.358  0.00  0.00    +0.159 HD
ATOM      6  C   UNL     1       3.226  -3.138  25.728  0.00  0.00    +0.312 C 
ATOM      7  O   UNL     1       2.460  -2.225  26.020  0.00  0.00    -0.252 OA
ATOM      8  N   UNL     1       3.125  -3.803  24.549  0.00  0.00    -0.236 N 
ATOM      9  H   UNL     1       2.425  -3.439  23.914  0.00  0.00    +0.159 HD
ATOM     10  C   UNL     1       4.144  -4.508  23.965  0.00  0.00    +0.274 C 
ATOM     11  O   UNL     1       4.146  -4.676  22.747  0.00  0.00    -0.270 OA
ENDROOT
BRANCH   1  12
ATOM     12  C   UNL     1       4.579  -6.421  25.474  0.00  0.00    +0.095 C 
BRANCH  12  13
ATOM     13  C   UNL     1       4.015  -7.363  24.415  0.00  0.00    +0.164 C 
BRANCH  13  14
ATOM     14  O   UNL     1       3.155  -8.283  25.093  0.00  0.00    -0.380 OA
BRANCH  14  16
ATOM     15  C   UNL     1       1.815  -7.455  23.297  0.00  0.00    +0.034 C 
ATOM     16  C   UNL     1       1.815  -8.210  24.613  0.00  0.00    +0.156 C 
ENDBRANCH  14  16
ENDBRANCH  13  14
ENDBRANCH  12  13
ENDBRANCH   1  12
BRANCH   1  17
ATOM     17  O   UNL     1       6.418  -5.460  24.283  0.00  0.00    -0.467 OA
BRANCH  17  18
ATOM     18  C   UNL     1       7.327  -4.495  23.936  0.00  0.00    +0.123 A 
ATOM     19  C   UNL     1       8.520  -4.503  24.671  0.00  0.00    +0.049 A 
ATOM     20  C   UNL     1       9.551  -3.585  24.398  0.00  0.00    +0.050 A 
ATOM     21  C   UNL     1       9.373  -2.626  23.407  0.00  0.00    +0.129 A 
ATOM     22  C   UNL     1       8.172  -2.596  22.698  0.00  0.00    +0.050 A 
ATOM     23  C   UNL     1       7.158  -3.522  22.956  0.00  0.00    +0.049 A 
BRANCH  21  24
ATOM     24  O   UNL     1      10.322  -1.760  22.928  0.00  0.00    -0.456 OA
BRANCH  24  25
ATOM     25  C   UNL     1      10.180  -0.398  22.963  0.00  0.00    +0.129 A 
ATOM     26  C   UNL     1       9.889   0.412  21.865  0.00  0.00    +0.049 A 
ATOM     27  C   UNL     1       9.917   1.804  22.007  0.00  0.00    +0.042 A 
ATOM     28  C   UNL     1      10.256   2.370  23.233  0.00  0.00    +0.124 A 
ATOM     29  F   UNL     1      10.316   3.703  23.353  0.00  0.00    -0.205 F 
ATOM     30  C   UNL     1      10.557   1.573  24.330  0.00  0.00    +0.042 A 
ATOM     31  C   UNL     1      10.520   0.187  24.190  0.00  0.00    +0.049 A 
ENDBRANCH  24  25
ENDBRANCH  21  24
ENDBRANCH  17  18
ENDBRANCH   1  17
TORSDOF 8
ENDMDL
MODEL 9
REMARK VINA RESULT:      -6.9      2.695      4.429
REMARK  Name = 
REMARK  9 active torsions:
REMARK  status: ('A' for Active; 'I' for Inactive)
REMARK    1  A    between atoms: C_1  and  C_2
REMARK    2  A    between atoms: C_2  and  O_3
REMARK    3  A    between atoms: O_3  and  C_4
REMARK    4  A    between atoms: C_4  and  C_5
REMARK    5  A    between atoms: C_5  and  C_6
REMARK    6  A    between atoms: C_6  and  O_7
REMARK    7  A    between atoms: O_7  and  C_8
REMARK    8  A    between atoms: C_11  and  O_12
REMARK    9  A    between atoms: O_12  and  C_13
REMARK                            x       y       z     vdW  Elec       q    Type
REMARK                         _______ _______ _______ _____ _____    ______ ____
ROOT
ATOM      1  C   UNL     1       4.246  -5.182  25.970  0.00  0.00    +0.263 C 
ATOM      2  C   UNL     1       4.562  -6.688  25.948  0.00  0.00    +0.274 C 
ATOM      3  O   UNL     1       4.379  -7.415  24.971  0.00  0.00    -0.270 OA
ATOM      4  N   UNL     1       5.071  -7.225  27.104  0.00  0.00    -0.236 N 
ATOM      5  H   UNL     1       5.292  -8.210  27.070  0.00  0.00    +0.159 HD
ATOM      6  C   UNL     1       5.608  -6.529  28.142  0.00  0.00    +0.312 C 
ATOM      7  O   UNL     1       6.281  -7.089  29.002  0.00  0.00    -0.252 OA
ATOM      8  N   UNL     1       5.440  -5.182  28.136  0.00  0.00    -0.236 N 
ATOM      9  H   UNL     1       5.969  -4.684  28.841  0.00  0.00    +0.159 HD
ATOM     10  C   UNL     1       5.088  -4.449  27.033  0.00  0.00    +0.274 C 
ATOM     11  O   UNL     1       5.402  -3.262  26.968  0.00  0.00    -0.270 OA
ENDROOT
BRANCH   1  12
ATOM     12  C   UNL     1       2.779  -5.147  26.481  0.00  0.00    +0.095 C 
BRANCH  12  13
ATOM     13  C   UNL     1       1.716  -5.067  25.389  0.00  0.00    +0.164 C 
BRANCH  13  14
ATOM     14  O   UNL     1       1.136  -6.369  25.278  0.00  0.00    -0.380 OA
BRANCH  14  16
ATOM     15  C   UNL     1       1.441  -5.667  23.015  0.00  0.00    +0.034 C 
ATOM     16  C   UNL     1       0.782  -6.680  23.932  0.00  0.00    +0.156 C 
ENDBRANCH  14  16
ENDBRANCH  13  14
ENDBRANCH  12  13
ENDBRANCH   1  12
BRANCH   1  17
ATOM     17  O   UNL     1       4.252  -4.545  24.694  0.00  0.00    -0.467 OA
BRANCH  17  18
ATOM     18  C   UNL     1       5.430  -4.137  24.126  0.00  0.00    +0.123 A 
ATOM     19  C   UNL     1       5.398  -2.874  23.520  0.00  0.00    +0.049 A 
ATOM     20  C   UNL     1       6.546  -2.321  22.925  0.00  0.00    +0.050 A 
ATOM     21  C   UNL     1       7.728  -3.053  22.901  0.00  0.00    +0.129 A 
ATOM     22  C   UNL     1       7.753  -4.324  23.475  0.00  0.00    +0.050 A 
ATOM     23  C   UNL     1       6.616  -4.863  24.085  0.00  0.00    +0.049 A 
BRANCH  21  24
ATOM     24  O   UNL     1       8.958  -2.607  22.491  0.00  0.00    -0.456 OA
BRANCH  24  25
ATOM     25  C   UNL     1       9.519  -1.439  22.936  0.00  0.00    +0.129 A 
ATOM     26  C   UNL     1       9.835  -1.149  24.263  0.00  0.00    +0.049 A 
ATOM     27  C   UNL     1      10.268   0.137  24.605  0.00  0.00    +0.042 A 
ATOM     28  C   UNL     1      10.360   1.122  23.625  0.00  0.00    +0.124 A 
ATOM     29  F   UNL     1      10.740   2.361  23.964  0.00  0.00    -0.205 F 
ATOM     30  C   UNL     1      10.039   0.847  22.302  0.00  0.00    +0.042 A 
ATOM     31  C   UNL     1       9.616  -0.436  21.961  0.00  0.00    +0.049 A 
ENDBRANCH  24  25
ENDBRANCH  21  24
ENDBRANCH  17  18
ENDBRANCH   1  17
TORSDOF 8
ENDMDL
