MODEL 1
REMARK VINA RESULT:      -5.8      0.000      0.000
REMARK  Name = 
REMARK  6 active torsions:
REMARK  status: ('A' for Active; 'I' for Inactive)
REMARK    1  A    between atoms: O_1  and  C_2
REMARK    2  A    between atoms: C_2  and  C_4
REMARK    3  A    between atoms: C_4  and  C_5
REMARK    4  A    between atoms: C_5  and  C_6
REMARK    5  A    between atoms: C_6  and  C_7
REMARK    6  A    between atoms: C_7  and  C_8
REMARK                            x       y       z     vdW  Elec       q    Type
REMARK                         _______ _______ _______ _____ _____    ______ ____
ROOT
ATOM      1  C   UNL     1       9.513  -0.482  24.087  0.00  0.00    +0.085 C 
ATOM      2  C   UNL     1      10.389   0.519  23.339  0.00  0.00    +0.184 C 
ATOM      3  C   UNL     1       9.711   0.917  22.008  0.00  0.00    +0.181 C 
ATOM      4  N   UNL     1      10.226   2.281  21.841  0.00  0.00    -0.232 N 
ATOM      5  H   UNL     1       9.843   2.884  21.128  0.00  0.00    +0.245 HD
ATOM      6  C   UNL     1      10.593   2.820  23.039  0.00  0.00    +0.363 C 
ATOM      7  N   UNL     1      10.955   4.022  23.262  0.00  0.00    -0.133 NA
ATOM      8  H   UNL     1      10.939   4.541  22.385  0.00  0.00    +0.306 HD
ATOM      9  C   UNL     1       8.190   0.929  22.203  0.00  0.00    +0.111 C 
ATOM     10  N   UNL     1      10.525   1.831  23.971  0.00  0.00    -0.232 N 
ATOM     11  H   UNL     1      11.071   1.967  24.811  0.00  0.00    +0.245 HD
ATOM     12  S   UNL     1       7.793   0.000  23.709  0.00  0.00    -0.151 S 
ENDROOT
BRANCH   1  13
ATOM     13  C   UNL     1       9.790  -1.927  23.621  0.00  0.00    +0.017 C 
BRANCH  13  14
ATOM     14  C   UNL     1       8.584  -2.594  22.942  0.00  0.00    +0.002 C 
BRANCH  14  15
ATOM     15  C   UNL     1       8.129  -3.858  23.675  0.00  0.00    +0.011 C 
BRANCH  15  16
ATOM     16  C   UNL     1       8.662  -3.868  25.110  0.00  0.00    +0.120 C 
BRANCH  16  17
ATOM     17  C   UNL     1       8.803  -5.267  25.662  0.00  0.00    +0.305 C 
ATOM     18  O   UNL     1       8.010  -5.815  26.411  0.00  0.00    -0.251 OA
BRANCH  17  19
ATOM     19  O   UNL     1       9.932  -5.875  25.229  0.00  0.00    -0.481 OA
ATOM     20  H   UNL     1      10.503  -6.206  25.950  0.00  0.00    +0.295 HD
ENDBRANCH  17  19
ENDBRANCH  16  17
ENDBRANCH  15  16
ENDBRANCH  14  15
ENDBRANCH  13  14
ENDBRANCH   1  13
TORSDOF 6
ENDMDL
MODEL 2
REMARK VINA RESULT:      -5.7      5.079      7.013
REMARK  Name = 
REMARK  6 active torsions:
REMARK  status: ('A' for Active; 'I' for Inactive)
REMARK    1  A    between atoms: O_1  and  C_2
REMARK    2  A    between atoms: C_2  and  C_4
REMARK    3  A    between atoms: C_4  and  C_5
REMARK    4  A    between atoms: C_5  and  C_6
REMARK    5  A    between atoms: C_6  and  C_7
REMARK    6  A    between atoms: C_7  and  C_8
REMARK                            x       y       z     vdW  Elec       q    Type
REMARK                         _______ _______ _______ _____ _____    ______ ____
ROOT
ATOM      1  C   UNL     1       9.027  -4.257  24.647  0.00  0.00    +0.085 C 
ATOM      2  C   UNL     1       8.514  -4.219  26.084  0.00  0.00    +0.184 C 
ATOM      3  C   UNL     1       7.079  -3.647  26.113  0.00  0.00    +0.181 C 
ATOM      4  N   UNL     1       6.538  -4.337  27.289  0.00  0.00    -0.232 N 
ATOM      5  H   UNL     1       5.550  -4.293  27.494  0.00  0.00    +0.245 HD
ATOM      6  C   UNL     1       7.216  -5.495  27.538  0.00  0.00    +0.363 C 
ATOM      7  N   UNL     1       6.920  -6.388  28.398  0.00  0.00    -0.133 NA
ATOM      8  H   UNL     1       6.080  -6.102  28.899  0.00  0.00    +0.306 HD
ATOM      9  C   UNL     1       6.340  -4.077  24.841  0.00  0.00    +0.111 C 
ATOM     10  N   UNL     1       8.293  -5.524  26.707  0.00  0.00    -0.232 N 
ATOM     11  H   UNL     1       9.059  -6.120  26.987  0.00  0.00    +0.245 HD
ATOM     12  S   UNL     1       7.564  -4.623  23.618  0.00  0.00    -0.151 S 
ENDROOT
BRANCH   1  13
ATOM     13  C   UNL     1       9.657  -2.908  24.241  0.00  0.00    +0.017 C 
BRANCH  13  14
ATOM     14  C   UNL     1       9.143  -2.372  22.896  0.00  0.00    +0.002 C 
BRANCH  14  15
ATOM     15  C   UNL     1      10.133  -1.411  22.236  0.00  0.00    +0.011 C 
BRANCH  15  16
ATOM     16  C   UNL     1       9.417  -0.144  21.762  0.00  0.00    +0.120 C 
BRANCH  16  17
ATOM     17  C   UNL     1       9.961   1.104  22.418  0.00  0.00    +0.305 C 
ATOM     18  O   UNL     1      10.203   1.230  23.608  0.00  0.00    -0.251 OA
BRANCH  17  19
ATOM     19  O   UNL     1      10.160   2.103  21.527  0.00  0.00    -0.481 OA
ATOM     20  H   UNL     1       9.449   2.772  21.518  0.00  0.00    +0.295 HD
ENDBRANCH  17  19
ENDBRANCH  16  17
ENDBRANCH  15  16
ENDBRANCH  14  15
ENDBRANCH  13  14
ENDBRANCH   1  13
TORSDOF 6
ENDMDL
MODEL 3
REMARK VINA RESULT:      -5.7      5.378      7.325
REMARK  Name = 
REMARK  6 active torsions:
REMARK  status: ('A' for Active; 'I' for Inactive)
REMARK    1  A    between atoms: O_1  and  C_2
REMARK    2  A    between atoms: C_2  and  C_4
REMARK    3  A    between atoms: C_4  and  C_5
REMARK    4  A    between atoms: C_5  and  C_6
REMARK    5  A    between atoms: C_6  and  C_7
REMARK    6  A    between atoms: C_7  and  C_8
REMARK                            x       y       z     vdW  Elec       q    Type
REMARK                         _______ _______ _______ _____ _____    ______ ____
ROOT
ATOM      1  C   UNL     1       8.166   3.407  22.487  0.00  0.00    +0.085 C 
ATOM      2  C   UNL     1       9.141   2.236  22.557  0.00  0.00    +0.184 C 
ATOM      3  C   UNL     1       8.718   1.267  23.685  0.00  0.00    +0.181 C 
ATOM      4  N   UNL     1       9.220  -0.004  23.150  0.00  0.00    -0.232 N 
ATOM      5  H   UNL     1       8.964  -0.876  23.591  0.00  0.00    +0.245 HD
ATOM      6  C   UNL     1       9.338   0.044  21.792  0.00  0.00    +0.363 C 
ATOM      7  N   UNL     1       9.619  -0.924  21.011  0.00  0.00    -0.133 NA
ATOM      8  H   UNL     1       9.756  -1.768  21.565  0.00  0.00    +0.306 HD
ATOM      9  C   UNL     1       7.189   1.251  23.786  0.00  0.00    +0.111 C 
ATOM     10  N   UNL     1       9.120   1.330  21.408  0.00  0.00    -0.232 N 
ATOM     11  H   UNL     1       9.493   1.599  20.507  0.00  0.00    +0.245 HD
ATOM     12  S   UNL     1       6.537   2.710  22.928  0.00  0.00    -0.151 S 
ENDROOT
BRANCH   1  13
ATOM     13  C   UNL     1       8.564   4.528  23.471  0.00  0.00    +0.017 C 
BRANCH  13  14
ATOM     14  C   UNL     1      10.050   4.502  23.860  0.00  0.00    +0.002 C 
BRANCH  14  15
ATOM     15  C   UNL     1      10.736   5.849  23.622  0.00  0.00    +0.011 C 
BRANCH  15  16
ATOM     16  C   UNL     1      12.214   5.776  24.013  0.00  0.00    +0.120 C 
BRANCH  16  17
ATOM     17  C   UNL     1      13.099   5.396  22.848  0.00  0.00    +0.305 C 
ATOM     18  O   UNL     1      12.761   5.390  21.675  0.00  0.00    -0.251 OA
BRANCH  17  19
ATOM     19  O   UNL     1      14.346   5.054  23.246  0.00  0.00    -0.481 OA
ATOM     20  H   UNL     1      14.786   5.731  23.796  0.00  0.00    +0.295 HD
ENDBRANCH  17  19
ENDBRANCH  16  17
ENDBRANCH  15  16
ENDBRANCH  14  15
ENDBRANCH  13  14
ENDBRANCH   1  13
TORSDOF 6
ENDMDL
MODEL 4
REMARK VINA RESULT:      -5.6      1.573      2.345
REMARK  Name = 
REMARK  6 active torsions:
REMARK  status: ('A' for Active; 'I' for Inactive)
REMARK    1  A    between atoms: O_1  and  C_2
REMARK    2  A    between atoms: C_2  and  C_4
REMARK    3  A    between atoms: C_4  and  C_5
REMARK    4  A    between atoms: C_5  and  C_6
REMARK    5  A    between atoms: C_6  and  C_7
REMARK    6  A    between atoms: C_7  and  C_8
REMARK                            x       y       z     vdW  Elec       q    Type
REMARK                         _______ _______ _______ _____ _____    ______ ____
ROOT
ATOM      1  C   UNL     1       8.655  -2.216  22.439  0.00  0.00    +0.085 C 
ATOM      2  C   UNL     1       8.389  -0.716  22.356  0.00  0.00    +0.184 C 
ATOM      3  C   UNL     1       8.530  -0.080  23.758  0.00  0.00    +0.181 C 
ATOM      4  N   UNL     1       8.971   1.272  23.397  0.00  0.00    -0.232 N 
ATOM      5  H   UNL     1       9.303   1.905  24.111  0.00  0.00    +0.245 HD
ATOM      6  C   UNL     1       9.565   1.286  22.169  0.00  0.00    +0.363 C 
ATOM      7  N   UNL     1      10.170   2.265  21.620  0.00  0.00    -0.133 NA
ATOM      8  H   UNL     1      10.139   3.068  22.247  0.00  0.00    +0.306 HD
ATOM      9  C   UNL     1       9.622  -0.820  24.538  0.00  0.00    +0.111 C 
ATOM     10  N   UNL     1       9.382   0.059  21.612  0.00  0.00    -0.232 N 
ATOM     11  H   UNL     1       9.457   0.007  20.605  0.00  0.00    +0.245 HD
ATOM     12  S   UNL     1       9.934  -2.412  23.727  0.00  0.00    -0.151 S 
ENDROOT
BRANCH   1  13
ATOM     13  C   UNL     1       7.376  -2.992  22.817  0.00  0.00    +0.017 C 
BRANCH  13  14
ATOM     14  C   UNL     1       7.644  -4.440  23.255  0.00  0.00    +0.002 C 
BRANCH  14  15
ATOM     15  C   UNL     1       6.759  -4.866  24.428  0.00  0.00    +0.011 C 
BRANCH  15  16
ATOM     16  C   UNL     1       7.264  -4.249  25.734  0.00  0.00    +0.120 C 
BRANCH  16  17
ATOM     17  C   UNL     1       7.937  -5.264  26.628  0.00  0.00    +0.305 C 
ATOM     18  O   UNL     1       7.467  -5.722  27.657  0.00  0.00    -0.251 OA
BRANCH  17  19
ATOM     19  O   UNL     1       9.154  -5.628  26.160  0.00  0.00    -0.481 OA
ATOM     20  H   UNL     1       9.228  -6.579  25.952  0.00  0.00    +0.295 HD
ENDBRANCH  17  19
ENDBRANCH  16  17
ENDBRANCH  15  16
ENDBRANCH  14  15
ENDBRANCH  13  14
ENDBRANCH   1  13
TORSDOF 6
ENDMDL
MODEL 5
REMARK VINA RESULT:      -5.6      2.077      2.406
REMARK  Name = 
REMARK  6 active torsions:
REMARK  status: ('A' for Active; 'I' for Inactive)
REMARK    1  A    between atoms: O_1  and  C_2
REMARK    2  A    between atoms: C_2  and  C_4
REMARK    3  A    between atoms: C_4  and  C_5
REMARK    4  A    between atoms: C_5  and  C_6
REMARK    5  A    between atoms: C_6  and  C_7
REMARK    6  A    between atoms: C_7  and  C_8
REMARK                            x       y       z     vdW  Elec       q    Type
REMARK                         _______ _______ _______ _____ _____    ______ ____
ROOT
ATOM      1  C   UNL     1       9.483  -0.607  23.909  0.00  0.00    +0.085 C 
ATOM      2  C   UNL     1      10.361   0.409  23.186  0.00  0.00    +0.184 C 
ATOM      3  C   UNL     1       9.649   0.900  21.905  0.00  0.00    +0.181 C 
ATOM      4  N   UNL     1      10.198   2.256  21.794  0.00  0.00    -0.232 N 
ATOM      5  H   UNL     1       9.809   2.909  21.130  0.00  0.00    +0.245 HD
ATOM      6  C   UNL     1      10.623   2.717  23.006  0.00  0.00    +0.363 C 
ATOM      7  N   UNL     1      11.027   3.894  23.281  0.00  0.00    -0.133 NA
ATOM      8  H   UNL     1      10.996   4.462  22.435  0.00  0.00    +0.306 HD
ATOM      9  C   UNL     1       8.137   0.943  22.155  0.00  0.00    +0.111 C 
ATOM     10  N   UNL     1      10.558   1.680  23.884  0.00  0.00    -0.232 N 
ATOM     11  H   UNL     1      11.136   1.753  24.709  0.00  0.00    +0.245 HD
ATOM     12  S   UNL     1       7.765  -0.057  23.621  0.00  0.00    -0.151 S 
ENDROOT
BRANCH   1  13
ATOM     13  C   UNL     1       9.700  -2.031  23.355  0.00  0.00    +0.017 C 
BRANCH  13  14
ATOM     14  C   UNL     1       8.409  -2.699  22.859  0.00  0.00    +0.002 C 
BRANCH  14  15
ATOM     15  C   UNL     1       8.090  -3.987  23.622  0.00  0.00    +0.011 C 
BRANCH  15  16
ATOM     16  C   UNL     1       6.696  -4.499  23.252  0.00  0.00    +0.120 C 
BRANCH  16  17
ATOM     17  C   UNL     1       6.599  -4.907  21.800  0.00  0.00    +0.305 C 
ATOM     18  O   UNL     1       7.223  -5.817  21.278  0.00  0.00    -0.251 OA
BRANCH  17  19
ATOM     19  O   UNL     1       5.723  -4.139  21.112  0.00  0.00    -0.481 OA
ATOM     20  H   UNL     1       6.074  -3.801  20.266  0.00  0.00    +0.295 HD
ENDBRANCH  17  19
ENDBRANCH  16  17
ENDBRANCH  15  16
ENDBRANCH  14  15
ENDBRANCH  13  14
ENDBRANCH   1  13
TORSDOF 6
ENDMDL
MODEL 6
REMARK VINA RESULT:      -5.3      1.883      2.266
REMARK  Name = 
REMARK  6 active torsions:
REMARK  status: ('A' for Active; 'I' for Inactive)
REMARK    1  A    between atoms: O_1  and  C_2
REMARK    2  A    between atoms: C_2  and  C_4
REMARK    3  A    between atoms: C_4  and  C_5
REMARK    4  A    between atoms: C_5  and  C_6
REMARK    5  A    between atoms: C_6  and  C_7
REMARK    6  A    between atoms: C_7  and  C_8
REMARK                            x       y       z     vdW  Elec       q    Type
REMARK                         _______ _______ _______ _____ _____    ______ ____
ROOT
ATOM      1  C   UNL     1       8.410  -0.451  23.137  0.00  0.00    +0.085 C 
ATOM      2  C   UNL     1       8.074   1.008  23.431  0.00  0.00    +0.184 C 
ATOM      3  C   UNL     1       9.268   1.910  23.046  0.00  0.00    +0.181 C 
ATOM      4  N   UNL     1       8.567   3.150  22.694  0.00  0.00    -0.232 N 
ATOM      5  H   UNL     1       9.065   3.905  22.246  0.00  0.00    +0.245 HD
ATOM      6  C   UNL     1       7.275   2.901  22.333  0.00  0.00    +0.363 C 
ATOM      7  N   UNL     1       6.438   3.733  21.851  0.00  0.00    -0.133 NA
ATOM      8  H   UNL     1       6.884   4.647  21.778  0.00  0.00    +0.306 HD
ATOM      9  C   UNL     1       9.972   1.316  21.821  0.00  0.00    +0.111 C 
ATOM     10  N   UNL     1       7.021   1.592  22.600  0.00  0.00    -0.232 N 
ATOM     11  H   UNL     1       6.049   1.336  22.709  0.00  0.00    +0.245 HD
ATOM     12  S   UNL     1       9.459  -0.415  21.642  0.00  0.00    -0.151 S 
ENDROOT
BRANCH   1  13
ATOM     13  C   UNL     1       9.162  -1.102  24.316  0.00  0.00    +0.017 C 
BRANCH  13  14
ATOM     14  C   UNL     1       9.499  -2.583  24.085  0.00  0.00    +0.002 C 
BRANCH  14  15
ATOM     15  C   UNL     1       8.248  -3.435  23.862  0.00  0.00    +0.011 C 
BRANCH  15  16
ATOM     16  C   UNL     1       8.485  -4.872  24.334  0.00  0.00    +0.120 C 
BRANCH  16  17
ATOM     17  C   UNL     1       9.308  -4.933  25.600  0.00  0.00    +0.305 C 
ATOM     18  O   UNL     1       8.945  -4.543  26.699  0.00  0.00    -0.251 OA
BRANCH  17  19
ATOM     19  O   UNL     1      10.527  -5.481  25.390  0.00  0.00    -0.481 OA
ATOM     20  H   UNL     1      10.633  -6.370  25.781  0.00  0.00    +0.295 HD
ENDBRANCH  17  19
ENDBRANCH  16  17
ENDBRANCH  15  16
ENDBRANCH  14  15
ENDBRANCH  13  14
ENDBRANCH   1  13
TORSDOF 6
ENDMDL
MODEL 7
REMARK VINA RESULT:      -5.2      4.729      6.306
REMARK  Name = 
REMARK  6 active torsions:
REMARK  status: ('A' for Active; 'I' for Inactive)
REMARK    1  A    between atoms: O_1  and  C_2
REMARK    2  A    between atoms: C_2  and  C_4
REMARK    3  A    between atoms: C_4  and  C_5
REMARK    4  A    between atoms: C_5  and  C_6
REMARK    5  A    between atoms: C_6  and  C_7
REMARK    6  A    between atoms: C_7  and  C_8
REMARK                            x       y       z     vdW  Elec       q    Type
REMARK                         _______ _______ _______ _____ _____    ______ ____
ROOT
ATOM      1  C   UNL     1       7.716  -2.342  25.249  0.00  0.00    +0.085 C 
ATOM      2  C   UNL     1       6.418  -2.302  24.447  0.00  0.00    +0.184 C 
ATOM      3  C   UNL     1       6.720  -1.931  22.978  0.00  0.00    +0.181 C 
ATOM      4  N   UNL     1       5.626  -2.628  22.293  0.00  0.00    -0.232 N 
ATOM      5  H   UNL     1       5.627  -2.709  21.286  0.00  0.00    +0.245 HD
ATOM      6  C   UNL     1       5.158  -3.667  23.042  0.00  0.00    +0.363 C 
ATOM      7  N   UNL     1       4.307  -4.548  22.687  0.00  0.00    -0.133 NA
ATOM      8  H   UNL     1       4.008  -4.354  21.732  0.00  0.00    +0.306 HD
ATOM      9  C   UNL     1       8.077  -2.522  22.579  0.00  0.00    +0.111 C 
ATOM     10  N   UNL     1       5.751  -3.591  24.264  0.00  0.00    -0.232 N 
ATOM     11  H   UNL     1       5.279  -4.062  25.023  0.00  0.00    +0.245 HD
ATOM     12  S   UNL     1       8.985  -2.957  24.088  0.00  0.00    -0.151 S 
ENDROOT
BRANCH   1  13
ATOM     13  C   UNL     1       8.092  -0.942  25.777  0.00  0.00    +0.017 C 
BRANCH  13  14
ATOM     14  C   UNL     1       9.464  -0.451  25.290  0.00  0.00    +0.002 C 
BRANCH  14  15
ATOM     15  C   UNL     1       9.355   0.788  24.399  0.00  0.00    +0.011 C 
BRANCH  15  16
ATOM     16  C   UNL     1      10.444   0.773  23.323  0.00  0.00    +0.120 C 
BRANCH  16  17
ATOM     17  C   UNL     1       9.910   1.138  21.958  0.00  0.00    +0.305 C 
ATOM     18  O   UNL     1       9.238   0.411  21.243  0.00  0.00    -0.251 OA
BRANCH  17  19
ATOM     19  O   UNL     1      10.259   2.393  21.592  0.00  0.00    -0.481 OA
ATOM     20  H   UNL     1       9.544   2.889  21.148  0.00  0.00    +0.295 HD
ENDBRANCH  17  19
ENDBRANCH  16  17
ENDBRANCH  15  16
ENDBRANCH  14  15
ENDBRANCH  13  14
ENDBRANCH   1  13
TORSDOF 6
ENDMDL
MODEL 8
REMARK VINA RESULT:      -5.2      4.345      6.364
REMARK  Name = 
REMARK  6 active torsions:
REMARK  status: ('A' for Active; 'I' for Inactive)
REMARK    1  A    between atoms: O_1  and  C_2
REMARK    2  A    between atoms: C_2  and  C_4
REMARK    3  A    between atoms: C_4  and  C_5
REMARK    4  A    between atoms: C_5  and  C_6
REMARK    5  A    between atoms: C_6  and  C_7
REMARK    6  A    between atoms: C_7  and  C_8
REMARK                            x       y       z     vdW  Elec       q    Type
REMARK                         _______ _______ _______ _____ _____    ______ ____
ROOT
ATOM      1  C   UNL     1       7.828  -2.031  23.323  0.00  0.00    +0.085 C 
ATOM      2  C   UNL     1       8.338  -2.711  24.590  0.00  0.00    +0.184 C 
ATOM      3  C   UNL     1       7.277  -3.704  25.116  0.00  0.00    +0.181 C 
ATOM      4  N   UNL     1       8.137  -4.698  25.768  0.00  0.00    -0.232 N 
ATOM      5  H   UNL     1       7.749  -5.574  26.087  0.00  0.00    +0.245 HD
ATOM      6  C   UNL     1       9.396  -4.681  25.242  0.00  0.00    +0.363 C 
ATOM      7  N   UNL     1      10.342  -5.499  25.490  0.00  0.00    -0.133 NA
ATOM      8  H   UNL     1      10.017  -6.187  26.169  0.00  0.00    +0.306 HD
ATOM      9  C   UNL     1       6.534  -4.323  23.926  0.00  0.00    +0.111 C 
ATOM     10  N   UNL     1       9.476  -3.612  24.406  0.00  0.00    -0.232 N 
ATOM     11  H   UNL     1      10.405  -3.267  24.206  0.00  0.00    +0.245 HD
ATOM     12  S   UNL     1       6.829  -3.294  22.462  0.00  0.00    -0.151 S 
ENDROOT
BRANCH   1  13
ATOM     13  C   UNL     1       6.970  -0.793  23.657  0.00  0.00    +0.017 C 
BRANCH  13  14
ATOM     14  C   UNL     1       7.734   0.290  24.434  0.00  0.00    +0.002 C 
BRANCH  14  15
ATOM     15  C   UNL     1       7.867   1.591  23.640  0.00  0.00    +0.011 C 
BRANCH  15  16
ATOM     16  C   UNL     1       7.955   1.299  22.140  0.00  0.00    +0.120 C 
BRANCH  16  17
ATOM     17  C   UNL     1       9.377   1.086  21.678  0.00  0.00    +0.305 C 
ATOM     18  O   UNL     1       9.891   0.003  21.445  0.00  0.00    -0.251 OA
BRANCH  17  19
ATOM     19  O   UNL     1      10.049   2.253  21.541  0.00  0.00    -0.481 OA
ATOM     20  H   UNL     1       9.703   2.827  20.831  0.00  0.00    +0.295 HD
ENDBRANCH  17  19
ENDBRANCH  16  17
ENDBRANCH  15  16
ENDBRANCH  14  15
ENDBRANCH  13  14
ENDBRANCH   1  13
TORSDOF 6
ENDMDL
MODEL 9
REMARK VINA RESULT:      -5.1      1.965      2.799
REMARK  Name = 
REMARK  6 active torsions:
REMARK  status: ('A' for Active; 'I' for Inactive)
REMARK    1  A    between atoms: O_1  and  C_2
REMARK    2  A    between atoms: C_2  and  C_4
REMARK    3  A    between atoms: C_4  and  C_5
REMARK    4  A    between atoms: C_5  and  C_6
REMARK    5  A    between atoms: C_6  and  C_7
REMARK    6  A    between atoms: C_7  and  C_8
REMARK                            x       y       z     vdW  Elec       q    Type
REMARK                         _______ _______ _______ _____ _____    ______ ____
ROOT
ATOM      1  C   UNL     1       6.925  -1.257  24.471  0.00  0.00    +0.085 C 
ATOM      2  C   UNL     1       8.209  -0.605  23.966  0.00  0.00    +0.184 C 
ATOM      3  C   UNL     1       8.999  -1.607  23.095  0.00  0.00    +0.181 C 
ATOM      4  N   UNL     1       9.684  -0.687  22.179  0.00  0.00    -0.232 N 
ATOM      5  H   UNL     1      10.173  -1.046  21.372  0.00  0.00    +0.245 HD
ATOM      6  C   UNL     1       9.014   0.497  22.078  0.00  0.00    +0.363 C 
ATOM      7  N   UNL     1       9.265   1.455  21.275  0.00  0.00    -0.133 NA
ATOM      8  H   UNL     1      10.072   1.206  20.704  0.00  0.00    +0.306 HD
ATOM      9  C   UNL     1       8.012  -2.500  22.334  0.00  0.00    +0.111 C 
ATOM     10  N   UNL     1       8.025   0.489  23.011  0.00  0.00    -0.232 N 
ATOM     11  H   UNL     1       7.666   1.391  23.293  0.00  0.00    +0.245 HD
ATOM     12  S   UNL     1       6.387  -2.372  23.129  0.00  0.00    -0.151 S 
ENDROOT
BRANCH   1  13
ATOM     13  C   UNL     1       7.173  -2.048  25.772  0.00  0.00    +0.017 C 
BRANCH  13  14
ATOM     14  C   UNL     1       6.252  -3.267  25.933  0.00  0.00    +0.002 C 
BRANCH  14  15
ATOM     15  C   UNL     1       7.029  -4.544  26.262  0.00  0.00    +0.011 C 
BRANCH  15  16
ATOM     16  C   UNL     1       8.535  -4.272  26.259  0.00  0.00    +0.120 C 
BRANCH  16  17
ATOM     17  C   UNL     1       9.269  -5.110  25.238  0.00  0.00    +0.305 C 
ATOM     18  O   UNL     1       8.837  -5.426  24.140  0.00  0.00    -0.251 OA
BRANCH  17  19
ATOM     19  O   UNL     1      10.493  -5.487  25.673  0.00  0.00    -0.481 OA
ATOM     20  H   UNL     1      10.650  -5.303  26.620  0.00  0.00    +0.295 HD
ENDBRANCH  17  19
ENDBRANCH  16  17
ENDBRANCH  15  16
ENDBRANCH  14  15
ENDBRANCH  13  14
ENDBRANCH   1  13
TORSDOF 6
ENDMDL
