MODEL 1
REMARK VINA RESULT:      -7.5      0.000      0.000
REMARK  Name = 
REMARK  6 active torsions:
REMARK  status: ('A' for Active; 'I' for Inactive)
REMARK    1  A    between atoms: N_1  and  S_2
REMARK    2  A    between atoms: S_2  and  C_5
REMARK    3  A    between atoms: C_11  and  C_12
REMARK    4  A    between atoms: C_12  and  S_13
REMARK    5  A    between atoms: S_13  and  C_14
REMARK    6  A    between atoms: C_14  and  C_15
REMARK                            x       y       z     vdW  Elec       q    Type
REMARK                         _______ _______ _______ _____ _____    ______ ____
ROOT
ATOM      1  C   UNL     1       4.143  -6.432  24.542  0.00  0.00    +0.125 A 
ATOM      2  C   UNL     1       4.683  -5.870  23.380  0.00  0.00    +0.065 A 
ATOM      3  C   UNL     1       5.847  -5.098  23.471  0.00  0.00    +0.181 A 
ATOM      4  C   UNL     1       6.503  -4.880  24.675  0.00  0.00    +0.149 A 
ATOM      5  N   UNL     1       7.638  -4.076  24.750  0.00  0.00    -0.200 N 
ATOM      6  H   UNL     1       8.150  -4.062  25.629  0.00  0.00    +0.298 HD
ATOM      7  C   UNL     1       8.250  -3.522  23.647  0.00  0.00    +0.328 C 
ATOM      8  N   UNL     1       7.860  -3.580  22.418  0.00  0.00    +0.091 NA
ATOM      9  C   UNL     1       5.945  -5.443  25.829  0.00  0.00    +0.073 A 
ATOM     10  S   UNL     1       6.511  -4.363  22.012  0.00  0.00    +0.182 S 
ATOM     11  O   UNL     1       6.876  -5.476  21.159  0.00  0.00    -0.125 OA
ATOM     12  O   UNL     1       5.522  -3.392  21.589  0.00  0.00    -0.125 OA
ATOM     13  C   UNL     1       4.773  -6.217  25.772  0.00  0.00    +0.071 A 
ATOM     14 CL   UNL     1       4.199  -6.853  27.272  0.00  0.00    -0.081 Cl
ENDROOT
BRANCH   1  15
ATOM     15  S   UNL     1       2.638  -7.348  24.420  0.00  0.00    +0.057 S 
ATOM     16  O   UNL     1       2.897  -8.727  24.757  0.00  0.00    -0.153 OA
ATOM     17  O   UNL     1       1.584  -6.590  25.053  0.00  0.00    -0.153 OA
BRANCH  15  18
ATOM     18  N   UNL     1       2.284  -7.291  22.781  0.00  0.00    -0.203 NA
ATOM     19  H   UNL     1       2.663  -6.435  22.371  0.00  0.00    +0.144 HD
ATOM     20  H   UNL     1       2.619  -8.143  22.328  0.00  0.00    +0.144 HD
ENDBRANCH  15  18
ENDBRANCH   1  15
BRANCH   7  21
ATOM     21  C   UNL     1       9.547  -2.756  23.894  0.00  0.00    +0.200 C 
BRANCH  21  22
ATOM     22  S   UNL     1       9.866  -1.599  22.530  0.00  0.00    -0.144 S 
BRANCH  22  23
ATOM     23  C   UNL     1      10.548  -0.185  23.477  0.00  0.00    +0.104 C 
BRANCH  23  24
ATOM     24  C   UNL     1       9.743   1.059  23.188  0.00  0.00    -0.038 A 
ATOM     25  C   UNL     1       8.986   1.165  22.012  0.00  0.00    +0.004 A 
ATOM     26  C   UNL     1       8.177   2.280  21.787  0.00  0.00    +0.000 A 
ATOM     27  C   UNL     1       8.114   3.300  22.734  0.00  0.00    +0.000 A 
ATOM     28  C   UNL     1       8.871   3.214  23.900  0.00  0.00    +0.000 A 
ATOM     29  C   UNL     1       9.684   2.101  24.126  0.00  0.00    +0.004 A 
ENDBRANCH  23  24
ENDBRANCH  22  23
ENDBRANCH  21  22
ENDBRANCH   7  21
TORSDOF 6
ENDMDL
MODEL 2
REMARK VINA RESULT:      -7.4      2.453      3.044
REMARK  Name = 
REMARK  6 active torsions:
REMARK  status: ('A' for Active; 'I' for Inactive)
REMARK    1  A    between atoms: N_1  and  S_2
REMARK    2  A    between atoms: S_2  and  C_5
REMARK    3  A    between atoms: C_11  and  C_12
REMARK    4  A    between atoms: C_12  and  S_13
REMARK    5  A    between atoms: S_13  and  C_14
REMARK    6  A    between atoms: C_14  and  C_15
REMARK                            x       y       z     vdW  Elec       q    Type
REMARK                         _______ _______ _______ _____ _____    ______ ____
ROOT
ATOM      1  C   UNL     1       5.109  -5.500  25.010  0.00  0.00    +0.125 A 
ATOM      2  C   UNL     1       6.446  -5.353  25.396  0.00  0.00    +0.065 A 
ATOM      3  C   UNL     1       7.275  -4.489  24.672  0.00  0.00    +0.181 A 
ATOM      4  C   UNL     1       6.818  -3.753  23.588  0.00  0.00    +0.149 A 
ATOM      5  N   UNL     1       7.670  -2.929  22.856  0.00  0.00    -0.200 N 
ATOM      6  H   UNL     1       7.252  -2.315  22.162  0.00  0.00    +0.298 HD
ATOM      7  C   UNL     1       8.985  -2.702  23.198  0.00  0.00    +0.328 C 
ATOM      8  N   UNL     1       9.653  -3.243  24.161  0.00  0.00    +0.091 NA
ATOM      9  C   UNL     1       5.480  -3.918  23.210  0.00  0.00    +0.073 A 
ATOM     10  S   UNL     1       8.969  -4.327  25.138  0.00  0.00    +0.182 S 
ATOM     11  O   UNL     1       8.942  -3.773  26.477  0.00  0.00    -0.125 OA
ATOM     12  O   UNL     1       9.562  -5.623  24.880  0.00  0.00    -0.125 OA
ATOM     13  C   UNL     1       4.623  -4.784  23.912  0.00  0.00    +0.071 A 
ATOM     14 CL   UNL     1       2.997  -4.886  23.338  0.00  0.00    -0.081 Cl
ENDROOT
BRANCH   1  15
ATOM     15  S   UNL     1       4.093  -6.644  25.893  0.00  0.00    +0.057 S 
ATOM     16  O   UNL     1       3.009  -5.925  26.518  0.00  0.00    -0.153 OA
ATOM     17  O   UNL     1       3.864  -7.799  25.056  0.00  0.00    -0.153 OA
BRANCH  15  18
ATOM     18  N   UNL     1       5.102  -7.192  27.115  0.00  0.00    -0.203 NA
ATOM     19  H   UNL     1       6.078  -7.110  26.825  0.00  0.00    +0.144 HD
ATOM     20  H   UNL     1       4.891  -6.695  27.983  0.00  0.00    +0.144 HD
ENDBRANCH  15  18
ENDBRANCH   1  15
BRANCH   7  21
ATOM     21  C   UNL     1       9.749  -1.687  22.352  0.00  0.00    +0.200 C 
BRANCH  21  22
ATOM     22  S   UNL     1      10.056  -0.173  23.307  0.00  0.00    -0.144 S 
BRANCH  22  23
ATOM     23  C   UNL     1       9.931   1.071  21.965  0.00  0.00    +0.104 C 
BRANCH  23  24
ATOM     24  C   UNL     1       9.039   2.208  22.403  0.00  0.00    -0.038 A 
ATOM     25  C   UNL     1       9.473   3.124  23.373  0.00  0.00    +0.004 A 
ATOM     26  C   UNL     1       8.681   4.221  23.715  0.00  0.00    +0.000 A 
ATOM     27  C   UNL     1       7.450   4.417  23.091  0.00  0.00    +0.000 A 
ATOM     28  C   UNL     1       7.002   3.507  22.137  0.00  0.00    +0.000 A 
ATOM     29  C   UNL     1       7.791   2.407  21.795  0.00  0.00    +0.004 A 
ENDBRANCH  23  24
ENDBRANCH  22  23
ENDBRANCH  21  22
ENDBRANCH   7  21
TORSDOF 6
ENDMDL
MODEL 3
REMARK VINA RESULT:      -7.2      3.679      4.993
REMARK  Name = 
REMARK  6 active torsions:
REMARK  status: ('A' for Active; 'I' for Inactive)
REMARK    1  A    between atoms: N_1  and  S_2
REMARK    2  A    between atoms: S_2  and  C_5
REMARK    3  A    between atoms: C_11  and  C_12
REMARK    4  A    between atoms: C_12  and  S_13
REMARK    5  A    between atoms: S_13  and  C_14
REMARK    6  A    between atoms: C_14  and  C_15
REMARK                            x       y       z     vdW  Elec       q    Type
REMARK                         _______ _______ _______ _____ _____    ______ ____
ROOT
ATOM      1  C   UNL     1       7.506  -3.348  25.390  0.00  0.00    +0.125 A 
ATOM      2  C   UNL     1       8.663  -2.745  24.885  0.00  0.00    +0.065 A 
ATOM      3  C   UNL     1       8.544  -1.621  24.059  0.00  0.00    +0.181 A 
ATOM      4  C   UNL     1       7.315  -1.065  23.733  0.00  0.00    +0.149 A 
ATOM      5  N   UNL     1       7.216   0.030  22.877  0.00  0.00    -0.200 N 
ATOM      6  H   UNL     1       6.306   0.475  22.782  0.00  0.00    +0.298 HD
ATOM      7  C   UNL     1       8.309   0.701  22.374  0.00  0.00    +0.328 C 
ATOM      8  N   UNL     1       9.555   0.406  22.531  0.00  0.00    +0.091 NA
ATOM      9  C   UNL     1       6.167  -1.685  24.240  0.00  0.00    +0.073 A 
ATOM     10  S   UNL     1      10.000  -0.878  23.397  0.00  0.00    +0.182 S 
ATOM     11  O   UNL     1      10.744  -0.410  24.549  0.00  0.00    -0.125 OA
ATOM     12  O   UNL     1      10.560  -1.870  22.500  0.00  0.00    -0.125 OA
ATOM     13  C   UNL     1       6.252  -2.820  25.065  0.00  0.00    +0.071 A 
ATOM     14 CL   UNL     1       4.756  -3.479  25.622  0.00  0.00    -0.081 Cl
ENDROOT
BRANCH   1  15
ATOM     15  S   UNL     1       7.670  -4.804  26.376  0.00  0.00    +0.057 S 
ATOM     16  O   UNL     1       7.135  -4.545  27.690  0.00  0.00    -0.153 OA
ATOM     17  O   UNL     1       7.254  -5.942  25.590  0.00  0.00    -0.153 OA
BRANCH  15  18
ATOM     18  N   UNL     1       9.331  -4.975  26.535  0.00  0.00    -0.203 NA
ATOM     19  H   UNL     1       9.601  -4.873  27.515  0.00  0.00    +0.144 HD
ATOM     20  H   UNL     1       9.626  -5.862  26.121  0.00  0.00    +0.144 HD
ENDBRANCH  15  18
ENDBRANCH   1  15
BRANCH   7  21
ATOM     21  C   UNL     1       8.024   1.946  21.537  0.00  0.00    +0.200 C 
BRANCH  21  22
ATOM     22  S   UNL     1       7.278   3.242  22.570  0.00  0.00    -0.144 S 
BRANCH  22  23
ATOM     23  C   UNL     1       8.373   3.138  24.037  0.00  0.00    +0.104 C 
BRANCH  23  24
ATOM     24  C   UNL     1       9.569   4.041  23.847  0.00  0.00    -0.038 A 
ATOM     25  C   UNL     1       9.496   5.402  24.177  0.00  0.00    +0.004 A 
ATOM     26  C   UNL     1      10.627   6.216  24.080  0.00  0.00    +0.000 A 
ATOM     27  C   UNL     1      11.840   5.679  23.655  0.00  0.00    +0.000 A 
ATOM     28  C   UNL     1      11.922   4.331  23.312  0.00  0.00    +0.000 A 
ATOM     29  C   UNL     1      10.792   3.516  23.405  0.00  0.00    +0.004 A 
ENDBRANCH  23  24
ENDBRANCH  22  23
ENDBRANCH  21  22
ENDBRANCH   7  21
TORSDOF 6
ENDMDL
MODEL 4
REMARK VINA RESULT:      -7.1      2.995      3.576
REMARK  Name = 
REMARK  6 active torsions:
REMARK  status: ('A' for Active; 'I' for Inactive)
REMARK    1  A    between atoms: N_1  and  S_2
REMARK    2  A    between atoms: S_2  and  C_5
REMARK    3  A    between atoms: C_11  and  C_12
REMARK    4  A    between atoms: C_12  and  S_13
REMARK    5  A    between atoms: S_13  and  C_14
REMARK    6  A    between atoms: C_14  and  C_15
REMARK                            x       y       z     vdW  Elec       q    Type
REMARK                         _______ _______ _______ _____ _____    ______ ____
ROOT
ATOM      1  C   UNL     1       5.161  -5.462  25.031  0.00  0.00    +0.125 A 
ATOM      2  C   UNL     1       6.507  -5.383  25.406  0.00  0.00    +0.065 A 
ATOM      3  C   UNL     1       7.358  -4.510  24.719  0.00  0.00    +0.181 A 
ATOM      4  C   UNL     1       6.914  -3.699  23.684  0.00  0.00    +0.149 A 
ATOM      5  N   UNL     1       7.787  -2.865  22.987  0.00  0.00    -0.200 N 
ATOM      6  H   UNL     1       7.383  -2.200  22.333  0.00  0.00    +0.298 HD
ATOM      7  C   UNL     1       9.113  -2.704  23.324  0.00  0.00    +0.328 C 
ATOM      8  N   UNL     1       9.772  -3.321  24.246  0.00  0.00    +0.091 NA
ATOM      9  C   UNL     1       5.567  -3.796  23.316  0.00  0.00    +0.073 A 
ATOM     10  S   UNL     1       9.061  -4.432  25.171  0.00  0.00    +0.182 S 
ATOM     11  O   UNL     1       9.070  -3.953  26.538  0.00  0.00    -0.125 OA
ATOM     12  O   UNL     1       9.605  -5.732  24.833  0.00  0.00    -0.125 OA
ATOM     13  C   UNL     1       4.688  -4.669  23.981  0.00  0.00    +0.071 A 
ATOM     14 CL   UNL     1       3.053  -4.682  23.424  0.00  0.00    -0.081 Cl
ENDROOT
BRANCH   1  15
ATOM     15  S   UNL     1       4.115  -6.617  25.863  0.00  0.00    +0.057 S 
ATOM     16  O   UNL     1       3.017  -5.905  26.469  0.00  0.00    -0.153 OA
ATOM     17  O   UNL     1       3.906  -7.755  24.998  0.00  0.00    -0.153 OA
BRANCH  15  18
ATOM     18  N   UNL     1       5.087  -7.192  27.103  0.00  0.00    -0.203 NA
ATOM     19  H   UNL     1       5.463  -8.109  26.857  0.00  0.00    +0.144 HD
ATOM     20  H   UNL     1       5.808  -6.501  27.322  0.00  0.00    +0.144 HD
ENDBRANCH  15  18
ENDBRANCH   1  15
BRANCH   7  21
ATOM     21  C   UNL     1       9.902  -1.671  22.524  0.00  0.00    +0.200 C 
BRANCH  21  22
ATOM     22  S   UNL     1       8.887  -0.194  22.226  0.00  0.00    -0.144 S 
BRANCH  22  23
ATOM     23  C   UNL     1       9.009   0.603  23.872  0.00  0.00    +0.104 C 
BRANCH  23  24
ATOM     24  C   UNL     1       7.911   0.088  24.772  0.00  0.00    -0.038 A 
ATOM     25  C   UNL     1       6.572   0.121  24.357  0.00  0.00    +0.004 A 
ATOM     26  C   UNL     1       5.569  -0.432  25.156  0.00  0.00    +0.000 A 
ATOM     27  C   UNL     1       5.893  -1.024  26.375  0.00  0.00    +0.000 A 
ATOM     28  C   UNL     1       7.218  -1.051  26.805  0.00  0.00    +0.000 A 
ATOM     29  C   UNL     1       8.222  -0.496  26.010  0.00  0.00    +0.004 A 
ENDBRANCH  23  24
ENDBRANCH  22  23
ENDBRANCH  21  22
ENDBRANCH   7  21
TORSDOF 6
ENDMDL
MODEL 5
REMARK VINA RESULT:      -7.1      4.030      7.751
REMARK  Name = 
REMARK  6 active torsions:
REMARK  status: ('A' for Active; 'I' for Inactive)
REMARK    1  A    between atoms: N_1  and  S_2
REMARK    2  A    between atoms: S_2  and  C_5
REMARK    3  A    between atoms: C_11  and  C_12
REMARK    4  A    between atoms: C_12  and  S_13
REMARK    5  A    between atoms: S_13  and  C_14
REMARK    6  A    between atoms: C_14  and  C_15
REMARK                            x       y       z     vdW  Elec       q    Type
REMARK                         _______ _______ _______ _____ _____    ______ ____
ROOT
ATOM      1  C   UNL     1       8.538   1.320  23.926  0.00  0.00    +0.125 A 
ATOM      2  C   UNL     1       8.894   0.093  23.353  0.00  0.00    +0.065 A 
ATOM      3  C   UNL     1       8.819  -1.070  24.128  0.00  0.00    +0.181 A 
ATOM      4  C   UNL     1       8.386  -1.059  25.446  0.00  0.00    +0.149 A 
ATOM      5  N   UNL     1       8.356  -2.223  26.212  0.00  0.00    -0.200 N 
ATOM      6  H   UNL     1       7.906  -2.177  27.123  0.00  0.00    +0.298 HD
ATOM      7  C   UNL     1       8.652  -3.471  25.708  0.00  0.00    +0.328 C 
ATOM      8  N   UNL     1       9.064  -3.763  24.521  0.00  0.00    +0.091 NA
ATOM      9  C   UNL     1       8.042   0.177  26.006  0.00  0.00    +0.073 A 
ATOM     10  S   UNL     1       9.297  -2.612  23.417  0.00  0.00    +0.182 S 
ATOM     11  O   UNL     1       8.364  -2.834  22.331  0.00  0.00    -0.125 OA
ATOM     12  O   UNL     1      10.719  -2.492  23.166  0.00  0.00    -0.125 OA
ATOM     13  C   UNL     1       8.114   1.365  25.257  0.00  0.00    +0.071 A 
ATOM     14 CL   UNL     1       7.655   2.816  26.074  0.00  0.00    -0.081 Cl
ENDROOT
BRANCH   1  15
ATOM     15  S   UNL     1       8.702   2.787  22.956  0.00  0.00    +0.057 S 
ATOM     16  O   UNL     1       7.388   3.260  22.594  0.00  0.00    -0.153 OA
ATOM     17  O   UNL     1       9.680   3.646  23.581  0.00  0.00    -0.153 OA
BRANCH  15  18
ATOM     18  N   UNL     1       9.442   2.241  21.554  0.00  0.00    -0.203 NA
ATOM     19  H   UNL     1      10.309   1.752  21.783  0.00  0.00    +0.144 HD
ATOM     20  H   UNL     1       8.784   1.673  21.017  0.00  0.00    +0.144 HD
ENDBRANCH  15  18
ENDBRANCH   1  15
BRANCH   7  21
ATOM     21  C   UNL     1       8.466  -4.654  26.655  0.00  0.00    +0.200 C 
BRANCH  21  22
ATOM     22  S   UNL     1       6.778  -4.666  27.325  0.00  0.00    -0.144 S 
BRANCH  22  23
ATOM     23  C   UNL     1       5.985  -5.827  26.148  0.00  0.00    +0.104 C 
BRANCH  23  24
ATOM     24  C   UNL     1       5.657  -5.107  24.862  0.00  0.00    -0.038 A 
ATOM     25  C   UNL     1       5.284  -3.754  24.875  0.00  0.00    +0.004 A 
ATOM     26  C   UNL     1       5.062  -3.069  23.679  0.00  0.00    +0.000 A 
ATOM     27  C   UNL     1       5.211  -3.726  22.459  0.00  0.00    +0.000 A 
ATOM     28  C   UNL     1       5.566  -5.072  22.433  0.00  0.00    +0.000 A 
ATOM     29  C   UNL     1       5.786  -5.761  23.628  0.00  0.00    +0.004 A 
ENDBRANCH  23  24
ENDBRANCH  22  23
ENDBRANCH  21  22
ENDBRANCH   7  21
TORSDOF 6
ENDMDL
MODEL 6
REMARK VINA RESULT:      -7.0      3.828      5.362
REMARK  Name = 
REMARK  6 active torsions:
REMARK  status: ('A' for Active; 'I' for Inactive)
REMARK    1  A    between atoms: N_1  and  S_2
REMARK    2  A    between atoms: S_2  and  C_5
REMARK    3  A    between atoms: C_11  and  C_12
REMARK    4  A    between atoms: C_12  and  S_13
REMARK    5  A    between atoms: S_13  and  C_14
REMARK    6  A    between atoms: C_14  and  C_15
REMARK                            x       y       z     vdW  Elec       q    Type
REMARK                         _______ _______ _______ _____ _____    ______ ____
ROOT
ATOM      1  C   UNL     1       7.464  -3.556  24.904  0.00  0.00    +0.125 A 
ATOM      2  C   UNL     1       7.280  -2.531  25.838  0.00  0.00    +0.065 A 
ATOM      3  C   UNL     1       6.821  -1.283  25.401  0.00  0.00    +0.181 A 
ATOM      4  C   UNL     1       6.521  -1.024  24.070  0.00  0.00    +0.149 A 
ATOM      5  N   UNL     1       6.104   0.237  23.650  0.00  0.00    -0.200 N 
ATOM      6  H   UNL     1       5.772   0.330  22.693  0.00  0.00    +0.298 HD
ATOM      7  C   UNL     1       5.861   1.283  24.514  0.00  0.00    +0.328 C 
ATOM      8  N   UNL     1       6.042   1.307  25.792  0.00  0.00    +0.091 NA
ATOM      9  C   UNL     1       6.719  -2.058  23.148  0.00  0.00    +0.073 A 
ATOM     10  S   UNL     1       6.618   0.020  26.572  0.00  0.00    +0.182 S 
ATOM     11  O   UNL     1       5.594  -0.448  27.486  0.00  0.00    -0.125 OA
ATOM     12  O   UNL     1       7.954   0.323  27.042  0.00  0.00    -0.125 OA
ATOM     13  C   UNL     1       7.187  -3.321  23.553  0.00  0.00    +0.071 A 
ATOM     14 CL   UNL     1       7.380  -4.504  22.309  0.00  0.00    -0.081 Cl
ENDROOT
BRANCH   1  15
ATOM     15  S   UNL     1       8.107  -5.105  25.460  0.00  0.00    +0.057 S 
ATOM     16  O   UNL     1       7.008  -5.985  25.774  0.00  0.00    -0.153 OA
ATOM     17  O   UNL     1       9.179  -5.503  24.578  0.00  0.00    -0.153 OA
BRANCH  15  18
ATOM     18  N   UNL     1       8.862  -4.710  26.905  0.00  0.00    -0.203 NA
ATOM     19  H   UNL     1       8.652  -5.415  27.614  0.00  0.00    +0.144 HD
ATOM     20  H   UNL     1       9.863  -4.579  26.744  0.00  0.00    +0.144 HD
ENDBRANCH  15  18
ENDBRANCH   1  15
BRANCH   7  21
ATOM     21  C   UNL     1       5.305   2.565  23.900  0.00  0.00    +0.200 C 
BRANCH  21  22
ATOM     22  S   UNL     1       6.244   3.009  22.410  0.00  0.00    -0.144 S 
BRANCH  22  23
ATOM     23  C   UNL     1       7.849   3.454  23.178  0.00  0.00    +0.104 C 
BRANCH  23  24
ATOM     24  C   UNL     1       8.790   2.275  23.116  0.00  0.00    -0.038 A 
ATOM     25  C   UNL     1       9.456   1.831  24.268  0.00  0.00    +0.004 A 
ATOM     26  C   UNL     1      10.260   0.690  24.226  0.00  0.00    +0.000 A 
ATOM     27  C   UNL     1      10.405  -0.019  23.035  0.00  0.00    +0.000 A 
ATOM     28  C   UNL     1       9.759   0.419  21.882  0.00  0.00    +0.000 A 
ATOM     29  C   UNL     1       8.958   1.561  21.920  0.00  0.00    +0.004 A 
ENDBRANCH  23  24
ENDBRANCH  22  23
ENDBRANCH  21  22
ENDBRANCH   7  21
TORSDOF 6
ENDMDL
MODEL 7
REMARK VINA RESULT:      -7.0      5.487      9.563
REMARK  Name = 
REMARK  6 active torsions:
REMARK  status: ('A' for Active; 'I' for Inactive)
REMARK    1  A    between atoms: N_1  and  S_2
REMARK    2  A    between atoms: S_2  and  C_5
REMARK    3  A    between atoms: C_11  and  C_12
REMARK    4  A    between atoms: C_12  and  S_13
REMARK    5  A    between atoms: S_13  and  C_14
REMARK    6  A    between atoms: C_14  and  C_15
REMARK                            x       y       z     vdW  Elec       q    Type
REMARK                         _______ _______ _______ _____ _____    ______ ____
ROOT
ATOM      1  C   UNL     1       9.080   4.370  24.338  0.00  0.00    +0.125 A 
ATOM      2  C   UNL     1       9.798   3.229  23.964  0.00  0.00    +0.065 A 
ATOM      3  C   UNL     1       9.386   1.978  24.436  0.00  0.00    +0.181 A 
ATOM      4  C   UNL     1       8.274   1.819  25.251  0.00  0.00    +0.149 A 
ATOM      5  N   UNL     1       7.904   0.568  25.742  0.00  0.00    -0.200 N 
ATOM      6  H   UNL     1       7.010   0.495  26.221  0.00  0.00    +0.298 HD
ATOM      7  C   UNL     1       8.536  -0.604  25.387  0.00  0.00    +0.328 C 
ATOM      8  N   UNL     1       9.577  -0.741  24.637  0.00  0.00    +0.091 NA
ATOM      9  C   UNL     1       7.572   2.972  25.623  0.00  0.00    +0.073 A 
ATOM     10  S   UNL     1      10.308   0.541  23.991  0.00  0.00    +0.182 S 
ATOM     11  O   UNL     1      10.191   0.447  22.549  0.00  0.00    -0.125 OA
ATOM     12  O   UNL     1      11.601   0.706  24.624  0.00  0.00    -0.125 OA
ATOM     13  C   UNL     1       7.965   4.244  25.172  0.00  0.00    +0.071 A 
ATOM     14 CL   UNL     1       7.004   5.577  25.706  0.00  0.00    -0.081 Cl
ENDROOT
BRANCH   1  15
ATOM     15  S   UNL     1       9.652   5.949  23.789  0.00  0.00    +0.057 S 
ATOM     16  O   UNL     1       8.737   6.463  22.799  0.00  0.00    -0.153 OA
ATOM     17  O   UNL     1      10.045   6.724  24.943  0.00  0.00    -0.153 OA
BRANCH  15  18
ATOM     18  N   UNL     1      11.088   5.586  23.004  0.00  0.00    -0.203 NA
ATOM     19  H   UNL     1      10.903   5.000  22.188  0.00  0.00    +0.144 HD
ATOM     20  H   UNL     1      11.585   6.451  22.781  0.00  0.00    +0.144 HD
ENDBRANCH  15  18
ENDBRANCH   1  15
BRANCH   7  21
ATOM     21  C   UNL     1       7.936  -1.898  25.931  0.00  0.00    +0.200 C 
BRANCH  21  22
ATOM     22  S   UNL     1       8.761  -3.336  25.188  0.00  0.00    -0.144 S 
BRANCH  22  23
ATOM     23  C   UNL     1       7.470  -4.609  25.462  0.00  0.00    +0.104 C 
BRANCH  23  24
ATOM     24  C   UNL     1       6.868  -5.019  24.141  0.00  0.00    -0.038 A 
ATOM     25  C   UNL     1       7.671  -5.147  22.997  0.00  0.00    +0.004 A 
ATOM     26  C   UNL     1       7.126  -5.607  21.797  0.00  0.00    +0.000 A 
ATOM     27  C   UNL     1       5.776  -5.945  21.726  0.00  0.00    +0.000 A 
ATOM     28  C   UNL     1       4.965  -5.810  22.850  0.00  0.00    +0.000 A 
ATOM     29  C   UNL     1       5.506  -5.347  24.051  0.00  0.00    +0.004 A 
ENDBRANCH  23  24
ENDBRANCH  22  23
ENDBRANCH  21  22
ENDBRANCH   7  21
TORSDOF 6
ENDMDL
MODEL 8
REMARK VINA RESULT:      -6.9      2.902      3.699
REMARK  Name = 
REMARK  6 active torsions:
REMARK  status: ('A' for Active; 'I' for Inactive)
REMARK    1  A    between atoms: N_1  and  S_2
REMARK    2  A    between atoms: S_2  and  C_5
REMARK    3  A    between atoms: C_11  and  C_12
REMARK    4  A    between atoms: C_12  and  S_13
REMARK    5  A    between atoms: S_13  and  C_14
REMARK    6  A    between atoms: C_14  and  C_15
REMARK                            x       y       z     vdW  Elec       q    Type
REMARK                         _______ _______ _______ _____ _____    ______ ____
ROOT
ATOM      1  C   UNL     1       5.478  -4.777  23.474  0.00  0.00    +0.125 A 
ATOM      2  C   UNL     1       5.755  -3.814  24.450  0.00  0.00    +0.065 A 
ATOM      3  C   UNL     1       6.855  -2.964  24.278  0.00  0.00    +0.181 A 
ATOM      4  C   UNL     1       7.678  -3.028  23.162  0.00  0.00    +0.149 A 
ATOM      5  N   UNL     1       8.791  -2.200  23.031  0.00  0.00    -0.200 N 
ATOM      6  H   UNL     1       9.275  -2.198  22.136  0.00  0.00    +0.298 HD
ATOM      7  C   UNL     1       9.104  -1.202  23.927  0.00  0.00    +0.328 C 
ATOM      8  N   UNL     1       8.502  -0.919  25.033  0.00  0.00    +0.091 NA
ATOM      9  C   UNL     1       7.391  -4.003  22.200  0.00  0.00    +0.073 A 
ATOM     10  S   UNL     1       7.224  -1.770  25.522  0.00  0.00    +0.182 S 
ATOM     11  O   UNL     1       6.077  -0.884  25.550  0.00  0.00    -0.125 OA
ATOM     12  O   UNL     1       7.599  -2.539  26.691  0.00  0.00    -0.125 OA
ATOM     13  C   UNL     1       6.299  -4.877  22.346  0.00  0.00    +0.071 A 
ATOM     14 CL   UNL     1       6.062  -6.027  21.079  0.00  0.00    -0.081 Cl
ENDROOT
BRANCH   1  15
ATOM     15  S   UNL     1       4.127  -5.885  23.736  0.00  0.00    +0.057 S 
ATOM     16  O   UNL     1       3.179  -5.734  22.659  0.00  0.00    -0.153 OA
ATOM     17  O   UNL     1       4.655  -7.174  24.116  0.00  0.00    -0.153 OA
BRANCH  15  18
ATOM     18  N   UNL     1       3.405  -5.288  25.127  0.00  0.00    -0.203 NA
ATOM     19  H   UNL     1       3.646  -4.304  25.252  0.00  0.00    +0.144 HD
ATOM     20  H   UNL     1       2.399  -5.461  25.093  0.00  0.00    +0.144 HD
ENDBRANCH  15  18
ENDBRANCH   1  15
BRANCH   7  21
ATOM     21  C   UNL     1      10.297  -0.315  23.577  0.00  0.00    +0.200 C 
BRANCH  21  22
ATOM     22  S   UNL     1       9.789   1.000  22.432  0.00  0.00    -0.144 S 
BRANCH  22  23
ATOM     23  C   UNL     1       9.072   2.191  23.627  0.00  0.00    +0.104 C 
BRANCH  23  24
ATOM     24  C   UNL     1       9.929   3.432  23.691  0.00  0.00    -0.038 A 
ATOM     25  C   UNL     1      11.282   3.387  23.319  0.00  0.00    +0.004 A 
ATOM     26  C   UNL     1      12.050   4.552  23.299  0.00  0.00    +0.000 A 
ATOM     27  C   UNL     1      11.478   5.773  23.647  0.00  0.00    +0.000 A 
ATOM     28  C   UNL     1      10.140   5.829  24.031  0.00  0.00    +0.000 A 
ATOM     29  C   UNL     1       9.370   4.666  24.056  0.00  0.00    +0.004 A 
ENDBRANCH  23  24
ENDBRANCH  22  23
ENDBRANCH  21  22
ENDBRANCH   7  21
TORSDOF 6
ENDMDL
MODEL 9
REMARK VINA RESULT:      -6.9      3.875      5.050
REMARK  Name = 
REMARK  6 active torsions:
REMARK  status: ('A' for Active; 'I' for Inactive)
REMARK    1  A    between atoms: N_1  and  S_2
REMARK    2  A    between atoms: S_2  and  C_5
REMARK    3  A    between atoms: C_11  and  C_12
REMARK    4  A    between atoms: C_12  and  S_13
REMARK    5  A    between atoms: S_13  and  C_14
REMARK    6  A    between atoms: C_14  and  C_15
REMARK                            x       y       z     vdW  Elec       q    Type
REMARK                         _______ _______ _______ _____ _____    ______ ____
ROOT
ATOM      1  C   UNL     1       6.575  -3.782  26.008  0.00  0.00    +0.125 A 
ATOM      2  C   UNL     1       5.906  -2.671  26.533  0.00  0.00    +0.065 A 
ATOM      3  C   UNL     1       5.854  -1.489  25.785  0.00  0.00    +0.181 A 
ATOM      4  C   UNL     1       6.428  -1.378  24.527  0.00  0.00    +0.149 A 
ATOM      5  N   UNL     1       6.399  -0.180  23.816  0.00  0.00    -0.200 N 
ATOM      6  H   UNL     1       6.716  -0.196  22.850  0.00  0.00    +0.298 HD
ATOM      7  C   UNL     1       5.727   0.942  24.248  0.00  0.00    +0.328 C 
ATOM      8  N   UNL     1       5.101   1.104  25.365  0.00  0.00    +0.091 NA
ATOM      9  C   UNL     1       7.101  -2.497  24.020  0.00  0.00    +0.073 A 
ATOM     10  S   UNL     1       5.038  -0.077  26.459  0.00  0.00    +0.182 S 
ATOM     11  O   UNL     1       3.653  -0.477  26.610  0.00  0.00    -0.125 OA
ATOM     12  O   UNL     1       5.831   0.311  27.607  0.00  0.00    -0.125 OA
ATOM     13  C   UNL     1       7.178  -3.696  24.750  0.00  0.00    +0.071 A 
ATOM     14 CL   UNL     1       8.035  -4.995  24.001  0.00  0.00    -0.081 Cl
ENDROOT
BRANCH   1  15
ATOM     15  S   UNL     1       6.690  -5.245  26.992  0.00  0.00    +0.057 S 
ATOM     16  O   UNL     1       6.273  -4.940  28.339  0.00  0.00    -0.153 OA
ATOM     17  O   UNL     1       6.126  -6.347  26.246  0.00  0.00    -0.153 OA
BRANCH  15  18
ATOM     18  N   UNL     1       8.338  -5.552  27.033  0.00  0.00    -0.203 NA
ATOM     19  H   UNL     1       8.511  -6.550  26.903  0.00  0.00    +0.144 HD
ATOM     20  H   UNL     1       8.814  -4.963  26.347  0.00  0.00    +0.144 HD
ENDBRANCH  15  18
ENDBRANCH   1  15
BRANCH   7  21
ATOM     21  C   UNL     1       5.705   2.137  23.298  0.00  0.00    +0.200 C 
BRANCH  21  22
ATOM     22  S   UNL     1       7.084   3.261  23.667  0.00  0.00    -0.144 S 
BRANCH  22  23
ATOM     23  C   UNL     1       8.151   2.929  22.213  0.00  0.00    +0.104 C 
BRANCH  23  24
ATOM     24  C   UNL     1       8.970   1.684  22.453  0.00  0.00    -0.038 A 
ATOM     25  C   UNL     1       9.592   1.464  23.691  0.00  0.00    +0.004 A 
ATOM     26  C   UNL     1      10.279   0.274  23.938  0.00  0.00    +0.000 A 
ATOM     27  C   UNL     1      10.349  -0.709  22.954  0.00  0.00    +0.000 A 
ATOM     28  C   UNL     1       9.747  -0.498  21.715  0.00  0.00    +0.000 A 
ATOM     29  C   UNL     1       9.063   0.693  21.464  0.00  0.00    +0.004 A 
ENDBRANCH  23  24
ENDBRANCH  22  23
ENDBRANCH  21  22
ENDBRANCH   7  21
TORSDOF 6
ENDMDL
