MODEL 1
REMARK VINA RESULT:      -7.4      0.000      0.000
REMARK  Name = 
REMARK  7 active torsions:
REMARK  status: ('A' for Active; 'I' for Inactive)
REMARK    1  A    between atoms: O_1  and  C_2
REMARK    2  A    between atoms: C_2  and  C_3
REMARK    3  A    between atoms: C_6  and  C_21
REMARK    4  A    between atoms: C_11  and  C_13
REMARK    5  A    between atoms: C_13  and  P_14
REMARK    6  A    between atoms: P_14  and  O_15
REMARK    7  A    between atoms: P_14  and  O_16
REMARK                            x       y       z     vdW  Elec       q    Type
REMARK                         _______ _______ _______ _____ _____    ______ ____
ROOT
ATOM      1  C   UNL     1       7.244  -1.923  24.437  0.00  0.00    +0.176 C 
ATOM      2  C   UNL     1       7.002  -1.663  22.953  0.00  0.00    +0.184 C 
ATOM      3  C   UNL     1       7.821  -2.727  22.288  0.00  0.00    +0.186 C 
ATOM      4  O   UNL     1       9.106  -2.073  22.214  0.00  0.00    -0.342 OA
ATOM      5  C   UNL     1       8.805  -0.680  21.969  0.00  0.00    +0.263 C 
ATOM      6  C   UNL     1       7.823  -3.886  23.286  0.00  0.00    +0.184 C 
ATOM      7  O   UNL     1       7.553  -0.388  22.576  0.00  0.00    -0.342 OA
ATOM      8  O   UNL     1       7.696  -3.283  24.593  0.00  0.00    -0.361 OA
ENDROOT
BRANCH   6   9
ATOM      9  C   UNL     1       6.762  -4.934  23.182  0.00  0.00    +0.025 A 
ATOM     10  C   UNL     1       6.173  -5.587  24.311  0.00  0.00    +0.076 A 
ATOM     11  N   UNL     1       6.439  -5.492  25.613  0.00  0.00    -0.344 N 
ATOM     12  H   UNL     1       7.127  -4.855  26.003  0.00  0.00    +0.167 HD
ATOM     13  C   UNL     1       5.574  -6.173  26.435  0.00  0.00    +0.201 A 
ATOM     14  N   UNL     1       4.574  -6.926  26.120  0.00  0.00    -0.198 NA
ATOM     15  C   UNL     1       4.260  -7.106  24.791  0.00  0.00    +0.297 A 
ATOM     16  O   UNL     1       3.330  -7.795  24.387  0.00  0.00    -0.264 OA
ATOM     17  C   UNL     1       5.129  -6.377  23.896  0.00  0.00    +0.130 A 
ATOM     18  N   UNL     1       5.063  -6.286  22.531  0.00  0.00    -0.355 N 
ATOM     19  H   UNL     1       4.344  -6.728  21.969  0.00  0.00    +0.166 HD
ATOM     20  C   UNL     1       6.034  -5.409  22.098  0.00  0.00    +0.091 A 
ENDBRANCH   6   9
BRANCH   1  21
ATOM     21  C   UNL     1       5.965  -1.676  25.234  0.00  0.00    +0.190 C 
BRANCH  21  22
ATOM     22  O   UNL     1       5.237  -0.567  24.718  0.00  0.00    -0.392 OA
ATOM     23  H   UNL     1       5.885   0.140  24.556  0.00  0.00    +0.210 HD
ENDBRANCH  21  22
ENDBRANCH   1  21
BRANCH   5  24
ATOM     24  C   UNL     1      10.008   0.234  22.421  0.00  0.00    +0.188 C 
BRANCH  24  25
ATOM     25  P   UNL     1       9.057   1.785  22.214  0.00  0.00    +0.333 P 
ATOM     26  O   UNL     1       8.254   3.097  22.040  0.00  0.00    -0.259 OA
BRANCH  25  27
ATOM     27  O   UNL     1       8.720   1.193  20.718  0.00  0.00    -0.324 OA
ATOM     28  H   UNL     1       7.787   1.380  20.492  0.00  0.00    +0.220 HD
ENDBRANCH  25  27
BRANCH  25  29
ATOM     29  O   UNL     1      10.471   2.551  21.852  0.00  0.00    -0.324 OA
ATOM     30  H   UNL     1      10.749   2.710  20.936  0.00  0.00    +0.220 HD
ENDBRANCH  25  29
ENDBRANCH  24  25
ENDBRANCH   5  24
TORSDOF 7
ENDMDL
MODEL 2
REMARK VINA RESULT:      -7.3      2.465      3.063
REMARK  Name = 
REMARK  7 active torsions:
REMARK  status: ('A' for Active; 'I' for Inactive)
REMARK    1  A    between atoms: O_1  and  C_2
REMARK    2  A    between atoms: C_2  and  C_3
REMARK    3  A    between atoms: C_6  and  C_21
REMARK    4  A    between atoms: C_11  and  C_13
REMARK    5  A    between atoms: C_13  and  P_14
REMARK    6  A    between atoms: P_14  and  O_15
REMARK    7  A    between atoms: P_14  and  O_16
REMARK                            x       y       z     vdW  Elec       q    Type
REMARK                         _______ _______ _______ _____ _____    ______ ____
ROOT
ATOM      1  C   UNL     1       6.645  -2.404  23.386  0.00  0.00    +0.176 C 
ATOM      2  C   UNL     1       7.986  -2.941  22.896  0.00  0.00    +0.184 C 
ATOM      3  C   UNL     1       8.930  -2.532  23.986  0.00  0.00    +0.186 C 
ATOM      4  O   UNL     1       9.281  -1.199  23.553  0.00  0.00    -0.342 OA
ATOM      5  C   UNL     1       9.321  -1.271  22.110  0.00  0.00    +0.263 C 
ATOM      6  C   UNL     1       8.069  -2.515  25.249  0.00  0.00    +0.184 C 
ATOM      7  O   UNL     1       8.386  -2.258  21.693  0.00  0.00    -0.342 OA
ATOM      8  O   UNL     1       6.727  -2.203  24.811  0.00  0.00    -0.361 OA
ENDROOT
BRANCH   6   9
ATOM      9  C   UNL     1       7.979  -3.754  26.082  0.00  0.00    +0.025 A 
ATOM     10  C   UNL     1       6.882  -4.056  26.949  0.00  0.00    +0.076 A 
ATOM     11  N   UNL     1       5.796  -3.349  27.263  0.00  0.00    -0.344 N 
ATOM     12  H   UNL     1       5.574  -2.445  26.857  0.00  0.00    +0.167 HD
ATOM     13  C   UNL     1       4.873  -4.012  28.035  0.00  0.00    +0.201 A 
ATOM     14  N   UNL     1       4.933  -5.202  28.534  0.00  0.00    -0.198 NA
ATOM     15  C   UNL     1       6.042  -5.980  28.287  0.00  0.00    +0.297 A 
ATOM     16  O   UNL     1       6.194  -7.120  28.708  0.00  0.00    -0.264 OA
ATOM     17  C   UNL     1       7.022  -5.327  27.450  0.00  0.00    +0.130 A 
ATOM     18  N   UNL     1       8.200  -5.829  26.965  0.00  0.00    -0.355 N 
ATOM     19  H   UNL     1       8.522  -6.777  27.135  0.00  0.00    +0.166 HD
ATOM     20  C   UNL     1       8.773  -4.894  26.132  0.00  0.00    +0.091 A 
ENDBRANCH   6   9
BRANCH   1  21
ATOM     21  C   UNL     1       5.523  -3.379  23.034  0.00  0.00    +0.190 C 
BRANCH  21  22
ATOM     22  O   UNL     1       5.455  -3.609  21.631  0.00  0.00    -0.392 OA
ATOM     23  H   UNL     1       5.901  -2.856  21.204  0.00  0.00    +0.210 HD
ENDBRANCH  21  22
ENDBRANCH   1  21
BRANCH   5  24
ATOM     24  C   UNL     1       9.123   0.160  21.478  0.00  0.00    +0.188 C 
BRANCH  24  25
ATOM     25  P   UNL     1      10.029   1.006  22.826  0.00  0.00    +0.333 P 
ATOM     26  O   UNL     1      10.795   1.723  23.965  0.00  0.00    -0.259 OA
BRANCH  25  27
ATOM     27  O   UNL     1       8.533   1.466  23.329  0.00  0.00    -0.324 OA
ATOM     28  H   UNL     1       8.580   2.354  23.733  0.00  0.00    +0.220 HD
ENDBRANCH  25  27
BRANCH  25  29
ATOM     29  O   UNL     1      10.321   2.252  21.786  0.00  0.00    -0.324 OA
ATOM     30  H   UNL     1      10.399   2.114  20.828  0.00  0.00    +0.220 HD
ENDBRANCH  25  29
ENDBRANCH  24  25
ENDBRANCH   5  24
TORSDOF 7
ENDMDL
MODEL 3
REMARK VINA RESULT:      -7.3      4.320      7.688
REMARK  Name = 
REMARK  7 active torsions:
REMARK  status: ('A' for Active; 'I' for Inactive)
REMARK    1  A    between atoms: O_1  and  C_2
REMARK    2  A    between atoms: C_2  and  C_3
REMARK    3  A    between atoms: C_6  and  C_21
REMARK    4  A    between atoms: C_11  and  C_13
REMARK    5  A    between atoms: C_13  and  P_14
REMARK    6  A    between atoms: P_14  and  O_15
REMARK    7  A    between atoms: P_14  and  O_16
REMARK                            x       y       z     vdW  Elec       q    Type
REMARK                         _______ _______ _______ _____ _____    ______ ____
ROOT
ATOM      1  C   UNL     1       7.958  -1.379  24.996  0.00  0.00    +0.176 C 
ATOM      2  C   UNL     1       8.922  -2.108  24.065  0.00  0.00    +0.184 C 
ATOM      3  C   UNL     1       8.402  -1.757  22.704  0.00  0.00    +0.186 C 
ATOM      4  O   UNL     1       7.410  -2.790  22.519  0.00  0.00    -0.342 OA
ATOM      5  C   UNL     1       7.965  -3.963  23.154  0.00  0.00    +0.263 C 
ATOM      6  C   UNL     1       7.768  -0.377  22.881  0.00  0.00    +0.184 C 
ATOM      7  O   UNL     1       8.789  -3.532  24.229  0.00  0.00    -0.342 OA
ATOM      8  O   UNL     1       7.319  -0.321  24.254  0.00  0.00    -0.361 OA
ENDROOT
BRANCH   6   9
ATOM      9  C   UNL     1       8.604   0.841  22.645  0.00  0.00    +0.025 A 
ATOM     10  C   UNL     1       8.564   2.009  23.470  0.00  0.00    +0.076 A 
ATOM     11  N   UNL     1       7.798   2.313  24.517  0.00  0.00    -0.344 N 
ATOM     12  H   UNL     1       7.115   1.679  24.920  0.00  0.00    +0.167 HD
ATOM     13  C   UNL     1       8.127   3.482  25.159  0.00  0.00    +0.201 A 
ATOM     14  N   UNL     1       9.041   4.345  24.862  0.00  0.00    -0.198 NA
ATOM     15  C   UNL     1       9.848   4.120  23.768  0.00  0.00    +0.297 A 
ATOM     16  O   UNL     1      10.745   4.871  23.405  0.00  0.00    -0.264 OA
ATOM     17  C   UNL     1       9.552   2.881  23.086  0.00  0.00    +0.130 A 
ATOM     18  N   UNL     1      10.192   2.327  22.010  0.00  0.00    -0.355 N 
ATOM     19  H   UNL     1      11.004   2.739  21.562  0.00  0.00    +0.166 HD
ATOM     20  C   UNL     1       9.635   1.093  21.749  0.00  0.00    +0.091 A 
ENDBRANCH   6   9
BRANCH   1  21
ATOM     21  C   UNL     1       8.708  -0.824  26.206  0.00  0.00    +0.190 C 
BRANCH  21  22
ATOM     22  O   UNL     1       9.787   0.014  25.808  0.00  0.00    -0.392 OA
ATOM     23  H   UNL     1       9.411   0.898  25.654  0.00  0.00    +0.210 HD
ENDBRANCH  21  22
ENDBRANCH   1  21
BRANCH   5  24
ATOM     24  C   UNL     1       6.821  -4.977  23.542  0.00  0.00    +0.188 C 
BRANCH  24  25
ATOM     25  P   UNL     1       6.359  -5.301  21.800  0.00  0.00    +0.333 P 
ATOM     26  O   UNL     1       5.968  -5.575  20.327  0.00  0.00    -0.259 OA
BRANCH  25  27
ATOM     27  O   UNL     1       5.068  -4.337  22.128  0.00  0.00    -0.324 OA
ATOM     28  H   UNL     1       4.552  -4.188  21.312  0.00  0.00    +0.220 HD
ENDBRANCH  25  27
BRANCH  25  29
ATOM     29  O   UNL     1       5.712  -6.737  22.286  0.00  0.00    -0.324 OA
ATOM     30  H   UNL     1       5.220  -7.310  21.677  0.00  0.00    +0.220 HD
ENDBRANCH  25  29
ENDBRANCH  24  25
ENDBRANCH   5  24
TORSDOF 7
ENDMDL
MODEL 4
REMARK VINA RESULT:      -7.0      3.754      7.577
REMARK  Name = 
REMARK  7 active torsions:
REMARK  status: ('A' for Active; 'I' for Inactive)
REMARK    1  A    between atoms: O_1  and  C_2
REMARK    2  A    between atoms: C_2  and  C_3
REMARK    3  A    between atoms: C_6  and  C_21
REMARK    4  A    between atoms: C_11  and  C_13
REMARK    5  A    between atoms: C_13  and  P_14
REMARK    6  A    between atoms: P_14  and  O_15
REMARK    7  A    between atoms: P_14  and  O_16
REMARK                            x       y       z     vdW  Elec       q    Type
REMARK                         _______ _______ _______ _____ _____    ______ ____
ROOT
ATOM      1  C   UNL     1       7.876  -4.205  25.556  0.00  0.00    +0.176 C 
ATOM      2  C   UNL     1       7.359  -4.492  24.150  0.00  0.00    +0.184 C 
ATOM      3  C   UNL     1       6.555  -3.267  23.833  0.00  0.00    +0.186 C 
ATOM      4  O   UNL     1       5.276  -3.629  24.400  0.00  0.00    -0.342 OA
ATOM      5  C   UNL     1       5.151  -5.050  24.167  0.00  0.00    +0.263 C 
ATOM      6  C   UNL     1       7.236  -2.149  24.622  0.00  0.00    +0.184 C 
ATOM      7  O   UNL     1       6.456  -5.613  24.172  0.00  0.00    -0.342 OA
ATOM      8  O   UNL     1       7.824  -2.782  25.781  0.00  0.00    -0.361 OA
ENDROOT
BRANCH   6   9
ATOM      9  C   UNL     1       8.317  -1.352  23.964  0.00  0.00    +0.025 A 
ATOM     10  C   UNL     1       8.080  -0.177  23.183  0.00  0.00    +0.076 A 
ATOM     11  N   UNL     1       6.943   0.414  22.817  0.00  0.00    -0.344 N 
ATOM     12  H   UNL     1       6.023   0.098  23.108  0.00  0.00    +0.167 HD
ATOM     13  C   UNL     1       7.094   1.618  22.172  0.00  0.00    +0.201 A 
ATOM     14  N   UNL     1       8.179   2.230  21.833  0.00  0.00    -0.198 NA
ATOM     15  C   UNL     1       9.396   1.661  22.141  0.00  0.00    +0.297 A 
ATOM     16  O   UNL     1      10.481   2.161  21.869  0.00  0.00    -0.264 OA
ATOM     17  C   UNL     1       9.277   0.409  22.850  0.00  0.00    +0.130 A 
ATOM     18  N   UNL     1      10.273  -0.383  23.355  0.00  0.00    -0.355 N 
ATOM     19  H   UNL     1      11.260  -0.152  23.301  0.00  0.00    +0.166 HD
ATOM     20  C   UNL     1       9.702  -1.436  24.037  0.00  0.00    +0.091 A 
ENDBRANCH   6   9
BRANCH   1  21
ATOM     21  C   UNL     1       9.301  -4.732  25.714  0.00  0.00    +0.190 C 
BRANCH  21  22
ATOM     22  O   UNL     1       9.635  -5.646  24.675  0.00  0.00    -0.392 OA
ATOM     23  H   UNL     1      10.233  -6.307  25.068  0.00  0.00    +0.210 HD
ENDBRANCH  21  22
ENDBRANCH   1  21
BRANCH   5  24
ATOM     24  C   UNL     1       4.133  -5.690  25.188  0.00  0.00    +0.188 C 
BRANCH  24  25
ATOM     25  P   UNL     1       3.056  -6.364  23.869  0.00  0.00    +0.333 P 
ATOM     26  O   UNL     1       2.146  -6.933  22.753  0.00  0.00    -0.259 OA
BRANCH  25  27
ATOM     27  O   UNL     1       4.177  -7.564  23.785  0.00  0.00    -0.324 OA
ATOM     28  H   UNL     1       3.774  -8.411  24.056  0.00  0.00    +0.220 HD
ENDBRANCH  25  27
BRANCH  25  29
ATOM     29  O   UNL     1       3.761  -5.308  22.817  0.00  0.00    -0.324 OA
ATOM     30  H   UNL     1       3.503  -4.373  22.778  0.00  0.00    +0.220 HD
ENDBRANCH  25  29
ENDBRANCH  24  25
ENDBRANCH   5  24
TORSDOF 7
ENDMDL
MODEL 5
REMARK VINA RESULT:      -6.9      4.456      7.777
REMARK  Name = 
REMARK  7 active torsions:
REMARK  status: ('A' for Active; 'I' for Inactive)
REMARK    1  A    between atoms: O_1  and  C_2
REMARK    2  A    between atoms: C_2  and  C_3
REMARK    3  A    between atoms: C_6  and  C_21
REMARK    4  A    between atoms: C_11  and  C_13
REMARK    5  A    between atoms: C_13  and  P_14
REMARK    6  A    between atoms: P_14  and  O_15
REMARK    7  A    between atoms: P_14  and  O_16
REMARK                            x       y       z     vdW  Elec       q    Type
REMARK                         _______ _______ _______ _____ _____    ______ ____
ROOT
ATOM      1  C   UNL     1       8.978  -1.978  23.485  0.00  0.00    +0.176 C 
ATOM      2  C   UNL     1       7.939  -2.178  22.386  0.00  0.00    +0.184 C 
ATOM      3  C   UNL     1       6.759  -1.407  22.896  0.00  0.00    +0.186 C 
ATOM      4  O   UNL     1       6.115  -2.409  23.714  0.00  0.00    -0.342 OA
ATOM      5  C   UNL     1       6.325  -3.657  23.016  0.00  0.00    +0.263 C 
ATOM      6  C   UNL     1       7.370  -0.286  23.736  0.00  0.00    +0.184 C 
ATOM      7  O   UNL     1       7.556  -3.563  22.310  0.00  0.00    -0.342 OA
ATOM      8  O   UNL     1       8.619  -0.807  24.245  0.00  0.00    -0.361 OA
ENDROOT
BRANCH   6   9
ATOM      9  C   UNL     1       7.676   1.025  23.084  0.00  0.00    +0.025 A 
ATOM     10  C   UNL     1       6.732   2.093  22.956  0.00  0.00    +0.076 A 
ATOM     11  N   UNL     1       5.443   2.164  23.288  0.00  0.00    -0.344 N 
ATOM     12  H   UNL     1       4.938   1.416  23.752  0.00  0.00    +0.167 HD
ATOM     13  C   UNL     1       4.873   3.406  23.144  0.00  0.00    +0.201 A 
ATOM     14  N   UNL     1       5.398   4.495  22.690  0.00  0.00    -0.198 NA
ATOM     15  C   UNL     1       6.715   4.490  22.288  0.00  0.00    +0.297 A 
ATOM     16  O   UNL     1       7.308   5.469  21.849  0.00  0.00    -0.264 OA
ATOM     17  C   UNL     1       7.359   3.208  22.457  0.00  0.00    +0.130 A 
ATOM     18  N   UNL     1       8.664   2.871  22.217  0.00  0.00    -0.355 N 
ATOM     19  H   UNL     1       9.368   3.529  21.897  0.00  0.00    +0.166 HD
ATOM     20  C   UNL     1       8.864   1.564  22.605  0.00  0.00    +0.091 A 
ENDBRANCH   6   9
BRANCH   1  21
ATOM     21  C   UNL     1      10.371  -1.830  22.877  0.00  0.00    +0.190 C 
BRANCH  21  22
ATOM     22  O   UNL     1      10.303  -1.548  21.484  0.00  0.00    -0.392 OA
ATOM     23  H   UNL     1      10.316  -0.578  21.396  0.00  0.00    +0.210 HD
ENDBRANCH  21  22
ENDBRANCH   1  21
BRANCH   5  24
ATOM     24  C   UNL     1       6.205  -4.875  24.010  0.00  0.00    +0.188 C 
BRANCH  24  25
ATOM     25  P   UNL     1       4.593  -5.417  23.332  0.00  0.00    +0.333 P 
ATOM     26  O   UNL     1       3.230  -5.876  22.759  0.00  0.00    -0.259 OA
BRANCH  25  27
ATOM     27  O   UNL     1       5.469  -6.626  22.642  0.00  0.00    -0.324 OA
ATOM     28  H   UNL     1       6.363  -6.300  22.422  0.00  0.00    +0.220 HD
ENDBRANCH  25  27
BRANCH  25  29
ATOM     29  O   UNL     1       4.766  -4.291  22.141  0.00  0.00    -0.324 OA
ATOM     30  H   UNL     1       4.334  -4.387  21.277  0.00  0.00    +0.220 HD
ENDBRANCH  25  29
ENDBRANCH  24  25
ENDBRANCH   5  24
TORSDOF 7
ENDMDL
MODEL 6
REMARK VINA RESULT:      -6.9      4.137      7.963
REMARK  Name = 
REMARK  7 active torsions:
REMARK  status: ('A' for Active; 'I' for Inactive)
REMARK    1  A    between atoms: O_1  and  C_2
REMARK    2  A    between atoms: C_2  and  C_3
REMARK    3  A    between atoms: C_6  and  C_21
REMARK    4  A    between atoms: C_11  and  C_13
REMARK    5  A    between atoms: C_13  and  P_14
REMARK    6  A    between atoms: P_14  and  O_15
REMARK    7  A    between atoms: P_14  and  O_16
REMARK                            x       y       z     vdW  Elec       q    Type
REMARK                         _______ _______ _______ _____ _____    ______ ____
ROOT
ATOM      1  C   UNL     1       8.805  -4.375  26.462  0.00  0.00    +0.176 C 
ATOM      2  C   UNL     1       7.435  -4.776  25.925  0.00  0.00    +0.184 C 
ATOM      3  C   UNL     1       6.592  -3.575  26.227  0.00  0.00    +0.186 C 
ATOM      4  O   UNL     1       6.172  -3.872  27.577  0.00  0.00    -0.342 OA
ATOM      5  C   UNL     1       5.996  -5.306  27.609  0.00  0.00    +0.263 C 
ATOM      6  C   UNL     1       7.569  -2.400  26.176  0.00  0.00    +0.184 C 
ATOM      7  O   UNL     1       6.908  -5.881  26.682  0.00  0.00    -0.342 OA
ATOM      8  O   UNL     1       8.856  -2.938  26.557  0.00  0.00    -0.361 OA
ENDROOT
BRANCH   6   9
ATOM      9  C   UNL     1       7.764  -1.675  24.882  0.00  0.00    +0.025 A 
ATOM     10  C   UNL     1       8.784  -0.696  24.662  0.00  0.00    +0.076 A 
ATOM     11  N   UNL     1       9.690  -0.176  25.490  0.00  0.00    -0.344 N 
ATOM     12  H   UNL     1       9.804  -0.467  26.456  0.00  0.00    +0.167 HD
ATOM     13  C   UNL     1      10.611   0.653  24.898  0.00  0.00    +0.201 A 
ATOM     14  N   UNL     1      10.692   1.033  23.666  0.00  0.00    -0.198 NA
ATOM     15  C   UNL     1       9.766   0.570  22.758  0.00  0.00    +0.297 A 
ATOM     16  O   UNL     1       9.757   0.865  21.568  0.00  0.00    -0.264 OA
ATOM     17  C   UNL     1       8.799  -0.332  23.338  0.00  0.00    +0.130 A 
ATOM     18  N   UNL     1       7.789  -1.015  22.715  0.00  0.00    -0.355 N 
ATOM     19  H   UNL     1       7.612  -0.975  21.716  0.00  0.00    +0.166 HD
ATOM     20  C   UNL     1       7.171  -1.834  23.635  0.00  0.00    +0.091 A 
ENDBRANCH   6   9
BRANCH   1  21
ATOM     21  C   UNL     1       9.909  -4.903  25.547  0.00  0.00    +0.190 C 
BRANCH  21  22
ATOM     22  O   UNL     1       9.426  -5.931  24.691  0.00  0.00    -0.392 OA
ATOM     23  H   UNL     1      10.168  -6.184  24.113  0.00  0.00    +0.210 HD
ENDBRANCH  21  22
ENDBRANCH   1  21
BRANCH   5  24
ATOM     24  C   UNL     1       6.102  -5.845  29.087  0.00  0.00    +0.188 C 
BRANCH  24  25
ATOM     25  P   UNL     1       4.451  -6.633  29.041  0.00  0.00    +0.333 P 
ATOM     26  O   UNL     1       3.053  -7.299  29.002  0.00  0.00    -0.259 OA
BRANCH  25  27
ATOM     27  O   UNL     1       5.233  -7.864  28.283  0.00  0.00    -0.324 OA
ATOM     28  H   UNL     1       5.649  -7.534  27.462  0.00  0.00    +0.220 HD
ENDBRANCH  25  27
BRANCH  25  29
ATOM     29  O   UNL     1       4.102  -5.721  27.713  0.00  0.00    -0.324 OA
ATOM     30  H   UNL     1       3.933  -6.121  26.845  0.00  0.00    +0.220 HD
ENDBRANCH  25  29
ENDBRANCH  24  25
ENDBRANCH   5  24
TORSDOF 7
ENDMDL
MODEL 7
REMARK VINA RESULT:      -6.7      4.047      7.707
REMARK  Name = 
REMARK  7 active torsions:
REMARK  status: ('A' for Active; 'I' for Inactive)
REMARK    1  A    between atoms: O_1  and  C_2
REMARK    2  A    between atoms: C_2  and  C_3
REMARK    3  A    between atoms: C_6  and  C_21
REMARK    4  A    between atoms: C_11  and  C_13
REMARK    5  A    between atoms: C_13  and  P_14
REMARK    6  A    between atoms: P_14  and  O_15
REMARK    7  A    between atoms: P_14  and  O_16
REMARK                            x       y       z     vdW  Elec       q    Type
REMARK                         _______ _______ _______ _____ _____    ______ ____
ROOT
ATOM      1  C   UNL     1       6.647  -3.517  23.907  0.00  0.00    +0.176 C 
ATOM      2  C   UNL     1       6.095  -3.061  25.254  0.00  0.00    +0.184 C 
ATOM      3  C   UNL     1       7.285  -3.173  26.159  0.00  0.00    +0.186 C 
ATOM      4  O   UNL     1       7.186  -4.556  26.564  0.00  0.00    -0.342 OA
ATOM      5  C   UNL     1       5.768  -4.818  26.665  0.00  0.00    +0.263 C 
ATOM      6  C   UNL     1       8.485  -2.928  25.244  0.00  0.00    +0.184 C 
ATOM      7  O   UNL     1       5.100  -3.988  25.723  0.00  0.00    -0.342 OA
ATOM      8  O   UNL     1       8.082  -3.381  23.931  0.00  0.00    -0.361 OA
ENDROOT
BRANCH   6   9
ATOM      9  C   UNL     1       9.003  -1.534  25.085  0.00  0.00    +0.025 A 
ATOM     10  C   UNL     1       9.336  -0.944  23.825  0.00  0.00    +0.076 A 
ATOM     11  N   UNL     1       9.339  -1.456  22.594  0.00  0.00    -0.344 N 
ATOM     12  H   UNL     1       9.037  -2.401  22.375  0.00  0.00    +0.167 HD
ATOM     13  C   UNL     1       9.588  -0.553  21.589  0.00  0.00    +0.201 A 
ATOM     14  N   UNL     1       9.866   0.705  21.675  0.00  0.00    -0.198 NA
ATOM     15  C   UNL     1       9.922   1.298  22.917  0.00  0.00    +0.297 A 
ATOM     16  O   UNL     1      10.171   2.483  23.107  0.00  0.00    -0.264 OA
ATOM     17  C   UNL     1       9.631   0.386  23.999  0.00  0.00    +0.130 A 
ATOM     18  N   UNL     1       9.542   0.653  25.339  0.00  0.00    -0.355 N 
ATOM     19  H   UNL     1       9.657   1.578  25.739  0.00  0.00    +0.166 HD
ATOM     20  C   UNL     1       9.152  -0.494  25.996  0.00  0.00    +0.091 A 
ENDBRANCH   6   9
BRANCH   1  21
ATOM     21  C   UNL     1       6.038  -2.690  22.777  0.00  0.00    +0.190 C 
BRANCH  21  22
ATOM     22  O   UNL     1       6.103  -1.297  23.058  0.00  0.00    -0.392 OA
ATOM     23  H   UNL     1       5.383  -0.877  22.555  0.00  0.00    +0.210 HD
ENDBRANCH  21  22
ENDBRANCH   1  21
BRANCH   5  24
ATOM     24  C   UNL     1       5.479  -6.362  26.533  0.00  0.00    +0.188 C 
BRANCH  24  25
ATOM     25  P   UNL     1       5.257  -6.593  28.335  0.00  0.00    +0.333 P 
ATOM     26  O   UNL     1       5.069  -6.787  29.860  0.00  0.00    -0.259 OA
BRANCH  25  27
ATOM     27  O   UNL     1       4.838  -5.003  28.327  0.00  0.00    -0.324 OA
ATOM     28  H   UNL     1       4.171  -4.834  29.021  0.00  0.00    +0.220 HD
ENDBRANCH  25  27
BRANCH  25  29
ATOM     29  O   UNL     1       6.885  -6.407  28.514  0.00  0.00    -0.324 OA
ATOM     30  H   UNL     1       7.282  -5.550  28.736  0.00  0.00    +0.220 HD
ENDBRANCH  25  29
ENDBRANCH  24  25
ENDBRANCH   5  24
TORSDOF 7
ENDMDL
MODEL 8
REMARK VINA RESULT:      -6.7      3.934      7.555
REMARK  Name = 
REMARK  7 active torsions:
REMARK  status: ('A' for Active; 'I' for Inactive)
REMARK    1  A    between atoms: O_1  and  C_2
REMARK    2  A    between atoms: C_2  and  C_3
REMARK    3  A    between atoms: C_6  and  C_21
REMARK    4  A    between atoms: C_11  and  C_13
REMARK    5  A    between atoms: C_13  and  P_14
REMARK    6  A    between atoms: P_14  and  O_15
REMARK    7  A    between atoms: P_14  and  O_16
REMARK                            x       y       z     vdW  Elec       q    Type
REMARK                         _______ _______ _______ _____ _____    ______ ____
ROOT
ATOM      1  C   UNL     1       6.621  -5.105  23.158  0.00  0.00    +0.176 C 
ATOM      2  C   UNL     1       5.797  -4.176  24.045  0.00  0.00    +0.184 C 
ATOM      3  C   UNL     1       6.826  -3.594  24.967  0.00  0.00    +0.186 C 
ATOM      4  O   UNL     1       6.853  -4.596  26.008  0.00  0.00    -0.342 OA
ATOM      5  C   UNL     1       5.487  -5.056  26.122  0.00  0.00    +0.263 C 
ATOM      6  C   UNL     1       8.115  -3.587  24.145  0.00  0.00    +0.184 C 
ATOM      7  O   UNL     1       4.875  -4.939  24.844  0.00  0.00    -0.342 OA
ATOM      8  O   UNL     1       8.000  -4.688  23.217  0.00  0.00    -0.361 OA
ENDROOT
BRANCH   6   9
ATOM      9  C   UNL     1       8.456  -2.372  23.343  0.00  0.00    +0.025 A 
ATOM     10  C   UNL     1       9.079  -1.205  23.887  0.00  0.00    +0.076 A 
ATOM     11  N   UNL     1       9.420  -0.898  25.138  0.00  0.00    -0.344 N 
ATOM     12  H   UNL     1       9.306  -1.531  25.925  0.00  0.00    +0.167 HD
ATOM     13  C   UNL     1      10.131   0.268  25.279  0.00  0.00    +0.201 A 
ATOM     14  N   UNL     1      10.473   1.127  24.378  0.00  0.00    -0.198 NA
ATOM     15  C   UNL     1      10.122   0.901  23.065  0.00  0.00    +0.297 A 
ATOM     16  O   UNL     1      10.401   1.650  22.136  0.00  0.00    -0.264 OA
ATOM     17  C   UNL     1       9.400  -0.335  22.873  0.00  0.00    +0.130 A 
ATOM     18  N   UNL     1       8.958  -0.891  21.703  0.00  0.00    -0.355 N 
ATOM     19  H   UNL     1       9.116  -0.481  20.787  0.00  0.00    +0.166 HD
ATOM     20  C   UNL     1       8.401  -2.122  21.977  0.00  0.00    +0.091 A 
ENDBRANCH   6   9
BRANCH   1  21
ATOM     21  C   UNL     1       6.098  -5.070  21.724  0.00  0.00    +0.190 C 
BRANCH  21  22
ATOM     22  O   UNL     1       5.657  -6.355  21.300  0.00  0.00    -0.392 OA
ATOM     23  H   UNL     1       4.812  -6.220  20.836  0.00  0.00    +0.210 HD
ENDBRANCH  21  22
ENDBRANCH   1  21
BRANCH   5  24
ATOM     24  C   UNL     1       5.439  -6.494  26.768  0.00  0.00    +0.188 C 
BRANCH  24  25
ATOM     25  P   UNL     1       5.784  -5.873  28.455  0.00  0.00    +0.333 P 
ATOM     26  O   UNL     1       6.076  -5.349  29.883  0.00  0.00    -0.259 OA
BRANCH  25  27
ATOM     27  O   UNL     1       7.339  -6.288  28.119  0.00  0.00    -0.324 OA
ATOM     28  H   UNL     1       7.396  -7.250  27.957  0.00  0.00    +0.220 HD
ENDBRANCH  25  27
BRANCH  25  29
ATOM     29  O   UNL     1       5.275  -7.326  29.045  0.00  0.00    -0.324 OA
ATOM     30  H   UNL     1       4.863  -7.409  29.920  0.00  0.00    +0.220 HD
ENDBRANCH  25  29
ENDBRANCH  24  25
ENDBRANCH   5  24
TORSDOF 7
ENDMDL
MODEL 9
REMARK VINA RESULT:      -6.7      3.916      7.272
REMARK  Name = 
REMARK  7 active torsions:
REMARK  status: ('A' for Active; 'I' for Inactive)
REMARK    1  A    between atoms: O_1  and  C_2
REMARK    2  A    between atoms: C_2  and  C_3
REMARK    3  A    between atoms: C_6  and  C_21
REMARK    4  A    between atoms: C_11  and  C_13
REMARK    5  A    between atoms: C_13  and  P_14
REMARK    6  A    between atoms: P_14  and  O_15
REMARK    7  A    between atoms: P_14  and  O_16
REMARK                            x       y       z     vdW  Elec       q    Type
REMARK                         _______ _______ _______ _____ _____    ______ ____
ROOT
ATOM      1  C   UNL     1       6.189  -1.738  24.121  0.00  0.00    +0.176 C 
ATOM      2  C   UNL     1       7.326  -2.561  24.719  0.00  0.00    +0.184 C 
ATOM      3  C   UNL     1       8.268  -2.720  23.564  0.00  0.00    +0.186 C 
ATOM      4  O   UNL     1       7.721  -3.897  22.930  0.00  0.00    -0.342 OA
ATOM      5  C   UNL     1       7.251  -4.727  24.017  0.00  0.00    +0.263 C 
ATOM      6  C   UNL     1       8.053  -1.463  22.721  0.00  0.00    +0.184 C 
ATOM      7  O   UNL     1       6.853  -3.872  25.081  0.00  0.00    -0.342 OA
ATOM      8  O   UNL     1       6.683  -1.063  22.947  0.00  0.00    -0.361 OA
ENDROOT
BRANCH   6   9
ATOM      9  C   UNL     1       8.908  -0.263  22.978  0.00  0.00    +0.025 A 
ATOM     10  C   UNL     1       8.462   1.086  22.808  0.00  0.00    +0.076 A 
ATOM     11  N   UNL     1       7.309   1.574  22.353  0.00  0.00    -0.344 N 
ATOM     12  H   UNL     1       6.517   0.996  22.086  0.00  0.00    +0.167 HD
ATOM     13  C   UNL     1       7.174   2.937  22.453  0.00  0.00    +0.201 A 
ATOM     14  N   UNL     1       8.023   3.810  22.881  0.00  0.00    -0.198 NA
ATOM     15  C   UNL     1       9.255   3.387  23.330  0.00  0.00    +0.297 A 
ATOM     16  O   UNL     1      10.127   4.131  23.761  0.00  0.00    -0.264 OA
ATOM     17  C   UNL     1       9.421   1.953  23.271  0.00  0.00    +0.130 A 
ATOM     18  N   UNL     1      10.485   1.200  23.690  0.00  0.00    -0.355 N 
ATOM     19  H   UNL     1      11.313   1.588  24.132  0.00  0.00    +0.166 HD
ATOM     20  C   UNL     1      10.177  -0.134  23.529  0.00  0.00    +0.091 A 
ENDBRANCH   6   9
BRANCH   1  21
ATOM     21  C   UNL     1       5.663  -0.737  25.148  0.00  0.00    +0.190 C 
BRANCH  21  22
ATOM     22  O   UNL     1       5.294   0.493  24.534  0.00  0.00    -0.392 OA
ATOM     23  H   UNL     1       4.805   1.003  25.203  0.00  0.00    +0.210 HD
ENDBRANCH  21  22
ENDBRANCH   1  21
BRANCH   5  24
ATOM     24  C   UNL     1       6.151  -5.735  23.509  0.00  0.00    +0.188 C 
BRANCH  24  25
ATOM     25  P   UNL     1       5.974  -4.905  21.887  0.00  0.00    +0.333 P 
ATOM     26  O   UNL     1       5.824  -4.204  20.515  0.00  0.00    -0.259 OA
BRANCH  25  27
ATOM     27  O   UNL     1       4.579  -4.309  22.521  0.00  0.00    -0.324 OA
ATOM     28  H   UNL     1       4.138  -3.734  21.865  0.00  0.00    +0.220 HD
ENDBRANCH  25  27
BRANCH  25  29
ATOM     29  O   UNL     1       5.375  -6.316  21.281  0.00  0.00    -0.324 OA
ATOM     30  H   UNL     1       4.929  -6.357  20.420  0.00  0.00    +0.220 HD
ENDBRANCH  25  29
ENDBRANCH  24  25
ENDBRANCH   5  24
TORSDOF 7
ENDMDL
