MODEL 1
REMARK VINA RESULT:      -6.0      0.000      0.000
REMARK  Name = 
REMARK  12 active torsions:
REMARK  status: ('A' for Active; 'I' for Inactive)
REMARK    1  A    between atoms: O_1  and  C_2
REMARK    2  A    between atoms: C_2  and  C_3
REMARK    3  A    between atoms: C_6  and  O_8
REMARK    4  A    between atoms: O_8  and  C_9
REMARK    5  A    between atoms: C_11  and  O_13
REMARK    6  A    between atoms: C_14  and  O_16
REMARK    7  A    between atoms: C_17  and  O_19
REMARK    8  A    between atoms: C_21  and  C_23
REMARK    9  A    between atoms: C_23  and  O_24
REMARK   10  A    between atoms: C_25  and  O_27
REMARK   11  A    between atoms: C_28  and  O_30
REMARK   12  A    between atoms: C_31  and  O_33
REMARK                            x       y       z     vdW  Elec       q    Type
REMARK                         _______ _______ _______ _____ _____    ______ ____
ROOT
ATOM      1  O   UNL     1       8.600  -2.452  23.889  0.00  0.00    -0.340 OA
ENDROOT
BRANCH   1   6
ATOM      2  C   UNL     1       8.159   0.198  24.627  0.00  0.00    +0.178 C 
ATOM      3  C   UNL     1       8.318   1.001  23.325  0.00  0.00    +0.177 C 
ATOM      4  C   UNL     1       8.750   0.070  22.176  0.00  0.00    +0.179 C 
ATOM      5  C   UNL     1       9.966  -0.761  22.593  0.00  0.00    +0.201 C 
ATOM      6  C   UNL     1       9.669  -1.509  23.906  0.00  0.00    +0.282 C 
ATOM      7  O   UNL     1       9.367  -0.538  24.917  0.00  0.00    -0.341 OA
BRANCH   3   8
ATOM      8  O   UNL     1       7.100   1.687  23.013  0.00  0.00    -0.386 OA
ATOM      9  H   UNL     1       6.730   1.303  22.200  0.00  0.00    +0.210 HD
ENDBRANCH   3   8
BRANCH   4  10
ATOM     10  O   UNL     1       9.093   0.841  21.013  0.00  0.00    -0.386 OA
ATOM     11  H   UNL     1       8.857   0.282  20.247  0.00  0.00    +0.210 HD
ENDBRANCH   4  10
BRANCH   5  12
ATOM     12  O   UNL     1      10.354  -1.616  21.512  0.00  0.00    -0.384 OA
ATOM     13  H   UNL     1       9.917  -2.481  21.645  0.00  0.00    +0.210 HD
ENDBRANCH   5  12
BRANCH   2  14
ATOM     14  C   UNL     1       7.843   1.119  25.814  0.00  0.00    +0.190 C 
BRANCH  14  15
ATOM     15  O   UNL     1       8.139   0.442  27.038  0.00  0.00    -0.392 OA
ATOM     16  H   UNL     1       7.519   0.780  27.705  0.00  0.00    +0.210 HD
ENDBRANCH  14  15
ENDBRANCH   2  14
ENDBRANCH   1   6
BRANCH   1  17
ATOM     17  C   UNL     1       8.855  -3.846  24.092  0.00  0.00    +0.183 C 
ATOM     18  C   UNL     1       7.528  -4.592  23.783  0.00  0.00    +0.178 C 
ATOM     19  O   UNL     1       6.509  -4.290  24.767  0.00  0.00    -0.341 OA
ATOM     20  C   UNL     1       6.884  -4.641  26.099  0.00  0.00    +0.279 C 
ATOM     21  C   UNL     1       8.162  -3.912  26.537  0.00  0.00    +0.201 C 
ATOM     22  C   UNL     1       9.286  -4.206  25.528  0.00  0.00    +0.179 C 
BRANCH  20  23
ATOM     23  O   UNL     1       7.072  -6.046  26.207  0.00  0.00    -0.365 OA
ATOM     24  H   UNL     1       7.219  -6.369  25.298  0.00  0.00    +0.213 HD
ENDBRANCH  20  23
BRANCH  21  25
ATOM     25  O   UNL     1       7.928  -2.508  26.662  0.00  0.00    -0.384 OA
ATOM     26  H   UNL     1       6.968  -2.385  26.831  0.00  0.00    +0.210 HD
ENDBRANCH  21  25
BRANCH  22  27
ATOM     27  O   UNL     1       9.696  -5.580  25.595  0.00  0.00    -0.386 OA
ATOM     28  H   UNL     1       9.756  -5.841  26.539  0.00  0.00    +0.210 HD
ENDBRANCH  22  27
BRANCH  18  29
ATOM     29  C   UNL     1       6.949  -4.203  22.415  0.00  0.00    +0.190 C 
BRANCH  29  30
ATOM     30  O   UNL     1       6.231  -2.973  22.534  0.00  0.00    -0.392 OA
ATOM     31  H   UNL     1       6.114  -2.836  23.494  0.00  0.00    +0.210 HD
ENDBRANCH  29  30
ENDBRANCH  18  29
ENDBRANCH   1  17
TORSDOF 12
ENDMDL
MODEL 2
REMARK VINA RESULT:      -6.0      1.486      5.843
REMARK  Name = 
REMARK  12 active torsions:
REMARK  status: ('A' for Active; 'I' for Inactive)
REMARK    1  A    between atoms: O_1  and  C_2
REMARK    2  A    between atoms: C_2  and  C_3
REMARK    3  A    between atoms: C_6  and  O_8
REMARK    4  A    between atoms: O_8  and  C_9
REMARK    5  A    between atoms: C_11  and  O_13
REMARK    6  A    between atoms: C_14  and  O_16
REMARK    7  A    between atoms: C_17  and  O_19
REMARK    8  A    between atoms: C_21  and  C_23
REMARK    9  A    between atoms: C_23  and  O_24
REMARK   10  A    between atoms: C_25  and  O_27
REMARK   11  A    between atoms: C_28  and  O_30
REMARK   12  A    between atoms: C_31  and  O_33
REMARK                            x       y       z     vdW  Elec       q    Type
REMARK                         _______ _______ _______ _____ _____    ______ ____
ROOT
ATOM      1  O   UNL     1       8.514  -3.204  24.596  0.00  0.00    -0.340 OA
ENDROOT
BRANCH   1   6
ATOM      2  C   UNL     1       6.315  -4.906  24.421  0.00  0.00    +0.178 C 
ATOM      3  C   UNL     1       6.251  -5.608  25.787  0.00  0.00    +0.177 C 
ATOM      4  C   UNL     1       7.452  -5.190  26.656  0.00  0.00    +0.179 C 
ATOM      5  C   UNL     1       8.759  -5.371  25.881  0.00  0.00    +0.201 C 
ATOM      6  C   UNL     1       8.685  -4.618  24.540  0.00  0.00    +0.282 C 
ATOM      7  O   UNL     1       7.589  -5.152  23.786  0.00  0.00    -0.341 OA
BRANCH   3   8
ATOM      8  O   UNL     1       5.008  -5.318  26.437  0.00  0.00    -0.386 OA
ATOM      9  H   UNL     1       5.147  -4.577  27.052  0.00  0.00    +0.210 HD
ENDBRANCH   3   8
BRANCH   4  10
ATOM     10  O   UNL     1       7.506  -5.991  27.848  0.00  0.00    -0.386 OA
ATOM     11  H   UNL     1       6.717  -5.743  28.369  0.00  0.00    +0.210 HD
ENDBRANCH   4  10
BRANCH   5  12
ATOM     12  O   UNL     1       9.862  -4.981  26.707  0.00  0.00    -0.384 OA
ATOM     13  H   UNL     1       9.669  -4.089  27.058  0.00  0.00    +0.210 HD
ENDBRANCH   5  12
BRANCH   2  14
ATOM     14  C   UNL     1       5.196  -5.393  23.491  0.00  0.00    +0.190 C 
BRANCH  14  15
ATOM     15  O   UNL     1       4.760  -4.314  22.658  0.00  0.00    -0.392 OA
ATOM     16  H   UNL     1       5.542  -3.769  22.472  0.00  0.00    +0.210 HD
ENDBRANCH  14  15
ENDBRANCH   2  14
ENDBRANCH   1   6
BRANCH   1  17
ATOM     17  C   UNL     1       9.502  -2.328  24.043  0.00  0.00    +0.183 C 
ATOM     18  C   UNL     1       9.222  -0.915  24.625  0.00  0.00    +0.178 C 
ATOM     19  O   UNL     1       7.974  -0.375  24.125  0.00  0.00    -0.341 OA
ATOM     20  C   UNL     1       7.937  -0.255  22.703  0.00  0.00    +0.279 C 
ATOM     21  C   UNL     1       8.147  -1.612  22.016  0.00  0.00    +0.201 C 
ATOM     22  C   UNL     1       9.468  -2.231  22.504  0.00  0.00    +0.179 C 
BRANCH  20  23
ATOM     23  O   UNL     1       8.924   0.667  22.257  0.00  0.00    -0.365 OA
ATOM     24  H   UNL     1       9.058   0.480  21.309  0.00  0.00    +0.213 HD
ENDBRANCH  20  23
BRANCH  21  25
ATOM     25  O   UNL     1       7.040  -2.481  22.262  0.00  0.00    -0.384 OA
ATOM     26  H   UNL     1       7.198  -3.308  21.758  0.00  0.00    +0.210 HD
ENDBRANCH  21  25
BRANCH  22  27
ATOM     27  O   UNL     1      10.597  -1.484  22.028  0.00  0.00    -0.386 OA
ATOM     28  H   UNL     1      10.979  -1.957  21.257  0.00  0.00    +0.210 HD
ENDBRANCH  22  27
BRANCH  18  29
ATOM     29  C   UNL     1       9.113  -0.930  26.156  0.00  0.00    +0.190 C 
BRANCH  29  30
ATOM     30  O   UNL     1       7.835  -1.440  26.539  0.00  0.00    -0.392 OA
ATOM     31  H   UNL     1       7.969  -2.400  26.668  0.00  0.00    +0.210 HD
ENDBRANCH  29  30
ENDBRANCH  18  29
ENDBRANCH   1  17
TORSDOF 12
ENDMDL
MODEL 3
REMARK VINA RESULT:      -5.8      1.524      5.593
REMARK  Name = 
REMARK  12 active torsions:
REMARK  status: ('A' for Active; 'I' for Inactive)
REMARK    1  A    between atoms: O_1  and  C_2
REMARK    2  A    between atoms: C_2  and  C_3
REMARK    3  A    between atoms: C_6  and  O_8
REMARK    4  A    between atoms: O_8  and  C_9
REMARK    5  A    between atoms: C_11  and  O_13
REMARK    6  A    between atoms: C_14  and  O_16
REMARK    7  A    between atoms: C_17  and  O_19
REMARK    8  A    between atoms: C_21  and  C_23
REMARK    9  A    between atoms: C_23  and  O_24
REMARK   10  A    between atoms: C_25  and  O_27
REMARK   11  A    between atoms: C_28  and  O_30
REMARK   12  A    between atoms: C_31  and  O_33
REMARK                            x       y       z     vdW  Elec       q    Type
REMARK                         _______ _______ _______ _____ _____    ______ ____
ROOT
ATOM      1  O   UNL     1       8.090  -1.107  23.937  0.00  0.00    -0.340 OA
ENDROOT
BRANCH   1   6
ATOM      2  C   UNL     1       8.370  -3.546  25.256  0.00  0.00    +0.178 C 
ATOM      3  C   UNL     1       7.840  -4.593  24.263  0.00  0.00    +0.177 C 
ATOM      4  C   UNL     1       7.280  -3.900  23.007  0.00  0.00    +0.179 C 
ATOM      5  C   UNL     1       6.289  -2.803  23.403  0.00  0.00    +0.201 C 
ATOM      6  C   UNL     1       6.949  -1.828  24.395  0.00  0.00    +0.282 C 
ATOM      7  O   UNL     1       7.348  -2.571  25.554  0.00  0.00    -0.341 OA
BRANCH   3   8
ATOM      8  O   UNL     1       8.873  -5.528  23.927  0.00  0.00    -0.386 OA
ATOM      9  H   UNL     1       9.719  -5.050  23.883  0.00  0.00    +0.210 HD
ENDBRANCH   3   8
BRANCH   4  10
ATOM     10  O   UNL     1       6.605  -4.854  22.171  0.00  0.00    -0.386 OA
ATOM     11  H   UNL     1       5.666  -4.825  22.441  0.00  0.00    +0.210 HD
ENDBRANCH   4  10
BRANCH   5  12
ATOM     12  O   UNL     1       5.776  -2.173  22.223  0.00  0.00    -0.384 OA
ATOM     13  H   UNL     1       5.399  -2.873  21.653  0.00  0.00    +0.210 HD
ENDBRANCH   5  12
BRANCH   2  14
ATOM     14  C   UNL     1       8.828  -4.202  26.566  0.00  0.00    +0.190 C 
BRANCH  14  15
ATOM     15  O   UNL     1       9.992  -4.997  26.323  0.00  0.00    -0.392 OA
ATOM     16  H   UNL     1      10.154  -4.975  25.365  0.00  0.00    +0.210 HD
ENDBRANCH  14  15
ENDBRANCH   2  14
ENDBRANCH   1   6
BRANCH   1  17
ATOM     17  C   UNL     1       7.936   0.081  23.155  0.00  0.00    +0.183 C 
ATOM     18  C   UNL     1       9.169   0.159  22.213  0.00  0.00    +0.178 C 
ATOM     19  O   UNL     1      10.388   0.401  22.956  0.00  0.00    -0.341 OA
ATOM     20  C   UNL     1      10.362   1.613  23.710  0.00  0.00    +0.279 C 
ATOM     21  C   UNL     1       9.208   1.625  24.723  0.00  0.00    +0.201 C 
ATOM     22  C   UNL     1       7.881   1.380  23.984  0.00  0.00    +0.179 C 
BRANCH  20  23
ATOM     23  O   UNL     1      10.250   2.734  22.843  0.00  0.00    -0.365 OA
ATOM     24  H   UNL     1       9.637   3.353  23.281  0.00  0.00    +0.213 HD
ENDBRANCH  20  23
BRANCH  21  25
ATOM     25  O   UNL     1       9.423   0.651  25.747  0.00  0.00    -0.384 OA
ATOM     26  H   UNL     1       9.597   1.137  26.582  0.00  0.00    +0.210 HD
ENDBRANCH  21  25
BRANCH  22  27
ATOM     27  O   UNL     1       7.543   2.493  23.143  0.00  0.00    -0.386 OA
ATOM     28  H   UNL     1       7.732   2.247  22.212  0.00  0.00    +0.210 HD
ENDBRANCH  22  27
BRANCH  18  29
ATOM     29  C   UNL     1       9.382  -1.144  21.429  0.00  0.00    +0.190 C 
BRANCH  29  30
ATOM     30  O   UNL     1      10.484  -1.861  21.987  0.00  0.00    -0.392 OA
ATOM     31  H   UNL     1      10.914  -2.303  21.228  0.00  0.00    +0.210 HD
ENDBRANCH  29  30
ENDBRANCH  18  29
ENDBRANCH   1  17
TORSDOF 12
ENDMDL
MODEL 4
REMARK VINA RESULT:      -5.7      1.625      5.734
REMARK  Name = 
REMARK  12 active torsions:
REMARK  status: ('A' for Active; 'I' for Inactive)
REMARK    1  A    between atoms: O_1  and  C_2
REMARK    2  A    between atoms: C_2  and  C_3
REMARK    3  A    between atoms: C_6  and  O_8
REMARK    4  A    between atoms: O_8  and  C_9
REMARK    5  A    between atoms: C_11  and  O_13
REMARK    6  A    between atoms: C_14  and  O_16
REMARK    7  A    between atoms: C_17  and  O_19
REMARK    8  A    between atoms: C_21  and  C_23
REMARK    9  A    between atoms: C_23  and  O_24
REMARK   10  A    between atoms: C_25  and  O_27
REMARK   11  A    between atoms: C_28  and  O_30
REMARK   12  A    between atoms: C_31  and  O_33
REMARK                            x       y       z     vdW  Elec       q    Type
REMARK                         _______ _______ _______ _____ _____    ______ ____
ROOT
ATOM      1  O   UNL     1       7.890  -0.979  24.263  0.00  0.00    -0.340 OA
ENDROOT
BRANCH   1   6
ATOM      2  C   UNL     1       8.489  -3.655  24.760  0.00  0.00    +0.178 C 
ATOM      3  C   UNL     1       7.154  -4.396  24.582  0.00  0.00    +0.177 C 
ATOM      4  C   UNL     1       6.019  -3.391  24.310  0.00  0.00    +0.179 C 
ATOM      5  C   UNL     1       6.024  -2.284  25.367  0.00  0.00    +0.201 C 
ATOM      6  C   UNL     1       7.416  -1.630  25.439  0.00  0.00    +0.282 C 
ATOM      7  O   UNL     1       8.371  -2.642  25.783  0.00  0.00    -0.341 OA
BRANCH   3   8
ATOM      8  O   UNL     1       7.259  -5.363  23.530  0.00  0.00    -0.386 OA
ATOM      9  H   UNL     1       8.202  -5.539  23.366  0.00  0.00    +0.210 HD
ENDBRANCH   3   8
BRANCH   4  10
ATOM     10  O   UNL     1       4.746  -4.057  24.342  0.00  0.00    -0.386 OA
ATOM     11  H   UNL     1       4.755  -4.681  23.591  0.00  0.00    +0.210 HD
ENDBRANCH   4  10
BRANCH   5  12
ATOM     12  O   UNL     1       4.961  -1.363  25.100  0.00  0.00    -0.384 OA
ATOM     13  H   UNL     1       4.395  -1.756  24.406  0.00  0.00    +0.210 HD
ENDBRANCH   5  12
BRANCH   2  14
ATOM     14  C   UNL     1       9.616  -4.621  25.148  0.00  0.00    +0.190 C 
BRANCH  14  15
ATOM     15  O   UNL     1       9.071  -5.728  25.871  0.00  0.00    -0.392 OA
ATOM     16  H   UNL     1       8.108  -5.701  25.746  0.00  0.00    +0.210 HD
ENDBRANCH  14  15
ENDBRANCH   2  14
ENDBRANCH   1   6
BRANCH   1  17
ATOM     17  C   UNL     1       8.831   0.096  24.353  0.00  0.00    +0.183 C 
ATOM     18  C   UNL     1       8.180   1.318  23.648  0.00  0.00    +0.178 C 
ATOM     19  O   UNL     1       8.054   1.100  22.221  0.00  0.00    -0.341 OA
ATOM     20  C   UNL     1       9.301   0.859  21.571  0.00  0.00    +0.279 C 
ATOM     21  C   UNL     1      10.013  -0.372  22.152  0.00  0.00    +0.201 C 
ATOM     22  C   UNL     1      10.183  -0.191  23.671  0.00  0.00    +0.179 C 
BRANCH  20  23
ATOM     23  O   UNL     1      10.146   1.997  21.680  0.00  0.00    -0.365 OA
ATOM     24  H   UNL     1      10.281   2.142  22.635  0.00  0.00    +0.213 HD
ENDBRANCH  20  23
BRANCH  21  25
ATOM     25  O   UNL     1       9.290  -1.566  21.847  0.00  0.00    -0.384 OA
ATOM     26  H   UNL     1       9.210  -1.619  20.870  0.00  0.00    +0.210 HD
ENDBRANCH  21  25
BRANCH  22  27
ATOM     27  O   UNL     1      11.121   0.856  23.966  0.00  0.00    -0.386 OA
ATOM     28  H   UNL     1      11.342   0.814  24.921  0.00  0.00    +0.210 HD
ENDBRANCH  22  27
BRANCH  18  29
ATOM     29  C   UNL     1       6.769   1.609  24.176  0.00  0.00    +0.190 C 
BRANCH  29  30
ATOM     30  O   UNL     1       5.812   0.872  23.413  0.00  0.00    -0.392 OA
ATOM     31  H   UNL     1       4.989   0.897  23.940  0.00  0.00    +0.210 HD
ENDBRANCH  29  30
ENDBRANCH  18  29
ENDBRANCH   1  17
TORSDOF 12
ENDMDL
MODEL 5
REMARK VINA RESULT:      -5.6      1.718      5.873
REMARK  Name = 
REMARK  12 active torsions:
REMARK  status: ('A' for Active; 'I' for Inactive)
REMARK    1  A    between atoms: O_1  and  C_2
REMARK    2  A    between atoms: C_2  and  C_3
REMARK    3  A    between atoms: C_6  and  O_8
REMARK    4  A    between atoms: O_8  and  C_9
REMARK    5  A    between atoms: C_11  and  O_13
REMARK    6  A    between atoms: C_14  and  O_16
REMARK    7  A    between atoms: C_17  and  O_19
REMARK    8  A    between atoms: C_21  and  C_23
REMARK    9  A    between atoms: C_23  and  O_24
REMARK   10  A    between atoms: C_25  and  O_27
REMARK   11  A    between atoms: C_28  and  O_30
REMARK   12  A    between atoms: C_31  and  O_33
REMARK                            x       y       z     vdW  Elec       q    Type
REMARK                         _______ _______ _______ _____ _____    ______ ____
ROOT
ATOM      1  O   UNL     1       7.974  -2.106  23.709  0.00  0.00    -0.340 OA
ENDROOT
BRANCH   1   6
ATOM      2  C   UNL     1       6.828  -4.405  22.628  0.00  0.00    +0.178 C 
ATOM      3  C   UNL     1       5.577  -4.660  23.484  0.00  0.00    +0.177 C 
ATOM      4  C   UNL     1       5.503  -3.640  24.636  0.00  0.00    +0.179 C 
ATOM      5  C   UNL     1       6.830  -3.602  25.399  0.00  0.00    +0.201 C 
ATOM      6  C   UNL     1       7.992  -3.340  24.423  0.00  0.00    +0.282 C 
ATOM      7  O   UNL     1       8.012  -4.396  23.455  0.00  0.00    -0.341 OA
BRANCH   3   8
ATOM      8  O   UNL     1       4.399  -4.615  22.670  0.00  0.00    -0.386 OA
ATOM      9  H   UNL     1       3.859  -3.856  22.951  0.00  0.00    +0.210 HD
ENDBRANCH   3   8
BRANCH   4  10
ATOM     10  O   UNL     1       4.453  -3.996  25.550  0.00  0.00    -0.386 OA
ATOM     11  H   UNL     1       4.319  -3.212  26.118  0.00  0.00    +0.210 HD
ENDBRANCH   4  10
BRANCH   5  12
ATOM     12  O   UNL     1       6.740  -2.653  26.467  0.00  0.00    -0.384 OA
ATOM     13  H   UNL     1       6.485  -3.139  27.276  0.00  0.00    +0.210 HD
ENDBRANCH   5  12
BRANCH   2  14
ATOM     14  C   UNL     1       6.989  -5.478  21.543  0.00  0.00    +0.190 C 
BRANCH  14  15
ATOM     15  O   UNL     1       6.262  -6.652  21.918  0.00  0.00    -0.392 OA
ATOM     16  H   UNL     1       6.917  -7.307  22.212  0.00  0.00    +0.210 HD
ENDBRANCH  14  15
ENDBRANCH   2  14
ENDBRANCH   1   6
BRANCH   1  17
ATOM     17  C   UNL     1       8.664  -0.959  24.216  0.00  0.00    +0.183 C 
ATOM     18  C   UNL     1       7.910   0.289  23.680  0.00  0.00    +0.178 C 
ATOM     19  O   UNL     1       8.054   0.417  22.244  0.00  0.00    -0.341 OA
ATOM     20  C   UNL     1       9.412   0.535  21.819  0.00  0.00    +0.279 C 
ATOM     21  C   UNL     1      10.246  -0.680  22.248  0.00  0.00    +0.201 C 
ATOM     22  C   UNL     1      10.137  -0.861  23.772  0.00  0.00    +0.179 C 
BRANCH  20  23
ATOM     23  O   UNL     1       9.994   1.724  22.339  0.00  0.00    -0.365 OA
ATOM     24  H   UNL     1      10.427   2.164  21.585  0.00  0.00    +0.213 HD
ENDBRANCH  20  23
BRANCH  21  25
ATOM     25  O   UNL     1       9.825  -1.855  21.551  0.00  0.00    -0.384 OA
ATOM     26  H   UNL     1       8.995  -2.166  21.975  0.00  0.00    +0.210 HD
ENDBRANCH  21  25
BRANCH  22  27
ATOM     27  O   UNL     1      10.797   0.207  24.468  0.00  0.00    -0.386 OA
ATOM     28  H   UNL     1      10.168   0.957  24.553  0.00  0.00    +0.210 HD
ENDBRANCH  22  27
BRANCH  18  29
ATOM     29  C   UNL     1       6.403   0.224  23.968  0.00  0.00    +0.190 C 
BRANCH  29  30
ATOM     30  O   UNL     1       6.194  -0.146  25.332  0.00  0.00    -0.392 OA
ATOM     31  H   UNL     1       6.652   0.540  25.856  0.00  0.00    +0.210 HD
ENDBRANCH  29  30
ENDBRANCH  18  29
ENDBRANCH   1  17
TORSDOF 12
ENDMDL
MODEL 6
REMARK VINA RESULT:      -5.6      1.963      3.355
REMARK  Name = 
REMARK  12 active torsions:
REMARK  status: ('A' for Active; 'I' for Inactive)
REMARK    1  A    between atoms: O_1  and  C_2
REMARK    2  A    between atoms: C_2  and  C_3
REMARK    3  A    between atoms: C_6  and  O_8
REMARK    4  A    between atoms: O_8  and  C_9
REMARK    5  A    between atoms: C_11  and  O_13
REMARK    6  A    between atoms: C_14  and  O_16
REMARK    7  A    between atoms: C_17  and  O_19
REMARK    8  A    between atoms: C_21  and  C_23
REMARK    9  A    between atoms: C_23  and  O_24
REMARK   10  A    between atoms: C_25  and  O_27
REMARK   11  A    between atoms: C_28  and  O_30
REMARK   12  A    between atoms: C_31  and  O_33
REMARK                            x       y       z     vdW  Elec       q    Type
REMARK                         _______ _______ _______ _____ _____    ______ ____
ROOT
ATOM      1  O   UNL     1       8.440  -0.292  23.982  0.00  0.00    -0.340 OA
ENDROOT
BRANCH   1   6
ATOM      2  C   UNL     1       7.078   2.114  23.636  0.00  0.00    +0.178 C 
ATOM      3  C   UNL     1       8.143   3.099  23.127  0.00  0.00    +0.177 C 
ATOM      4  C   UNL     1       9.527   2.423  23.107  0.00  0.00    +0.179 C 
ATOM      5  C   UNL     1       9.821   1.773  24.461  0.00  0.00    +0.201 C 
ATOM      6  C   UNL     1       8.678   0.816  24.847  0.00  0.00    +0.282 C 
ATOM      7  O   UNL     1       7.463   1.572  24.918  0.00  0.00    -0.341 OA
BRANCH   3   8
ATOM      8  O   UNL     1       7.784   3.593  21.831  0.00  0.00    -0.386 OA
ATOM      9  H   UNL     1       7.255   4.401  21.945  0.00  0.00    +0.210 HD
ENDBRANCH   3   8
BRANCH   4  10
ATOM     10  O   UNL     1      10.550   3.391  22.826  0.00  0.00    -0.386 OA
ATOM     11  H   UNL     1      10.086   4.246  22.731  0.00  0.00    +0.210 HD
ENDBRANCH   4  10
BRANCH   5  12
ATOM     12  O   UNL     1      11.112   1.154  24.425  0.00  0.00    -0.384 OA
ATOM     13  H   UNL     1      11.782   1.858  24.537  0.00  0.00    +0.210 HD
ENDBRANCH   5  12
BRANCH   2  14
ATOM     14  C   UNL     1       5.711   2.796  23.777  0.00  0.00    +0.190 C 
BRANCH  14  15
ATOM     15  O   UNL     1       4.952   2.601  22.580  0.00  0.00    -0.392 OA
ATOM     16  H   UNL     1       4.259   3.282  22.572  0.00  0.00    +0.210 HD
ENDBRANCH  14  15
ENDBRANCH   2  14
ENDBRANCH   1   6
BRANCH   1  17
ATOM     17  C   UNL     1       8.778  -1.622  24.390  0.00  0.00    +0.183 C 
ATOM     18  C   UNL     1       9.322  -2.351  23.130  0.00  0.00    +0.178 C 
ATOM     19  O   UNL     1       8.278  -2.556  22.146  0.00  0.00    -0.341 OA
ATOM     20  C   UNL     1       7.182  -3.329  22.635  0.00  0.00    +0.279 C 
ATOM     21  C   UNL     1       6.525  -2.669  23.856  0.00  0.00    +0.201 C 
ATOM     22  C   UNL     1       7.590  -2.434  24.942  0.00  0.00    +0.179 C 
BRANCH  20  23
ATOM     23  O   UNL     1       7.611  -4.642  22.972  0.00  0.00    -0.365 OA
ATOM     24  H   UNL     1       6.892  -5.032  23.503  0.00  0.00    +0.213 HD
ENDBRANCH  20  23
BRANCH  21  25
ATOM     25  O   UNL     1       5.879  -1.450  23.487  0.00  0.00    -0.384 OA
ATOM     26  H   UNL     1       5.773  -0.914  24.303  0.00  0.00    +0.210 HD
ENDBRANCH  21  25
BRANCH  22  27
ATOM     27  O   UNL     1       8.051  -3.677  25.493  0.00  0.00    -0.386 OA
ATOM     28  H   UNL     1       8.781  -3.487  26.120  0.00  0.00    +0.210 HD
ENDBRANCH  22  27
BRANCH  18  29
ATOM     29  C   UNL     1      10.433  -1.553  22.433  0.00  0.00    +0.190 C 
BRANCH  29  30
ATOM     30  O   UNL     1       9.874  -0.794  21.359  0.00  0.00    -0.392 OA
ATOM     31  H   UNL     1       9.792  -1.424  20.616  0.00  0.00    +0.210 HD
ENDBRANCH  29  30
ENDBRANCH  18  29
ENDBRANCH   1  17
TORSDOF 12
ENDMDL
MODEL 7
REMARK VINA RESULT:      -5.6      1.787      4.277
REMARK  Name = 
REMARK  12 active torsions:
REMARK  status: ('A' for Active; 'I' for Inactive)
REMARK    1  A    between atoms: O_1  and  C_2
REMARK    2  A    between atoms: C_2  and  C_3
REMARK    3  A    between atoms: C_6  and  O_8
REMARK    4  A    between atoms: O_8  and  C_9
REMARK    5  A    between atoms: C_11  and  O_13
REMARK    6  A    between atoms: C_14  and  O_16
REMARK    7  A    between atoms: C_17  and  O_19
REMARK    8  A    between atoms: C_21  and  C_23
REMARK    9  A    between atoms: C_23  and  O_24
REMARK   10  A    between atoms: C_25  and  O_27
REMARK   11  A    between atoms: C_28  and  O_30
REMARK   12  A    between atoms: C_31  and  O_33
REMARK                            x       y       z     vdW  Elec       q    Type
REMARK                         _______ _______ _______ _____ _____    ______ ____
ROOT
ATOM      1  O   UNL     1       6.867  -2.812  24.365  0.00  0.00    -0.340 OA
ENDROOT
BRANCH   1   6
ATOM      2  C   UNL     1       8.511  -0.753  23.456  0.00  0.00    +0.178 C 
ATOM      3  C   UNL     1       9.101  -0.129  24.732  0.00  0.00    +0.177 C 
ATOM      4  C   UNL     1       8.492  -0.794  25.980  0.00  0.00    +0.179 C 
ATOM      5  C   UNL     1       6.964  -0.795  25.890  0.00  0.00    +0.201 C 
ATOM      6  C   UNL     1       6.513  -1.446  24.570  0.00  0.00    +0.282 C 
ATOM      7  O   UNL     1       7.069  -0.692  23.485  0.00  0.00    -0.341 OA
BRANCH   3   8
ATOM      8  O   UNL     1      10.529  -0.240  24.724  0.00  0.00    -0.386 OA
ATOM      9  H   UNL     1      10.841  -0.154  23.807  0.00  0.00    +0.210 HD
ENDBRANCH   3   8
BRANCH   4  10
ATOM     10  O   UNL     1       8.886  -0.083  27.165  0.00  0.00    -0.386 OA
ATOM     11  H   UNL     1       8.076   0.355  27.492  0.00  0.00    +0.210 HD
ENDBRANCH   4  10
BRANCH   5  12
ATOM     12  O   UNL     1       6.417  -1.412  27.060  0.00  0.00    -0.384 OA
ATOM     13  H   UNL     1       5.575  -0.960  27.269  0.00  0.00    +0.210 HD
ENDBRANCH   5  12
BRANCH   2  14
ATOM     14  C   UNL     1       9.013  -0.030  22.199  0.00  0.00    +0.190 C 
BRANCH  14  15
ATOM     15  O   UNL     1       9.465  -0.992  21.241  0.00  0.00    -0.392 OA
ATOM     16  H   UNL     1       9.978  -0.506  20.574  0.00  0.00    +0.210 HD
ENDBRANCH  14  15
ENDBRANCH   2  14
ENDBRANCH   1   6
BRANCH   1  17
ATOM     17  C   UNL     1       5.855  -3.810  24.199  0.00  0.00    +0.183 C 
ATOM     18  C   UNL     1       6.542  -5.184  24.430  0.00  0.00    +0.178 C 
ATOM     19  O   UNL     1       7.489  -5.486  23.376  0.00  0.00    -0.341 OA
ATOM     20  C   UNL     1       6.899  -5.529  22.077  0.00  0.00    +0.279 C 
ATOM     21  C   UNL     1       6.234  -4.193  21.715  0.00  0.00    +0.201 C 
ATOM     22  C   UNL     1       5.207  -3.825  22.800  0.00  0.00    +0.179 C 
BRANCH  20  23
ATOM     23  O   UNL     1       5.941  -6.577  22.002  0.00  0.00    -0.365 OA
ATOM     24  H   UNL     1       6.376  -7.305  21.521  0.00  0.00    +0.213 HD
ENDBRANCH  20  23
BRANCH  21  25
ATOM     25  O   UNL     1       7.214  -3.166  21.554  0.00  0.00    -0.384 OA
ATOM     26  H   UNL     1       7.052  -2.738  20.686  0.00  0.00    +0.210 HD
ENDBRANCH  21  25
BRANCH  22  27
ATOM     27  O   UNL     1       4.087  -4.723  22.780  0.00  0.00    -0.386 OA
ATOM     28  H   UNL     1       3.884  -4.986  23.704  0.00  0.00    +0.210 HD
ENDBRANCH  22  27
BRANCH  18  29
ATOM     29  C   UNL     1       7.323  -5.227  25.751  0.00  0.00    +0.190 C 
BRANCH  29  30
ATOM     30  O   UNL     1       6.687  -4.379  26.709  0.00  0.00    -0.392 OA
ATOM     31  H   UNL     1       6.523  -4.948  27.486  0.00  0.00    +0.210 HD
ENDBRANCH  29  30
ENDBRANCH  18  29
ENDBRANCH   1  17
TORSDOF 12
ENDMDL
MODEL 8
REMARK VINA RESULT:      -5.5      2.461      5.720
REMARK  Name = 
REMARK  12 active torsions:
REMARK  status: ('A' for Active; 'I' for Inactive)
REMARK    1  A    between atoms: O_1  and  C_2
REMARK    2  A    between atoms: C_2  and  C_3
REMARK    3  A    between atoms: C_6  and  O_8
REMARK    4  A    between atoms: O_8  and  C_9
REMARK    5  A    between atoms: C_11  and  O_13
REMARK    6  A    between atoms: C_14  and  O_16
REMARK    7  A    between atoms: C_17  and  O_19
REMARK    8  A    between atoms: C_21  and  C_23
REMARK    9  A    between atoms: C_23  and  O_24
REMARK   10  A    between atoms: C_25  and  O_27
REMARK   11  A    between atoms: C_28  and  O_30
REMARK   12  A    between atoms: C_31  and  O_33
REMARK                            x       y       z     vdW  Elec       q    Type
REMARK                         _______ _______ _______ _____ _____    ______ ____
ROOT
ATOM      1  O   UNL     1       6.784  -4.099  23.864  0.00  0.00    -0.340 OA
ENDROOT
BRANCH   1   6
ATOM      2  C   UNL     1       4.237  -4.064  24.994  0.00  0.00    +0.178 C 
ATOM      3  C   UNL     1       3.770  -5.528  24.956  0.00  0.00    +0.177 C 
ATOM      4  C   UNL     1       4.814  -6.401  24.235  0.00  0.00    +0.179 C 
ATOM      5  C   UNL     1       5.176  -5.787  22.880  0.00  0.00    +0.201 C 
ATOM      6  C   UNL     1       5.625  -4.326  23.066  0.00  0.00    +0.282 C 
ATOM      7  O   UNL     1       4.544  -3.597  23.663  0.00  0.00    -0.341 OA
BRANCH   3   8
ATOM      8  O   UNL     1       3.518  -6.004  26.284  0.00  0.00    -0.386 OA
ATOM      9  H   UNL     1       3.420  -5.236  26.873  0.00  0.00    +0.210 HD
ENDBRANCH   3   8
BRANCH   4  10
ATOM     10  O   UNL     1       4.294  -7.723  24.020  0.00  0.00    -0.386 OA
ATOM     11  H   UNL     1       4.643  -8.267  24.754  0.00  0.00    +0.210 HD
ENDBRANCH   4  10
BRANCH   5  12
ATOM     12  O   UNL     1       6.143  -6.614  22.224  0.00  0.00    -0.384 OA
ATOM     13  H   UNL     1       5.681  -7.417  21.907  0.00  0.00    +0.210 HD
ENDBRANCH   5  12
BRANCH   2  14
ATOM     14  C   UNL     1       3.164  -3.152  25.604  0.00  0.00    +0.190 C 
BRANCH  14  15
ATOM     15  O   UNL     1       3.704  -1.843  25.806  0.00  0.00    -0.392 OA
ATOM     16  H   UNL     1       3.021  -1.323  26.261  0.00  0.00    +0.210 HD
ENDBRANCH  14  15
ENDBRANCH   2  14
ENDBRANCH   1   6
BRANCH   1  17
ATOM     17  C   UNL     1       8.000  -3.637  23.268  0.00  0.00    +0.183 C 
ATOM     18  C   UNL     1       9.059  -3.577  24.403  0.00  0.00    +0.178 C 
ATOM     19  O   UNL     1       8.743  -2.542  25.366  0.00  0.00    -0.341 OA
ATOM     20  C   UNL     1       8.670  -1.236  24.794  0.00  0.00    +0.279 C 
ATOM     21  C   UNL     1       7.606  -1.162  23.689  0.00  0.00    +0.201 C 
ATOM     22  C   UNL     1       7.898  -2.238  22.628  0.00  0.00    +0.179 C 
BRANCH  20  23
ATOM     23  O   UNL     1       9.934  -0.854  24.268  0.00  0.00    -0.365 OA
ATOM     24  H   UNL     1       9.753  -0.156  23.611  0.00  0.00    +0.213 HD
ENDBRANCH  20  23
BRANCH  21  25
ATOM     25  O   UNL     1       6.295  -1.312  24.237  0.00  0.00    -0.384 OA
ATOM     26  H   UNL     1       5.677  -0.815  23.659  0.00  0.00    +0.210 HD
ENDBRANCH  21  25
BRANCH  22  27
ATOM     27  O   UNL     1       9.098  -1.935  21.900  0.00  0.00    -0.386 OA
ATOM     28  H   UNL     1       8.870  -1.849  20.949  0.00  0.00    +0.210 HD
ENDBRANCH  22  27
BRANCH  18  29
ATOM     29  C   UNL     1       9.147  -4.895  25.185  0.00  0.00    +0.190 C 
BRANCH  29  30
ATOM     30  O   UNL     1      10.461  -5.440  25.054  0.00  0.00    -0.392 OA
ATOM     31  H   UNL     1      10.728  -5.687  25.961  0.00  0.00    +0.210 HD
ENDBRANCH  29  30
ENDBRANCH  18  29
ENDBRANCH   1  17
TORSDOF 12
ENDMDL
MODEL 9
REMARK VINA RESULT:      -5.5      3.249      6.347
REMARK  Name = 
REMARK  12 active torsions:
REMARK  status: ('A' for Active; 'I' for Inactive)
REMARK    1  A    between atoms: O_1  and  C_2
REMARK    2  A    between atoms: C_2  and  C_3
REMARK    3  A    between atoms: C_6  and  O_8
REMARK    4  A    between atoms: O_8  and  C_9
REMARK    5  A    between atoms: C_11  and  O_13
REMARK    6  A    between atoms: C_14  and  O_16
REMARK    7  A    between atoms: C_17  and  O_19
REMARK    8  A    between atoms: C_21  and  C_23
REMARK    9  A    between atoms: C_23  and  O_24
REMARK   10  A    between atoms: C_25  and  O_27
REMARK   11  A    between atoms: C_28  and  O_30
REMARK   12  A    between atoms: C_31  and  O_33
REMARK                            x       y       z     vdW  Elec       q    Type
REMARK                         _______ _______ _______ _____ _____    ______ ____
ROOT
ATOM      1  O   UNL     1       5.930  -4.907  24.866  0.00  0.00    -0.340 OA
ENDROOT
BRANCH   1   6
ATOM      2  C   UNL     1       4.121  -6.398  26.374  0.00  0.00    +0.178 C 
ATOM      3  C   UNL     1       3.200  -7.064  25.338  0.00  0.00    +0.177 C 
ATOM      4  C   UNL     1       3.557  -6.580  23.920  0.00  0.00    +0.179 C 
ATOM      5  C   UNL     1       3.605  -5.051  23.876  0.00  0.00    +0.201 C 
ATOM      6  C   UNL     1       4.561  -4.521  24.961  0.00  0.00    +0.282 C 
ATOM      7  O   UNL     1       4.079  -4.961  26.237  0.00  0.00    -0.341 OA
BRANCH   3   8
ATOM      8  O   UNL     1       3.286  -8.490  25.441  0.00  0.00    -0.386 OA
ATOM      9  H   UNL     1       2.472  -8.875  25.075  0.00  0.00    +0.210 HD
ENDBRANCH   3   8
BRANCH   4  10
ATOM     10  O   UNL     1       2.577  -7.040  22.976  0.00  0.00    -0.386 OA
ATOM     11  H   UNL     1       1.864  -6.371  22.988  0.00  0.00    +0.210 HD
ENDBRANCH   4  10
BRANCH   5  12
ATOM     12  O   UNL     1       3.933  -4.621  22.551  0.00  0.00    -0.384 OA
ATOM     13  H   UNL     1       3.897  -5.404  21.966  0.00  0.00    +0.210 HD
ENDBRANCH   5  12
BRANCH   2  14
ATOM     14  C   UNL     1       3.712  -6.772  27.805  0.00  0.00    +0.190 C 
BRANCH  14  15
ATOM     15  O   UNL     1       2.443  -7.431  27.785  0.00  0.00    -0.392 OA
ATOM     16  H   UNL     1       2.387  -7.909  26.941  0.00  0.00    +0.210 HD
ENDBRANCH  14  15
ENDBRANCH   2  14
ENDBRANCH   1   6
BRANCH   1  17
ATOM     17  C   UNL     1       6.956  -3.923  24.705  0.00  0.00    +0.183 C 
ATOM     18  C   UNL     1       7.890  -4.433  23.574  0.00  0.00    +0.178 C 
ATOM     19  O   UNL     1       8.620  -5.616  23.984  0.00  0.00    -0.341 OA
ATOM     20  C   UNL     1       9.436  -5.408  25.137  0.00  0.00    +0.279 C 
ATOM     21  C   UNL     1       8.603  -4.952  26.344  0.00  0.00    +0.201 C 
ATOM     22  C   UNL     1       7.810  -3.689  25.967  0.00  0.00    +0.179 C 
BRANCH  20  23
ATOM     23  O   UNL     1      10.447  -4.447  24.863  0.00  0.00    -0.365 OA
ATOM     24  H   UNL     1      10.795  -4.668  23.979  0.00  0.00    +0.213 HD
ENDBRANCH  20  23
BRANCH  21  25
ATOM     25  O   UNL     1       7.736  -5.999  26.786  0.00  0.00    -0.384 OA
ATOM     26  H   UNL     1       8.104  -6.349  27.626  0.00  0.00    +0.210 HD
ENDBRANCH  21  25
BRANCH  22  27
ATOM     27  O   UNL     1       8.684  -2.566  25.775  0.00  0.00    -0.386 OA
ATOM     28  H   UNL     1       8.135  -1.771  25.604  0.00  0.00    +0.210 HD
ENDBRANCH  22  27
BRANCH  18  29
ATOM     29  C   UNL     1       7.113  -4.813  22.306  0.00  0.00    +0.190 C 
BRANCH  29  30
ATOM     30  O   UNL     1       6.679  -6.171  22.402  0.00  0.00    -0.392 OA
ATOM     31  H   UNL     1       7.460  -6.669  22.713  0.00  0.00    +0.210 HD
ENDBRANCH  29  30
ENDBRANCH  18  29
ENDBRANCH   1  17
TORSDOF 12
ENDMDL
