MODEL 1
REMARK VINA RESULT:      -4.2      0.000      0.000
REMARK  Name = 
REMARK  7 active torsions:
REMARK  status: ('A' for Active; 'I' for Inactive)
REMARK    1  A    between atoms: C_1  and  C_2
REMARK    2  A    between atoms: C_2  and  C_4
REMARK    3  A    between atoms: C_4  and  C_5
REMARK    4  A    between atoms: C_5  and  CA_6
REMARK    5  A    between atoms: CA_6  and  N_8
REMARK    6  A    between atoms: CA_6  and  C_9
REMARK    7  A    between atoms: C_9  and  O_10
REMARK                            x       y       z     vdW  Elec       q    Type
REMARK                         _______ _______ _______ _____ _____    ______ ____
ROOT
ATOM      1  CA  UNL     1       7.994  -4.804  25.973  0.00  0.00    +0.161 C 
ENDROOT
BRANCH   1   2
ATOM      2  N   UNL     1       8.013  -5.636  27.209  0.00  0.00    -0.318 NA
ATOM      3  H1  UNL     1       8.378  -6.563  26.955  0.00  0.00    +0.119 HD
ATOM      4  H2  UNL     1       8.724  -5.262  27.841  0.00  0.00    +0.119 HD
ENDBRANCH   1   2
BRANCH   1   5
ATOM      5  C   UNL     1       9.352  -4.963  25.268  0.00  0.00    +0.322 C 
ATOM      6  OXT UNL     1       9.852  -4.144  24.515  0.00  0.00    -0.249 OA
BRANCH   5   7
ATOM      7  O   UNL     1       9.933  -6.152  25.583  0.00  0.00    -0.480 OA
ATOM      8  H   UNL     1      10.071  -6.633  24.731  0.00  0.00    +0.295 HD
ENDBRANCH   5   7
ENDBRANCH   1   5
BRANCH   1   9
ATOM      9  C   UNL     1       6.883  -5.244  25.015  0.00  0.00    +0.037 C 
BRANCH   9  10
ATOM     10  C   UNL     1       6.425  -4.139  24.060  0.00  0.00    +0.076 C 
BRANCH  10  12
ATOM     11  C   UNL     1       7.179  -5.702  22.167  0.00  0.00    +0.086 C 
ATOM     12  C   UNL     1       6.213  -4.650  22.645  0.00  0.00    +0.130 C 
ATOM     13  O   UNL     1       5.312  -4.239  21.919  0.00  0.00    -0.298 OA
ENDBRANCH  10  12
ENDBRANCH   9  10
ENDBRANCH   1   9
TORSDOF 6
ENDMDL
MODEL 2
REMARK VINA RESULT:      -4.1      2.910      3.428
REMARK  Name = 
REMARK  7 active torsions:
REMARK  status: ('A' for Active; 'I' for Inactive)
REMARK    1  A    between atoms: C_1  and  C_2
REMARK    2  A    between atoms: C_2  and  C_4
REMARK    3  A    between atoms: C_4  and  C_5
REMARK    4  A    between atoms: C_5  and  CA_6
REMARK    5  A    between atoms: CA_6  and  N_8
REMARK    6  A    between atoms: CA_6  and  C_9
REMARK    7  A    between atoms: C_9  and  O_10
REMARK                            x       y       z     vdW  Elec       q    Type
REMARK                         _______ _______ _______ _____ _____    ______ ____
ROOT
ATOM      1  CA  UNL     1       8.697  -5.215  25.275  0.00  0.00    +0.161 C 
ENDROOT
BRANCH   1   2
ATOM      2  N   UNL     1      10.142  -5.548  25.426  0.00  0.00    -0.318 NA
ATOM      3  H1  UNL     1      10.471  -5.921  24.526  0.00  0.00    +0.119 HD
ATOM      4  H2  UNL     1      10.666  -4.676  25.531  0.00  0.00    +0.119 HD
ENDBRANCH   1   2
BRANCH   1   5
ATOM      5  C   UNL     1       8.134  -4.887  26.669  0.00  0.00    +0.322 C 
ATOM      6  OXT UNL     1       7.828  -3.772  27.057  0.00  0.00    -0.249 OA
BRANCH   5   7
ATOM      7  O   UNL     1       8.028  -6.007  27.432  0.00  0.00    -0.480 OA
ATOM      8  H   UNL     1       8.478  -6.732  26.934  0.00  0.00    +0.295 HD
ENDBRANCH   5   7
ENDBRANCH   1   5
BRANCH   1   9
ATOM      9  C   UNL     1       8.490  -4.005  24.359  0.00  0.00    +0.037 C 
BRANCH   9  10
ATOM     10  C   UNL     1       9.709  -3.083  24.277  0.00  0.00    +0.076 C 
BRANCH  10  12
ATOM     11  C   UNL     1       8.286  -1.598  22.739  0.00  0.00    +0.086 C 
ATOM     12  C   UNL     1       9.646  -2.148  23.082  0.00  0.00    +0.130 C 
ATOM     13  O   UNL     1      10.637  -1.847  22.422  0.00  0.00    -0.298 OA
ENDBRANCH  10  12
ENDBRANCH   9  10
ENDBRANCH   1   9
TORSDOF 6
ENDMDL
MODEL 3
REMARK VINA RESULT:      -4.1      2.108      2.716
REMARK  Name = 
REMARK  7 active torsions:
REMARK  status: ('A' for Active; 'I' for Inactive)
REMARK    1  A    between atoms: C_1  and  C_2
REMARK    2  A    between atoms: C_2  and  C_4
REMARK    3  A    between atoms: C_4  and  C_5
REMARK    4  A    between atoms: C_5  and  CA_6
REMARK    5  A    between atoms: CA_6  and  N_8
REMARK    6  A    between atoms: CA_6  and  C_9
REMARK    7  A    between atoms: C_9  and  O_10
REMARK                            x       y       z     vdW  Elec       q    Type
REMARK                         _______ _______ _______ _____ _____    ______ ____
ROOT
ATOM      1  CA  UNL     1       8.115  -4.728  25.976  0.00  0.00    +0.161 C 
ENDROOT
BRANCH   1   2
ATOM      2  N   UNL     1       8.219  -5.627  27.160  0.00  0.00    -0.318 NA
ATOM      3  H1  UNL     1       7.484  -5.354  27.824  0.00  0.00    +0.119 HD
ATOM      4  H2  UNL     1       7.949  -6.571  26.875  0.00  0.00    +0.119 HD
ENDBRANCH   1   2
BRANCH   1   5
ATOM      5  C   UNL     1       9.483  -4.704  25.271  0.00  0.00    +0.322 C 
ATOM      6  OXT UNL     1       9.822  -3.894  24.426  0.00  0.00    -0.249 OA
BRANCH   5   7
ATOM      7  O   UNL     1      10.276  -5.720  25.705  0.00  0.00    -0.480 OA
ATOM      8  H   UNL     1      10.337  -5.632  26.687  0.00  0.00    +0.295 HD
ENDBRANCH   5   7
ENDBRANCH   1   5
BRANCH   1   9
ATOM      9  C   UNL     1       7.056  -5.221  24.986  0.00  0.00    +0.037 C 
BRANCH   9  10
ATOM     10  C   UNL     1       5.624  -5.110  25.515  0.00  0.00    +0.076 C 
BRANCH  10  12
ATOM     11  C   UNL     1       4.087  -7.119  25.073  0.00  0.00    +0.086 C 
ATOM     12  C   UNL     1       5.078  -6.447  25.987  0.00  0.00    +0.130 C 
ATOM     13  O   UNL     1       5.414  -6.964  27.050  0.00  0.00    -0.298 OA
ENDBRANCH  10  12
ENDBRANCH   9  10
ENDBRANCH   1   9
TORSDOF 6
ENDMDL
MODEL 4
REMARK VINA RESULT:      -4.1      5.328      6.234
REMARK  Name = 
REMARK  7 active torsions:
REMARK  status: ('A' for Active; 'I' for Inactive)
REMARK    1  A    between atoms: C_1  and  C_2
REMARK    2  A    between atoms: C_2  and  C_4
REMARK    3  A    between atoms: C_4  and  C_5
REMARK    4  A    between atoms: C_5  and  CA_6
REMARK    5  A    between atoms: CA_6  and  N_8
REMARK    6  A    between atoms: CA_6  and  C_9
REMARK    7  A    between atoms: C_9  and  O_10
REMARK                            x       y       z     vdW  Elec       q    Type
REMARK                         _______ _______ _______ _____ _____    ______ ____
ROOT
ATOM      1  CA  UNL     1      10.114  -1.798  23.313  0.00  0.00    +0.161 C 
ENDROOT
BRANCH   1   2
ATOM      2  N   UNL     1       9.955  -3.122  23.978  0.00  0.00    -0.318 NA
ATOM      3  H1  UNL     1      10.824  -3.320  24.490  0.00  0.00    +0.119 HD
ATOM      4  H2  UNL     1       9.255  -3.032  24.717  0.00  0.00    +0.119 HD
ENDBRANCH   1   2
BRANCH   1   5
ATOM      5  C   UNL     1       9.126  -1.732  22.136  0.00  0.00    +0.322 C 
ATOM      6  OXT UNL     1       8.022  -2.250  22.117  0.00  0.00    -0.249 OA
BRANCH   5   7
ATOM      7  O   UNL     1       9.645  -1.023  21.098  0.00  0.00    -0.480 OA
ATOM      8  H   UNL     1       9.612  -1.615  20.307  0.00  0.00    +0.295 HD
ENDBRANCH   5   7
ENDBRANCH   1   5
BRANCH   1   9
ATOM      9  C   UNL     1       9.816  -0.645  24.276  0.00  0.00    +0.037 C 
BRANCH   9  10
ATOM     10  C   UNL     1      10.778   0.537  24.134  0.00  0.00    +0.076 C 
BRANCH  10  12
ATOM     11  C   UNL     1       9.500   2.764  24.119  0.00  0.00    +0.086 C 
ATOM     12  C   UNL     1      10.177   1.676  23.328  0.00  0.00    +0.130 C 
ATOM     13  O   UNL     1      10.231   1.722  22.102  0.00  0.00    -0.298 OA
ENDBRANCH  10  12
ENDBRANCH   9  10
ENDBRANCH   1   9
TORSDOF 6
ENDMDL
MODEL 5
REMARK VINA RESULT:      -4.1      1.867      2.134
REMARK  Name = 
REMARK  7 active torsions:
REMARK  status: ('A' for Active; 'I' for Inactive)
REMARK    1  A    between atoms: C_1  and  C_2
REMARK    2  A    between atoms: C_2  and  C_4
REMARK    3  A    between atoms: C_4  and  C_5
REMARK    4  A    between atoms: C_5  and  CA_6
REMARK    5  A    between atoms: CA_6  and  N_8
REMARK    6  A    between atoms: CA_6  and  C_9
REMARK    7  A    between atoms: C_9  and  O_10
REMARK                            x       y       z     vdW  Elec       q    Type
REMARK                         _______ _______ _______ _____ _____    ______ ____
ROOT
ATOM      1  CA  UNL     1       8.679  -5.466  25.207  0.00  0.00    +0.161 C 
ENDROOT
BRANCH   1   2
ATOM      2  N   UNL     1      10.165  -5.537  25.283  0.00  0.00    -0.318 NA
ATOM      3  H1  UNL     1      10.432  -5.449  26.272  0.00  0.00    +0.119 HD
ATOM      4  H2  UNL     1      10.457  -6.486  25.038  0.00  0.00    +0.119 HD
ENDBRANCH   1   2
BRANCH   1   5
ATOM      5  C   UNL     1       8.162  -4.849  26.519  0.00  0.00    +0.322 C 
ATOM      6  OXT UNL     1       7.986  -3.658  26.712  0.00  0.00    -0.249 OA
BRANCH   5   7
ATOM      7  O   UNL     1       7.934  -5.807  27.456  0.00  0.00    -0.480 OA
ATOM      8  H   UNL     1       7.250  -5.445  28.070  0.00  0.00    +0.295 HD
ENDBRANCH   5   7
ENDBRANCH   1   5
BRANCH   1   9
ATOM      9  C   UNL     1       8.215  -4.597  24.034  0.00  0.00    +0.037 C 
BRANCH   9  10
ATOM     10  C   UNL     1       7.466  -5.378  22.952  0.00  0.00    +0.076 C 
BRANCH  10  12
ATOM     11  C   UNL     1       6.622  -3.011  22.422  0.00  0.00    +0.086 C 
ATOM     12  C   UNL     1       6.606  -4.478  22.081  0.00  0.00    +0.130 C 
ATOM     13  O   UNL     1       5.930  -4.906  21.149  0.00  0.00    -0.298 OA
ENDBRANCH  10  12
ENDBRANCH   9  10
ENDBRANCH   1   9
TORSDOF 6
ENDMDL
MODEL 6
REMARK VINA RESULT:      -4.0      5.545      6.427
REMARK  Name = 
REMARK  7 active torsions:
REMARK  status: ('A' for Active; 'I' for Inactive)
REMARK    1  A    between atoms: C_1  and  C_2
REMARK    2  A    between atoms: C_2  and  C_4
REMARK    3  A    between atoms: C_4  and  C_5
REMARK    4  A    between atoms: C_5  and  CA_6
REMARK    5  A    between atoms: CA_6  and  N_8
REMARK    6  A    between atoms: CA_6  and  C_9
REMARK    7  A    between atoms: C_9  and  O_10
REMARK                            x       y       z     vdW  Elec       q    Type
REMARK                         _______ _______ _______ _____ _____    ______ ____
ROOT
ATOM      1  CA  UNL     1       9.096  -1.404  22.516  0.00  0.00    +0.161 C 
ENDROOT
BRANCH   1   2
ATOM      2  N   UNL     1      10.187  -1.522  21.508  0.00  0.00    -0.318 NA
ATOM      3  H1  UNL     1      10.835  -0.738  21.656  0.00  0.00    +0.119 HD
ATOM      4  H2  UNL     1      10.750  -2.345  21.734  0.00  0.00    +0.119 HD
ENDBRANCH   1   2
BRANCH   1   5
ATOM      5  C   UNL     1       9.578  -2.062  23.821  0.00  0.00    +0.322 C 
ATOM      6  OXT UNL     1      10.182  -3.119  23.892  0.00  0.00    -0.249 OA
BRANCH   5   7
ATOM      7  O   UNL     1       9.232  -1.316  24.904  0.00  0.00    -0.480 OA
ATOM      8  H   UNL     1       8.402  -1.711  25.266  0.00  0.00    +0.295 HD
ENDBRANCH   5   7
ENDBRANCH   1   5
BRANCH   1   9
ATOM      9  C   UNL     1       8.747   0.060  22.799  0.00  0.00    +0.037 C 
BRANCH   9  10
ATOM     10  C   UNL     1       9.826   1.046  22.344  0.00  0.00    +0.076 C 
BRANCH  10  12
ATOM     11  C   UNL     1      10.719   3.205  23.409  0.00  0.00    +0.086 C 
ATOM     12  C   UNL     1      10.528   1.715  23.514  0.00  0.00    +0.130 C 
ATOM     13  O   UNL     1      10.924   1.091  24.495  0.00  0.00    -0.298 OA
ENDBRANCH  10  12
ENDBRANCH   9  10
ENDBRANCH   1   9
TORSDOF 6
ENDMDL
MODEL 7
REMARK VINA RESULT:      -4.0      3.296      3.602
REMARK  Name = 
REMARK  7 active torsions:
REMARK  status: ('A' for Active; 'I' for Inactive)
REMARK    1  A    between atoms: C_1  and  C_2
REMARK    2  A    between atoms: C_2  and  C_4
REMARK    3  A    between atoms: C_4  and  C_5
REMARK    4  A    between atoms: C_5  and  CA_6
REMARK    5  A    between atoms: CA_6  and  N_8
REMARK    6  A    between atoms: CA_6  and  C_9
REMARK    7  A    between atoms: C_9  and  O_10
REMARK                            x       y       z     vdW  Elec       q    Type
REMARK                         _______ _______ _______ _____ _____    ______ ____
ROOT
ATOM      1  CA  UNL     1       9.067  -2.151  23.476  0.00  0.00    +0.161 C 
ENDROOT
BRANCH   1   2
ATOM      2  N   UNL     1       9.819  -3.312  24.032  0.00  0.00    -0.318 NA
ATOM      3  H1  UNL     1      10.768  -3.286  23.639  0.00  0.00    +0.119 HD
ATOM      4  H2  UNL     1       9.968  -3.153  25.031  0.00  0.00    +0.119 HD
ENDBRANCH   1   2
BRANCH   1   5
ATOM      5  C   UNL     1      10.070  -1.233  22.756  0.00  0.00    +0.322 C 
ATOM      6  OXT UNL     1      10.655  -0.294  23.269  0.00  0.00    -0.249 OA
BRANCH   5   7
ATOM      7  O   UNL     1      10.220  -1.595  21.454  0.00  0.00    -0.480 OA
ATOM      8  H   UNL     1       9.555  -2.305  21.279  0.00  0.00    +0.295 HD
ENDBRANCH   5   7
ENDBRANCH   1   5
BRANCH   1   9
ATOM      9  C   UNL     1       7.998  -2.599  22.476  0.00  0.00    +0.037 C 
BRANCH   9  10
ATOM     10  C   UNL     1       7.527  -4.039  22.687  0.00  0.00    +0.076 C 
BRANCH  10  12
ATOM     11  C   UNL     1       6.267  -5.864  21.392  0.00  0.00    +0.086 C 
ATOM     12  C   UNL     1       6.374  -4.410  21.770  0.00  0.00    +0.130 C 
ATOM     13  O   UNL     1       5.567  -3.584  21.350  0.00  0.00    -0.298 OA
ENDBRANCH  10  12
ENDBRANCH   9  10
ENDBRANCH   1   9
TORSDOF 6
ENDMDL
MODEL 8
REMARK VINA RESULT:      -4.0      5.381      6.266
REMARK  Name = 
REMARK  7 active torsions:
REMARK  status: ('A' for Active; 'I' for Inactive)
REMARK    1  A    between atoms: C_1  and  C_2
REMARK    2  A    between atoms: C_2  and  C_4
REMARK    3  A    between atoms: C_4  and  C_5
REMARK    4  A    between atoms: C_5  and  CA_6
REMARK    5  A    between atoms: CA_6  and  N_8
REMARK    6  A    between atoms: CA_6  and  C_9
REMARK    7  A    between atoms: C_9  and  O_10
REMARK                            x       y       z     vdW  Elec       q    Type
REMARK                         _______ _______ _______ _____ _____    ______ ____
ROOT
ATOM      1  CA  UNL     1       9.732   1.041  23.527  0.00  0.00    +0.161 C 
ENDROOT
BRANCH   1   2
ATOM      2  N   UNL     1      10.475   2.251  23.979  0.00  0.00    -0.318 NA
ATOM      3  H1  UNL     1       9.821   3.044  23.957  0.00  0.00    +0.119 HD
ATOM      4  H2  UNL     1      10.692   2.146  24.972  0.00  0.00    +0.119 HD
ENDBRANCH   1   2
BRANCH   1   5
ATOM      5  C   UNL     1       9.791   0.989  21.991  0.00  0.00    +0.322 C 
ATOM      6  OXT UNL     1       9.623  -0.012  21.315  0.00  0.00    -0.249 OA
BRANCH   5   7
ATOM      7  O   UNL     1      10.069   2.213  21.468  0.00  0.00    -0.480 OA
ATOM      8  H   UNL     1       9.268   2.772  21.616  0.00  0.00    +0.295 HD
ENDBRANCH   5   7
ENDBRANCH   1   5
BRANCH   1   9
ATOM      9  C   UNL     1      10.351  -0.242  24.090  0.00  0.00    +0.037 C 
BRANCH   9  10
ATOM     10  C   UNL     1       9.320  -1.221  24.658  0.00  0.00    +0.076 C 
BRANCH  10  12
ATOM     11  C   UNL     1       8.182  -2.754  22.941  0.00  0.00    +0.086 C 
ATOM     12  C   UNL     1       9.311  -2.546  23.915  0.00  0.00    +0.130 C 
ATOM     13  O   UNL     1      10.168  -3.410  24.088  0.00  0.00    -0.298 OA
ENDBRANCH  10  12
ENDBRANCH   9  10
ENDBRANCH   1   9
TORSDOF 6
ENDMDL
MODEL 9
REMARK VINA RESULT:      -3.9      5.743      6.375
REMARK  Name = 
REMARK  7 active torsions:
REMARK  status: ('A' for Active; 'I' for Inactive)
REMARK    1  A    between atoms: C_1  and  C_2
REMARK    2  A    between atoms: C_2  and  C_4
REMARK    3  A    between atoms: C_4  and  C_5
REMARK    4  A    between atoms: C_5  and  CA_6
REMARK    5  A    between atoms: CA_6  and  N_8
REMARK    6  A    between atoms: CA_6  and  C_9
REMARK    7  A    between atoms: C_9  and  O_10
REMARK                            x       y       z     vdW  Elec       q    Type
REMARK                         _______ _______ _______ _____ _____    ______ ____
ROOT
ATOM      1  CA  UNL     1      10.150   1.149  22.677  0.00  0.00    +0.161 C 
ENDROOT
BRANCH   1   2
ATOM      2  N   UNL     1      10.221   2.365  21.819  0.00  0.00    -0.318 NA
ATOM      3  H1  UNL     1       9.761   2.144  20.926  0.00  0.00    +0.119 HD
ATOM      4  H2  UNL     1       9.621   3.085  22.227  0.00  0.00    +0.119 HD
ENDBRANCH   1   2
BRANCH   1   5
ATOM      5  C   UNL     1       9.938   1.602  24.132  0.00  0.00    +0.322 C 
ATOM      6  OXT UNL     1       9.354   2.617  24.472  0.00  0.00    -0.249 OA
BRANCH   5   7
ATOM      7  O   UNL     1      10.498   0.725  25.006  0.00  0.00    -0.480 OA
ATOM      8  H   UNL     1       9.755   0.208  25.404  0.00  0.00    +0.295 HD
ENDBRANCH   5   7
ENDBRANCH   1   5
BRANCH   1   9
ATOM      9  C   UNL     1       8.989   0.237  22.267  0.00  0.00    +0.037 C 
BRANCH   9  10
ATOM     10  C   UNL     1       9.424  -1.186  21.912  0.00  0.00    +0.076 C 
BRANCH  10  12
ATOM     11  C   UNL     1       8.059  -3.084  22.974  0.00  0.00    +0.086 C 
ATOM     12  C   UNL     1       9.239  -2.153  23.069  0.00  0.00    +0.130 C 
ATOM     13  O   UNL     1       9.997  -2.185  24.035  0.00  0.00    -0.298 OA
ENDBRANCH  10  12
ENDBRANCH   9  10
ENDBRANCH   1   9
TORSDOF 6
ENDMDL
