MODEL 1
REMARK VINA RESULT:      -5.8      0.000      0.000
REMARK  Name = 
REMARK  3 active torsions:
REMARK  status: ('A' for Active; 'I' for Inactive)
REMARK    1  A    between atoms: O_1  and  C_2
REMARK    2  A    between atoms: C_2  and  CA_4
REMARK    3  A    between atoms: C_14  and  O_15
REMARK                            x       y       z     vdW  Elec       q    Type
REMARK                         _______ _______ _______ _____ _____    ______ ____
ROOT
ATOM      1  CA  UNL     1       9.647   0.829  23.363  0.00  0.00    +0.152 A 
ATOM      2  C   UNL     1       9.702   0.764  24.733  0.00  0.00    +0.081 A 
ATOM      3  C   UNL     1       9.252  -0.406  25.327  0.00  0.00    +0.130 A 
ATOM      4  C   UNL     1       8.740  -1.491  24.563  0.00  0.00    +0.060 A 
ATOM      5  C   UNL     1       8.732  -1.293  23.160  0.00  0.00    +0.078 A 
ATOM      6  C   UNL     1       8.235  -2.286  22.331  0.00  0.00    +0.048 A 
ATOM      7  C   UNL     1       7.738  -3.482  22.839  0.00  0.00    +0.044 A 
ATOM      8  C   UNL     1       7.738  -3.715  24.203  0.00  0.00    +0.040 A 
ATOM      9 CL   UNL     1       7.114  -4.676  21.770  0.00  0.00    -0.083 Cl
ATOM     10  C   UNL     1       8.236  -2.732  25.059  0.00  0.00    +0.055 A 
ATOM     11 CL   UNL     1       8.201  -3.110  26.750  0.00  0.00    -0.083 Cl
ATOM     12  N   UNL     1       9.180  -0.174  22.564  0.00  0.00    -0.240 NA
ENDROOT
BRANCH   1  13
ATOM     13  C   UNL     1      10.122   2.051  22.650  0.00  0.00    +0.355 C 
ATOM     14  OXT UNL     1      10.777   2.944  23.155  0.00  0.00    -0.243 OA
BRANCH  13  15
ATOM     15  O   UNL     1       9.724   2.031  21.354  0.00  0.00    -0.476 OA
ATOM     16  H   UNL     1       9.937   2.898  20.940  0.00  0.00    +0.295 HD
ENDBRANCH  13  15
ENDBRANCH   1  13
BRANCH   3  17
ATOM     17  O   UNL     1       9.344  -0.408  26.693  0.00  0.00    -0.506 OA
ATOM     18  H   UNL     1       9.253   0.500  27.034  0.00  0.00    +0.292 HD
ENDBRANCH   3  17
TORSDOF 3
ENDMDL
MODEL 2
REMARK VINA RESULT:      -5.7      3.285      5.577
REMARK  Name = 
REMARK  3 active torsions:
REMARK  status: ('A' for Active; 'I' for Inactive)
REMARK    1  A    between atoms: O_1  and  C_2
REMARK    2  A    between atoms: C_2  and  CA_4
REMARK    3  A    between atoms: C_14  and  O_15
REMARK                            x       y       z     vdW  Elec       q    Type
REMARK                         _______ _______ _______ _____ _____    ______ ____
ROOT
ATOM      1  CA  UNL     1       9.272  -3.081  24.977  0.00  0.00    +0.152 A 
ATOM      2  C   UNL     1       9.844  -2.956  23.735  0.00  0.00    +0.081 A 
ATOM      3  C   UNL     1       9.872  -1.685  23.180  0.00  0.00    +0.130 A 
ATOM      4  C   UNL     1       9.323  -0.557  23.849  0.00  0.00    +0.060 A 
ATOM      5  C   UNL     1       8.757  -0.824  25.120  0.00  0.00    +0.078 A 
ATOM      6  C   UNL     1       8.180   0.208  25.844  0.00  0.00    +0.048 A 
ATOM      7  C   UNL     1       8.139   1.510  25.354  0.00  0.00    +0.044 A 
ATOM      8  C   UNL     1       8.689   1.810  24.121  0.00  0.00    +0.040 A 
ATOM      9 CL   UNL     1       7.395   2.753  26.281  0.00  0.00    -0.083 Cl
ATOM     10  C   UNL     1       9.279   0.789  23.374  0.00  0.00    +0.055 A 
ATOM     11 CL   UNL     1       9.946   1.257  21.845  0.00  0.00    -0.083 Cl
ATOM     12  N   UNL     1       8.736  -2.044  25.683  0.00  0.00    -0.240 NA
ENDROOT
BRANCH   1  13
ATOM     13  C   UNL     1       9.212  -4.414  25.645  0.00  0.00    +0.355 C 
ATOM     14  OXT UNL     1       8.503  -4.688  26.595  0.00  0.00    -0.243 OA
BRANCH  13  15
ATOM     15  O   UNL     1      10.057  -5.287  25.043  0.00  0.00    -0.476 OA
ATOM     16  H   UNL     1      10.755  -5.552  25.684  0.00  0.00    +0.295 HD
ENDBRANCH  13  15
ENDBRANCH   1  13
BRANCH   3  17
ATOM     17  O   UNL     1      10.465  -1.629  21.946  0.00  0.00    -0.506 OA
ATOM     18  H   UNL     1       9.804  -1.393  21.270  0.00  0.00    +0.292 HD
ENDBRANCH   3  17
TORSDOF 3
ENDMDL
MODEL 3
REMARK VINA RESULT:      -5.7      5.729      7.764
REMARK  Name = 
REMARK  3 active torsions:
REMARK  status: ('A' for Active; 'I' for Inactive)
REMARK    1  A    between atoms: O_1  and  C_2
REMARK    2  A    between atoms: C_2  and  CA_4
REMARK    3  A    between atoms: C_14  and  O_15
REMARK                            x       y       z     vdW  Elec       q    Type
REMARK                         _______ _______ _______ _____ _____    ______ ____
ROOT
ATOM      1  CA  UNL     1       5.143  -6.412  26.652  0.00  0.00    +0.152 A 
ATOM      2  C   UNL     1       4.431  -6.855  25.565  0.00  0.00    +0.081 A 
ATOM      3  C   UNL     1       4.891  -6.474  24.313  0.00  0.00    +0.130 A 
ATOM      4  C   UNL     1       6.038  -5.650  24.149  0.00  0.00    +0.060 A 
ATOM      5  C   UNL     1       6.678  -5.256  25.351  0.00  0.00    +0.078 A 
ATOM      6  C   UNL     1       7.795  -4.438  25.297  0.00  0.00    +0.048 A 
ATOM      7  C   UNL     1       8.311  -3.985  24.087  0.00  0.00    +0.044 A 
ATOM      8  C   UNL     1       7.719  -4.356  22.893  0.00  0.00    +0.040 A 
ATOM      9 CL   UNL     1       9.687  -2.954  24.073  0.00  0.00    -0.083 Cl
ATOM     10  C   UNL     1       6.595  -5.183  22.920  0.00  0.00    +0.055 A 
ATOM     11 CL   UNL     1       5.923  -5.599  21.379  0.00  0.00    -0.083 Cl
ATOM     12  N   UNL     1       6.258  -5.629  26.573  0.00  0.00    -0.240 NA
ENDROOT
BRANCH   1  13
ATOM     13  C   UNL     1       4.716  -6.787  28.032  0.00  0.00    +0.355 C 
ATOM     14  OXT UNL     1       3.722  -6.364  28.594  0.00  0.00    -0.243 OA
BRANCH  13  15
ATOM     15  O   UNL     1       5.588  -7.669  28.577  0.00  0.00    -0.476 OA
ATOM     16  H   UNL     1       5.267  -7.927  29.472  0.00  0.00    +0.295 HD
ENDBRANCH  13  15
ENDBRANCH   1  13
BRANCH   3  17
ATOM     17  O   UNL     1       4.142  -6.958  23.273  0.00  0.00    -0.506 OA
ATOM     18  H   UNL     1       3.476  -7.586  23.607  0.00  0.00    +0.292 HD
ENDBRANCH   3  17
TORSDOF 3
ENDMDL
MODEL 4
REMARK VINA RESULT:      -5.7      3.819      5.394
REMARK  Name = 
REMARK  3 active torsions:
REMARK  status: ('A' for Active; 'I' for Inactive)
REMARK    1  A    between atoms: O_1  and  C_2
REMARK    2  A    between atoms: C_2  and  CA_4
REMARK    3  A    between atoms: C_14  and  O_15
REMARK                            x       y       z     vdW  Elec       q    Type
REMARK                         _______ _______ _______ _____ _____    ______ ____
ROOT
ATOM      1  CA  UNL     1       6.872  -4.630  22.521  0.00  0.00    +0.152 A 
ATOM      2  C   UNL     1       6.794  -4.825  23.878  0.00  0.00    +0.081 A 
ATOM      3  C   UNL     1       7.353  -3.848  24.688  0.00  0.00    +0.130 A 
ATOM      4  C   UNL     1       7.995  -2.698  24.150  0.00  0.00    +0.060 A 
ATOM      5  C   UNL     1       8.013  -2.621  22.735  0.00  0.00    +0.078 A 
ATOM      6  C   UNL     1       8.630  -1.546  22.115  0.00  0.00    +0.048 A 
ATOM      7  C   UNL     1       9.241  -0.533  22.847  0.00  0.00    +0.044 A 
ATOM      8  C   UNL     1       9.235  -0.569  24.230  0.00  0.00    +0.040 A 
ATOM      9 CL   UNL     1      10.012   0.770  22.032  0.00  0.00    -0.083 Cl
ATOM     10  C   UNL     1       8.616  -1.639  24.878  0.00  0.00    +0.055 A 
ATOM     11 CL   UNL     1       8.654  -1.600  26.610  0.00  0.00    -0.083 Cl
ATOM     12  N   UNL     1       7.461  -3.548  21.933  0.00  0.00    -0.240 NA
ENDROOT
BRANCH   1  13
ATOM     13  C   UNL     1       6.286  -5.633  21.583  0.00  0.00    +0.355 C 
ATOM     14  OXT UNL     1       5.948  -5.402  20.437  0.00  0.00    -0.243 OA
BRANCH  13  15
ATOM     15  O   UNL     1       6.185  -6.843  22.184  0.00  0.00    -0.476 OA
ATOM     16  H   UNL     1       7.062  -7.291  22.153  0.00  0.00    +0.295 HD
ENDBRANCH  13  15
ENDBRANCH   1  13
BRANCH   3  17
ATOM     17  O   UNL     1       7.231  -4.099  26.029  0.00  0.00    -0.506 OA
ATOM     18  H   UNL     1       7.561  -4.994  26.231  0.00  0.00    +0.292 HD
ENDBRANCH   3  17
TORSDOF 3
ENDMDL
MODEL 5
REMARK VINA RESULT:      -5.7      4.202      5.688
REMARK  Name = 
REMARK  3 active torsions:
REMARK  status: ('A' for Active; 'I' for Inactive)
REMARK    1  A    between atoms: O_1  and  C_2
REMARK    2  A    between atoms: C_2  and  CA_4
REMARK    3  A    between atoms: C_14  and  O_15
REMARK                            x       y       z     vdW  Elec       q    Type
REMARK                         _______ _______ _______ _____ _____    ______ ____
ROOT
ATOM      1  CA  UNL     1      11.947   4.985  23.184  0.00  0.00    +0.152 A 
ATOM      2  C   UNL     1      11.093   5.971  23.613  0.00  0.00    +0.081 A 
ATOM      3  C   UNL     1       9.897   5.565  24.185  0.00  0.00    +0.130 A 
ATOM      4  C   UNL     1       9.551   4.192  24.314  0.00  0.00    +0.060 A 
ATOM      5  C   UNL     1      10.516   3.275  23.826  0.00  0.00    +0.078 A 
ATOM      6  C   UNL     1      10.263   1.914  23.892  0.00  0.00    +0.048 A 
ATOM      7  C   UNL     1       9.078   1.416  24.425  0.00  0.00    +0.044 A 
ATOM      8  C   UNL     1       8.117   2.280  24.919  0.00  0.00    +0.040 A 
ATOM      9 CL   UNL     1       8.802  -0.281  24.466  0.00  0.00    -0.083 Cl
ATOM     10  C   UNL     1       8.349   3.655  24.868  0.00  0.00    +0.055 A 
ATOM     11 CL   UNL     1       7.094   4.660  25.513  0.00  0.00    -0.083 Cl
ATOM     12  N   UNL     1      11.688   3.648  23.285  0.00  0.00    -0.240 NA
ENDROOT
BRANCH   1  13
ATOM     13  C   UNL     1      13.257   5.342  22.565  0.00  0.00    +0.355 C 
ATOM     14  OXT UNL     1      13.393   5.904  21.495  0.00  0.00    -0.243 OA
BRANCH  13  15
ATOM     15  O   UNL     1      14.281   4.956  23.364  0.00  0.00    -0.476 OA
ATOM     16  H   UNL     1      14.126   5.299  24.274  0.00  0.00    +0.295 HD
ENDBRANCH  13  15
ENDBRANCH   1  13
BRANCH   3  17
ATOM     17  O   UNL     1       9.099   6.597  24.599  0.00  0.00    -0.506 OA
ATOM     18  H   UNL     1       8.235   6.253  24.891  0.00  0.00    +0.292 HD
ENDBRANCH   3  17
TORSDOF 3
ENDMDL
MODEL 6
REMARK VINA RESULT:      -5.5      4.795      6.902
REMARK  Name = 
REMARK  3 active torsions:
REMARK  status: ('A' for Active; 'I' for Inactive)
REMARK    1  A    between atoms: O_1  and  C_2
REMARK    2  A    between atoms: C_2  and  CA_4
REMARK    3  A    between atoms: C_14  and  O_15
REMARK                            x       y       z     vdW  Elec       q    Type
REMARK                         _______ _______ _______ _____ _____    ______ ____
ROOT
ATOM      1  CA  UNL     1       5.757  -5.965  27.057  0.00  0.00    +0.152 A 
ATOM      2  C   UNL     1       6.837  -5.224  27.470  0.00  0.00    +0.081 A 
ATOM      3  C   UNL     1       7.614  -4.639  26.482  0.00  0.00    +0.130 A 
ATOM      4  C   UNL     1       7.326  -4.803  25.099  0.00  0.00    +0.060 A 
ATOM      5  C   UNL     1       6.188  -5.596  24.807  0.00  0.00    +0.078 A 
ATOM      6  C   UNL     1       5.834  -5.829  23.488  0.00  0.00    +0.048 A 
ATOM      7  C   UNL     1       6.571  -5.304  22.430  0.00  0.00    +0.044 A 
ATOM      8  C   UNL     1       7.683  -4.518  22.676  0.00  0.00    +0.040 A 
ATOM      9 CL   UNL     1       6.104  -5.638  20.810  0.00  0.00    -0.083 Cl
ATOM     10  C   UNL     1       8.057  -4.265  23.996  0.00  0.00    +0.055 A 
ATOM     11 CL   UNL     1       9.457  -3.268  24.209  0.00  0.00    -0.083 Cl
ATOM     12  N   UNL     1       5.412  -6.157  25.751  0.00  0.00    -0.240 NA
ENDROOT
BRANCH   1  13
ATOM     13  C   UNL     1       4.868  -6.619  28.061  0.00  0.00    +0.355 C 
ATOM     14  OXT UNL     1       3.769  -6.212  28.391  0.00  0.00    -0.243 OA
BRANCH  13  15
ATOM     15  O   UNL     1       5.450  -7.738  28.555  0.00  0.00    -0.476 OA
ATOM     16  H   UNL     1       6.272  -7.487  29.037  0.00  0.00    +0.295 HD
ENDBRANCH  13  15
ENDBRANCH   1  13
BRANCH   3  17
ATOM     17  O   UNL     1       8.667  -3.907  26.962  0.00  0.00    -0.506 OA
ATOM     18  H   UNL     1       9.193  -3.555  26.220  0.00  0.00    +0.292 HD
ENDBRANCH   3  17
TORSDOF 3
ENDMDL
MODEL 7
REMARK VINA RESULT:      -5.5      4.905      6.589
REMARK  Name = 
REMARK  3 active torsions:
REMARK  status: ('A' for Active; 'I' for Inactive)
REMARK    1  A    between atoms: O_1  and  C_2
REMARK    2  A    between atoms: C_2  and  CA_4
REMARK    3  A    between atoms: C_14  and  O_15
REMARK                            x       y       z     vdW  Elec       q    Type
REMARK                         _______ _______ _______ _____ _____    ______ ____
ROOT
ATOM      1  CA  UNL     1       4.682  -5.754  23.909  0.00  0.00    +0.152 A 
ATOM      2  C   UNL     1       5.149  -6.175  25.130  0.00  0.00    +0.081 A 
ATOM      3  C   UNL     1       6.350  -5.636  25.566  0.00  0.00    +0.130 A 
ATOM      4  C   UNL     1       7.084  -4.699  24.787  0.00  0.00    +0.060 A 
ATOM      5  C   UNL     1       6.496  -4.353  23.545  0.00  0.00    +0.078 A 
ATOM      6  C   UNL     1       7.144  -3.460  22.706  0.00  0.00    +0.048 A 
ATOM      7  C   UNL     1       8.365  -2.890  23.049  0.00  0.00    +0.044 A 
ATOM      8  C   UNL     1       8.965  -3.197  24.257  0.00  0.00    +0.040 A 
ATOM      9 CL   UNL     1       9.139  -1.802  21.964  0.00  0.00    -0.083 Cl
ATOM     10  C   UNL     1       8.331  -4.090  25.122  0.00  0.00    +0.055 A 
ATOM     11 CL   UNL     1       9.151  -4.412  26.613  0.00  0.00    -0.083 Cl
ATOM     12  N   UNL     1       5.325  -4.851  23.112  0.00  0.00    -0.240 NA
ENDROOT
BRANCH   1  13
ATOM     13  C   UNL     1       3.393  -6.282  23.375  0.00  0.00    +0.355 C 
ATOM     14  OXT UNL     1       2.538  -5.611  22.827  0.00  0.00    -0.243 OA
BRANCH  13  15
ATOM     15  O   UNL     1       3.304  -7.618  23.581  0.00  0.00    -0.476 OA
ATOM     16  H   UNL     1       3.510  -7.812  24.524  0.00  0.00    +0.295 HD
ENDBRANCH  13  15
ENDBRANCH   1  13
BRANCH   3  17
ATOM     17  O   UNL     1       6.752  -6.091  26.794  0.00  0.00    -0.506 OA
ATOM     18  H   UNL     1       6.484  -7.021  26.908  0.00  0.00    +0.292 HD
ENDBRANCH   3  17
TORSDOF 3
ENDMDL
MODEL 8
REMARK VINA RESULT:      -5.5      4.386      5.469
REMARK  Name = 
REMARK  3 active torsions:
REMARK  status: ('A' for Active; 'I' for Inactive)
REMARK    1  A    between atoms: O_1  and  C_2
REMARK    2  A    between atoms: C_2  and  CA_4
REMARK    3  A    between atoms: C_14  and  O_15
REMARK                            x       y       z     vdW  Elec       q    Type
REMARK                         _______ _______ _______ _____ _____    ______ ____
ROOT
ATOM      1  CA  UNL     1      11.168   5.060  23.735  0.00  0.00    +0.152 A 
ATOM      2  C   UNL     1       9.973   5.727  23.853  0.00  0.00    +0.081 A 
ATOM      3  C   UNL     1       8.830   5.045  23.464  0.00  0.00    +0.130 A 
ATOM      4  C   UNL     1       8.880   3.720  22.949  0.00  0.00    +0.060 A 
ATOM      5  C   UNL     1      10.175   3.149  22.872  0.00  0.00    +0.078 A 
ATOM      6  C   UNL     1      10.330   1.867  22.367  0.00  0.00    +0.048 A 
ATOM      7  C   UNL     1       9.242   1.119  21.927  0.00  0.00    +0.044 A 
ATOM      8  C   UNL     1       7.962   1.640  21.995  0.00  0.00    +0.040 A 
ATOM      9 CL   UNL     1       9.488  -0.459  21.290  0.00  0.00    -0.083 Cl
ATOM     10  C   UNL     1       7.779   2.926  22.504  0.00  0.00    +0.055 A 
ATOM     11 CL   UNL     1       6.144   3.495  22.556  0.00  0.00    -0.083 Cl
ATOM     12  N   UNL     1      11.293   3.787  23.260  0.00  0.00    -0.240 NA
ENDROOT
BRANCH   1  13
ATOM     13  C   UNL     1      12.441   5.724  24.141  0.00  0.00    +0.355 C 
ATOM     14  OXT UNL     1      12.545   6.551  25.028  0.00  0.00    -0.243 OA
BRANCH  13  15
ATOM     15  O   UNL     1      13.474   5.275  23.387  0.00  0.00    -0.476 OA
ATOM     16  H   UNL     1      14.320   5.577  23.789  0.00  0.00    +0.295 HD
ENDBRANCH  13  15
ENDBRANCH   1  13
BRANCH   3  17
ATOM     17  O   UNL     1       7.674   5.762  23.617  0.00  0.00    -0.506 OA
ATOM     18  H   UNL     1       7.883   6.699  23.785  0.00  0.00    +0.292 HD
ENDBRANCH   3  17
TORSDOF 3
ENDMDL
MODEL 9
REMARK VINA RESULT:      -5.5      2.971      4.453
REMARK  Name = 
REMARK  3 active torsions:
REMARK  status: ('A' for Active; 'I' for Inactive)
REMARK    1  A    between atoms: O_1  and  C_2
REMARK    2  A    between atoms: C_2  and  CA_4
REMARK    3  A    between atoms: C_14  and  O_15
REMARK                            x       y       z     vdW  Elec       q    Type
REMARK                         _______ _______ _______ _____ _____    ______ ____
ROOT
ATOM      1  CA  UNL     1       8.658  -2.455  23.100  0.00  0.00    +0.152 A 
ATOM      2  C   UNL     1       7.729  -2.729  22.126  0.00  0.00    +0.081 A 
ATOM      3  C   UNL     1       6.694  -3.586  22.467  0.00  0.00    +0.130 A 
ATOM      4  C   UNL     1       6.595  -4.174  23.758  0.00  0.00    +0.060 A 
ATOM      5  C   UNL     1       7.621  -3.815  24.668  0.00  0.00    +0.078 A 
ATOM      6  C   UNL     1       7.622  -4.349  25.946  0.00  0.00    +0.048 A 
ATOM      7  C   UNL     1       6.638  -5.238  26.367  0.00  0.00    +0.044 A 
ATOM      8  C   UNL     1       5.616  -5.606  25.511  0.00  0.00    +0.040 A 
ATOM      9 CL   UNL     1       6.694  -5.890  27.957  0.00  0.00    -0.083 Cl
ATOM     10  C   UNL     1       5.590  -5.078  24.219  0.00  0.00    +0.055 A 
ATOM     11 CL   UNL     1       4.272  -5.589  23.218  0.00  0.00    -0.083 Cl
ATOM     12  N   UNL     1       8.623  -2.972  24.362  0.00  0.00    -0.240 NA
ENDROOT
BRANCH   1  13
ATOM     13  C   UNL     1       9.797  -1.535  22.812  0.00  0.00    +0.355 C 
ATOM     14  OXT UNL     1      10.328  -0.804  23.629  0.00  0.00    -0.243 OA
BRANCH  13  15
ATOM     15  O   UNL     1      10.166  -1.626  21.512  0.00  0.00    -0.476 OA
ATOM     16  H   UNL     1      10.468  -2.545  21.327  0.00  0.00    +0.295 HD
ENDBRANCH  13  15
ENDBRANCH   1  13
BRANCH   3  17
ATOM     17  O   UNL     1       5.798  -3.808  21.455  0.00  0.00    -0.506 OA
ATOM     18  H   UNL     1       5.253  -3.014  21.313  0.00  0.00    +0.292 HD
ENDBRANCH   3  17
TORSDOF 3
ENDMDL
