MODEL 1
REMARK VINA RESULT:      -4.7      0.000      0.000
REMARK  Name = 
REMARK  48 active torsions:
REMARK  status: ('A' for Active; 'I' for Inactive)
REMARK    1  A    between atoms: C_1  and  C_2
REMARK    2  A    between atoms: C_2  and  C_3
REMARK    3  A    between atoms: C_2  and  C_4
REMARK    4  A    between atoms: C_4  and  C_5
REMARK    5  A    between atoms: C_5  and  C_6
REMARK    6  A    between atoms: C_6  and  C_7
REMARK    7  A    between atoms: C_7  and  C_9
REMARK    8  A    between atoms: C_7  and  C_10
REMARK    9  A    between atoms: C_10  and  C_11
REMARK   10  A    between atoms: C_11  and  C_12
REMARK   11  A    between atoms: C_12  and  C_13
REMARK   12  A    between atoms: C_13  and  C_15
REMARK   13  A    between atoms: C_13  and  C_16
REMARK   14  A    between atoms: C_16  and  C_17
REMARK   15  A    between atoms: C_17  and  C_18
REMARK   16  A    between atoms: C_18  and  C_19
REMARK   17  A    between atoms: C_19  and  C_21
REMARK   18  A    between atoms: C_19  and  C_22
REMARK   19  A    between atoms: C_22  and  C_23
REMARK   20  A    between atoms: C_23  and  O_24
REMARK   21  A    between atoms: O_24  and  C_25
REMARK   22  A    between atoms: C_25  and  C_26
REMARK   23  A    between atoms: C_26  and  C_28
REMARK   24  A    between atoms: C_26  and  O_34
REMARK   25  A    between atoms: C_28  and  O_29
REMARK   26  A    between atoms: O_29  and  P_30
REMARK   27  A    between atoms: P_30  and  O_31
REMARK   28  A    between atoms: P_30  and  O_32
REMARK   29  A    between atoms: O_34  and  C_35
REMARK   30  A    between atoms: C_35  and  C_36
REMARK   31  A    between atoms: C_36  and  C_37
REMARK   32  A    between atoms: C_37  and  C_39
REMARK   33  A    between atoms: C_37  and  C_40
REMARK   34  A    between atoms: C_40  and  C_41
REMARK   35  A    between atoms: C_41  and  C_42
REMARK   36  A    between atoms: C_42  and  C_43
REMARK   37  A    between atoms: C_43  and  C_45
REMARK   38  A    between atoms: C_43  and  C_46
REMARK   39  A    between atoms: C_46  and  C_47
REMARK   40  A    between atoms: C_47  and  C_48
REMARK   41  A    between atoms: C_48  and  C_49
REMARK   42  A    between atoms: C_49  and  C_51
REMARK   43  A    between atoms: C_49  and  C_52
REMARK   44  A    between atoms: C_52  and  C_53
REMARK   45  A    between atoms: C_53  and  C_54
REMARK   46  A    between atoms: C_54  and  C_55
REMARK   47  A    between atoms: C_55  and  C_56
REMARK   48  A    between atoms: C_55  and  C_57
REMARK                            x       y       z     vdW  Elec       q    Type
REMARK                         _______ _______ _______ _____ _____    ______ ____
ROOT
ATOM      1  C   UNL     1       7.009  -4.149  22.462  0.00  0.00    +0.170 C 
ENDROOT
BRANCH   1   2
ATOM      2  C   UNL     1       6.994  -4.462  23.965  0.00  0.00    +0.206 C 
BRANCH   2   3
ATOM      3  O   UNL     1       8.100  -5.278  24.305  0.00  0.00    -0.284 OA
BRANCH   3   4
ATOM      4  P   UNL     1       9.163  -4.687  25.330  0.00  0.00    +0.472 P 
ATOM      5  O   UNL     1       8.700  -4.077  26.602  0.00  0.00    -0.228 OA
BRANCH   4   6
ATOM      6  O   UNL     1      10.065  -5.997  25.533  0.00  0.00    -0.303 OA
ATOM      7  H   UNL     1      10.785  -5.792  26.158  0.00  0.00    +0.222 HD
ENDBRANCH   4   6
BRANCH   4   8
ATOM      8  O   UNL     1      10.154  -3.835  24.416  0.00  0.00    -0.303 OA
ATOM      9  H   UNL     1      10.992  -3.694  24.891  0.00  0.00    +0.222 HD
ENDBRANCH   4   8
ENDBRANCH   3   4
ENDBRANCH   2   3
ENDBRANCH   1   2
BRANCH   1  10
ATOM     10  C   UNL     1       7.330  -2.676  22.184  0.00  0.00    +0.193 C 
BRANCH  10  11
ATOM     11  O   UNL     1       8.643  -2.328  22.613  0.00  0.00    -0.377 OA
BRANCH  11  12
ATOM     12  C   UNL     1       9.242  -1.372  21.734  0.00  0.00    +0.160 C 
BRANCH  12  13
ATOM     13  C   UNL     1       9.933  -0.238  22.493  0.00  0.00    +0.031 C 
BRANCH  13  14
ATOM     14  C   UNL     1       9.715   1.145  21.843  0.00  0.00    -0.012 C 
ATOM     15  C   UNL     1       8.239   1.342  21.481  0.00  0.00    +0.007 C 
BRANCH  14  16
ATOM     16  C   UNL     1      10.255   2.282  22.737  0.00  0.00    +0.003 C 
BRANCH  16  17
ATOM     17  C   UNL     1       9.669   2.240  24.143  0.00  0.00    +0.001 C 
BRANCH  17  18
ATOM     18  C   UNL     1       8.921   3.508  24.539  0.00  0.00    +0.003 C 
BRANCH  18  19
ATOM     19  C   UNL     1       9.248   4.663  23.569  0.00  0.00    -0.014 C 
ATOM     20  C   UNL     1      10.290   5.631  24.155  0.00  0.00    +0.007 C 
BRANCH  19  21
ATOM     21  C   UNL     1       7.954   5.398  23.174  0.00  0.00    +0.003 C 
BRANCH  21  22
ATOM     22  C   UNL     1       6.955   4.442  22.523  0.00  0.00    +0.001 C 
BRANCH  22  23
ATOM     23  C   UNL     1       5.552   4.553  23.109  0.00  0.00    +0.003 C 
BRANCH  23  24
ATOM     24  C   UNL     1       5.551   5.349  24.434  0.00  0.00    -0.014 C 
ATOM     25  C   UNL     1       4.292   6.217  24.566  0.00  0.00    +0.007 C 
BRANCH  24  26
ATOM     26  C   UNL     1       5.664   4.438  25.675  0.00  0.00    +0.003 C 
BRANCH  26  27
ATOM     27  C   UNL     1       5.072   3.045  25.456  0.00  0.00    +0.001 C 
BRANCH  27  28
ATOM     28  C   UNL     1       3.893   2.762  26.392  0.00  0.00    +0.003 C 
BRANCH  28  30
ATOM     29  C   UNL     1       4.668   1.502  28.428  0.00  0.00    +0.007 C 
ATOM     30  C   UNL     1       3.988   1.378  27.064  0.00  0.00    -0.017 C 
ATOM     31  C   UNL     1       2.623   0.706  27.231  0.00  0.00    +0.007 C 
ENDBRANCH  28  30
ENDBRANCH  27  28
ENDBRANCH  26  27
ENDBRANCH  24  26
ENDBRANCH  23  24
ENDBRANCH  22  23
ENDBRANCH  21  22
ENDBRANCH  19  21
ENDBRANCH  18  19
ENDBRANCH  17  18
ENDBRANCH  16  17
ENDBRANCH  14  16
ENDBRANCH  13  14
ENDBRANCH  12  13
ENDBRANCH  11  12
ENDBRANCH  10  11
ENDBRANCH   1  10
BRANCH   1  32
ATOM     32  O   UNL     1       5.728  -4.516  21.907  0.00  0.00    -0.372 OA
BRANCH  32  33
ATOM     33  C   UNL     1       5.026  -5.554  22.601  0.00  0.00    +0.160 C 
BRANCH  33  34
ATOM     34  C   UNL     1       3.639  -5.095  23.053  0.00  0.00    +0.031 C 
BRANCH  34  35
ATOM     35  C   UNL     1       2.679  -6.216  23.476  0.00  0.00    -0.012 C 
ATOM     36  C   UNL     1       1.306  -5.949  22.848  0.00  0.00    +0.007 C 
BRANCH  35  37
ATOM     37  C   UNL     1       2.571  -6.354  25.010  0.00  0.00    +0.003 C 
BRANCH  37  38
ATOM     38  C   UNL     1       3.642  -7.251  25.648  0.00  0.00    +0.001 C 
BRANCH  38  39
ATOM     39  C   UNL     1       4.831  -6.494  26.255  0.00  0.00    +0.003 C 
BRANCH  39  40
ATOM     40  C   UNL     1       5.059  -6.740  27.762  0.00  0.00    -0.014 C 
ATOM     41  C   UNL     1       6.231  -5.907  28.291  0.00  0.00    +0.007 C 
BRANCH  40  42
ATOM     42  C   UNL     1       3.788  -6.443  28.590  0.00  0.00    +0.003 C 
BRANCH  42  43
ATOM     43  C   UNL     1       3.623  -4.983  29.041  0.00  0.00    +0.001 C 
BRANCH  43  44
ATOM     44  C   UNL     1       2.586  -4.212  28.219  0.00  0.00    +0.003 C 
BRANCH  44  45
ATOM     45  C   UNL     1       3.102  -2.950  27.503  0.00  0.00    -0.014 C 
ATOM     46  C   UNL     1       2.884  -3.014  25.986  0.00  0.00    +0.007 C 
BRANCH  45  47
ATOM     47  C   UNL     1       4.568  -2.655  27.867  0.00  0.00    +0.003 C 
BRANCH  47  48
ATOM     48  C   UNL     1       5.400  -2.346  26.622  0.00  0.00    +0.001 C 
BRANCH  48  49
ATOM     49  C   UNL     1       6.511  -1.333  26.889  0.00  0.00    +0.003 C 
BRANCH  49  50
ATOM     50  C   UNL     1       7.359  -1.072  25.630  0.00  0.00    -0.017 C 
ATOM     51  C   UNL     1       8.767  -0.627  26.022  0.00  0.00    +0.007 C 
ATOM     52  C   UNL     1       6.720  -0.030  24.708  0.00  0.00    +0.007 C 
ENDBRANCH  49  50
ENDBRANCH  48  49
ENDBRANCH  47  48
ENDBRANCH  45  47
ENDBRANCH  44  45
ENDBRANCH  43  44
ENDBRANCH  42  43
ENDBRANCH  40  42
ENDBRANCH  39  40
ENDBRANCH  38  39
ENDBRANCH  37  38
ENDBRANCH  35  37
ENDBRANCH  34  35
ENDBRANCH  33  34
ENDBRANCH  32  33
ENDBRANCH   1  32
TORSDOF 38
ENDMDL
MODEL 2
REMARK VINA RESULT:      -4.6      3.568      8.127
REMARK  Name = 
REMARK  48 active torsions:
REMARK  status: ('A' for Active; 'I' for Inactive)
REMARK    1  A    between atoms: C_1  and  C_2
REMARK    2  A    between atoms: C_2  and  C_3
REMARK    3  A    between atoms: C_2  and  C_4
REMARK    4  A    between atoms: C_4  and  C_5
REMARK    5  A    between atoms: C_5  and  C_6
REMARK    6  A    between atoms: C_6  and  C_7
REMARK    7  A    between atoms: C_7  and  C_9
REMARK    8  A    between atoms: C_7  and  C_10
REMARK    9  A    between atoms: C_10  and  C_11
REMARK   10  A    between atoms: C_11  and  C_12
REMARK   11  A    between atoms: C_12  and  C_13
REMARK   12  A    between atoms: C_13  and  C_15
REMARK   13  A    between atoms: C_13  and  C_16
REMARK   14  A    between atoms: C_16  and  C_17
REMARK   15  A    between atoms: C_17  and  C_18
REMARK   16  A    between atoms: C_18  and  C_19
REMARK   17  A    between atoms: C_19  and  C_21
REMARK   18  A    between atoms: C_19  and  C_22
REMARK   19  A    between atoms: C_22  and  C_23
REMARK   20  A    between atoms: C_23  and  O_24
REMARK   21  A    between atoms: O_24  and  C_25
REMARK   22  A    between atoms: C_25  and  C_26
REMARK   23  A    between atoms: C_26  and  C_28
REMARK   24  A    between atoms: C_26  and  O_34
REMARK   25  A    between atoms: C_28  and  O_29
REMARK   26  A    between atoms: O_29  and  P_30
REMARK   27  A    between atoms: P_30  and  O_31
REMARK   28  A    between atoms: P_30  and  O_32
REMARK   29  A    between atoms: O_34  and  C_35
REMARK   30  A    between atoms: C_35  and  C_36
REMARK   31  A    between atoms: C_36  and  C_37
REMARK   32  A    between atoms: C_37  and  C_39
REMARK   33  A    between atoms: C_37  and  C_40
REMARK   34  A    between atoms: C_40  and  C_41
REMARK   35  A    between atoms: C_41  and  C_42
REMARK   36  A    between atoms: C_42  and  C_43
REMARK   37  A    between atoms: C_43  and  C_45
REMARK   38  A    between atoms: C_43  and  C_46
REMARK   39  A    between atoms: C_46  and  C_47
REMARK   40  A    between atoms: C_47  and  C_48
REMARK   41  A    between atoms: C_48  and  C_49
REMARK   42  A    between atoms: C_49  and  C_51
REMARK   43  A    between atoms: C_49  and  C_52
REMARK   44  A    between atoms: C_52  and  C_53
REMARK   45  A    between atoms: C_53  and  C_54
REMARK   46  A    between atoms: C_54  and  C_55
REMARK   47  A    between atoms: C_55  and  C_56
REMARK   48  A    between atoms: C_55  and  C_57
REMARK                            x       y       z     vdW  Elec       q    Type
REMARK                         _______ _______ _______ _____ _____    ______ ____
ROOT
ATOM      1  C   UNL     1       3.929   3.477  23.346  0.00  0.00    +0.170 C 
ENDROOT
BRANCH   1   2
ATOM      2  C   UNL     1       2.647   3.361  22.510  0.00  0.00    +0.206 C 
BRANCH   2   3
ATOM      3  O   UNL     1       2.900   3.746  21.171  0.00  0.00    -0.284 OA
BRANCH   3   4
ATOM      4  P   UNL     1       1.839   3.317  20.068  0.00  0.00    +0.472 P 
ATOM      5  O   UNL     1       1.259   1.950  20.096  0.00  0.00    -0.228 OA
BRANCH   4   6
ATOM      6  O   UNL     1       0.760   4.481  20.296  0.00  0.00    -0.303 OA
ATOM      7  H   UNL     1       0.163   4.515  19.525  0.00  0.00    +0.222 HD
ENDBRANCH   4   6
BRANCH   4   8
ATOM      8  O   UNL     1       2.475   3.825  18.696  0.00  0.00    -0.303 OA
ATOM      9  H   UNL     1       3.428   3.979  18.819  0.00  0.00    +0.222 HD
ENDBRANCH   4   8
ENDBRANCH   3   4
ENDBRANCH   2   3
ENDBRANCH   1   2
BRANCH   1  10
ATOM     10  C   UNL     1       5.191   3.382  22.481  0.00  0.00    +0.193 C 
BRANCH  10  11
ATOM     11  O   UNL     1       6.194   2.575  23.091  0.00  0.00    -0.377 OA
BRANCH  11  12
ATOM     12  C   UNL     1       7.496   2.904  22.602  0.00  0.00    +0.160 C 
BRANCH  12  13
ATOM     13  C   UNL     1       8.555   2.879  23.706  0.00  0.00    +0.031 C 
BRANCH  13  14
ATOM     14  C   UNL     1       9.892   2.260  23.247  0.00  0.00    -0.012 C 
ATOM     15  C   UNL     1      10.472   1.360  24.344  0.00  0.00    +0.007 C 
BRANCH  14  16
ATOM     16  C   UNL     1       9.741   1.517  21.902  0.00  0.00    +0.003 C 
BRANCH  16  17
ATOM     17  C   UNL     1      10.133   0.048  22.004  0.00  0.00    +0.001 C 
BRANCH  17  18
ATOM     18  C   UNL     1       8.988  -0.918  21.722  0.00  0.00    +0.003 C 
BRANCH  18  19
ATOM     19  C   UNL     1       8.740  -1.842  22.933  0.00  0.00    -0.014 C 
ATOM     20  C   UNL     1      10.054  -2.314  23.579  0.00  0.00    +0.007 C 
BRANCH  19  21
ATOM     21  C   UNL     1       7.859  -3.033  22.512  0.00  0.00    +0.003 C 
BRANCH  21  22
ATOM     22  C   UNL     1       7.783  -4.081  23.622  0.00  0.00    +0.001 C 
BRANCH  22  23
ATOM     23  C   UNL     1       7.264  -5.430  23.136  0.00  0.00    +0.003 C 
BRANCH  23  24
ATOM     24  C   UNL     1       6.007  -5.269  22.251  0.00  0.00    -0.014 C 
ATOM     25  C   UNL     1       6.265  -5.755  20.818  0.00  0.00    +0.007 C 
BRANCH  24  26
ATOM     26  C   UNL     1       4.781  -6.015  22.820  0.00  0.00    +0.003 C 
BRANCH  26  27
ATOM     27  C   UNL     1       3.703  -5.077  23.364  0.00  0.00    +0.001 C 
BRANCH  27  28
ATOM     28  C   UNL     1       2.687  -5.809  24.244  0.00  0.00    +0.003 C 
BRANCH  28  30
ATOM     29  C   UNL     1       2.288  -8.131  25.129  0.00  0.00    +0.007 C 
ATOM     30  C   UNL     1       2.544  -7.299  23.872  0.00  0.00    -0.017 C 
ATOM     31  C   UNL     1       1.429  -7.551  22.854  0.00  0.00    +0.007 C 
ENDBRANCH  28  30
ENDBRANCH  27  28
ENDBRANCH  26  27
ENDBRANCH  24  26
ENDBRANCH  23  24
ENDBRANCH  22  23
ENDBRANCH  21  22
ENDBRANCH  19  21
ENDBRANCH  18  19
ENDBRANCH  17  18
ENDBRANCH  16  17
ENDBRANCH  14  16
ENDBRANCH  13  14
ENDBRANCH  12  13
ENDBRANCH  11  12
ENDBRANCH  10  11
ENDBRANCH   1  10
BRANCH   1  32
ATOM     32  O   UNL     1       3.910   2.443  24.354  0.00  0.00    -0.372 OA
BRANCH  32  33
ATOM     33  C   UNL     1       3.891   2.902  25.711  0.00  0.00    +0.160 C 
BRANCH  33  34
ATOM     34  C   UNL     1       3.300   1.852  26.654  0.00  0.00    +0.031 C 
BRANCH  34  35
ATOM     35  C   UNL     1       4.185   1.467  27.848  0.00  0.00    -0.012 C 
ATOM     36  C   UNL     1       3.312   1.414  29.108  0.00  0.00    +0.007 C 
BRANCH  35  37
ATOM     37  C   UNL     1       5.376   2.432  28.038  0.00  0.00    +0.003 C 
BRANCH  37  38
ATOM     38  C   UNL     1       6.728   1.740  28.263  0.00  0.00    +0.001 C 
BRANCH  38  39
ATOM     39  C   UNL     1       6.814   0.311  27.709  0.00  0.00    +0.003 C 
BRANCH  39  40
ATOM     40  C   UNL     1       7.757   0.138  26.498  0.00  0.00    -0.014 C 
ATOM     41  C   UNL     1       8.750  -1.006  26.726  0.00  0.00    +0.007 C 
BRANCH  40  42
ATOM     42  C   UNL     1       6.970  -0.102  25.189  0.00  0.00    +0.003 C 
BRANCH  42  43
ATOM     43  C   UNL     1       5.532  -0.615  25.372  0.00  0.00    +0.001 C 
BRANCH  43  44
ATOM     44  C   UNL     1       5.360  -2.081  24.962  0.00  0.00    +0.003 C 
BRANCH  44  45
ATOM     45  C   UNL     1       4.815  -3.021  26.053  0.00  0.00    -0.014 C 
ATOM     46  C   UNL     1       3.449  -2.564  26.582  0.00  0.00    +0.007 C 
BRANCH  45  47
ATOM     47  C   UNL     1       5.837  -3.226  27.184  0.00  0.00    +0.003 C 
BRANCH  47  48
ATOM     48  C   UNL     1       6.548  -4.572  27.057  0.00  0.00    +0.001 C 
BRANCH  48  49
ATOM     49  C   UNL     1       5.647  -5.667  26.493  0.00  0.00    +0.003 C 
BRANCH  49  50
ATOM     50  C   UNL     1       5.123  -6.601  27.601  0.00  0.00    -0.017 C 
ATOM     51  C   UNL     1       3.657  -6.295  27.904  0.00  0.00    +0.007 C 
ATOM     52  C   UNL     1       5.953  -6.500  28.884  0.00  0.00    +0.007 C 
ENDBRANCH  49  50
ENDBRANCH  48  49
ENDBRANCH  47  48
ENDBRANCH  45  47
ENDBRANCH  44  45
ENDBRANCH  43  44
ENDBRANCH  42  43
ENDBRANCH  40  42
ENDBRANCH  39  40
ENDBRANCH  38  39
ENDBRANCH  37  38
ENDBRANCH  35  37
ENDBRANCH  34  35
ENDBRANCH  33  34
ENDBRANCH  32  33
ENDBRANCH   1  32
TORSDOF 38
ENDMDL
MODEL 3
REMARK VINA RESULT:      -4.6      3.666      9.103
REMARK  Name = 
REMARK  48 active torsions:
REMARK  status: ('A' for Active; 'I' for Inactive)
REMARK    1  A    between atoms: C_1  and  C_2
REMARK    2  A    between atoms: C_2  and  C_3
REMARK    3  A    between atoms: C_2  and  C_4
REMARK    4  A    between atoms: C_4  and  C_5
REMARK    5  A    between atoms: C_5  and  C_6
REMARK    6  A    between atoms: C_6  and  C_7
REMARK    7  A    between atoms: C_7  and  C_9
REMARK    8  A    between atoms: C_7  and  C_10
REMARK    9  A    between atoms: C_10  and  C_11
REMARK   10  A    between atoms: C_11  and  C_12
REMARK   11  A    between atoms: C_12  and  C_13
REMARK   12  A    between atoms: C_13  and  C_15
REMARK   13  A    between atoms: C_13  and  C_16
REMARK   14  A    between atoms: C_16  and  C_17
REMARK   15  A    between atoms: C_17  and  C_18
REMARK   16  A    between atoms: C_18  and  C_19
REMARK   17  A    between atoms: C_19  and  C_21
REMARK   18  A    between atoms: C_19  and  C_22
REMARK   19  A    between atoms: C_22  and  C_23
REMARK   20  A    between atoms: C_23  and  O_24
REMARK   21  A    between atoms: O_24  and  C_25
REMARK   22  A    between atoms: C_25  and  C_26
REMARK   23  A    between atoms: C_26  and  C_28
REMARK   24  A    between atoms: C_26  and  O_34
REMARK   25  A    between atoms: C_28  and  O_29
REMARK   26  A    between atoms: O_29  and  P_30
REMARK   27  A    between atoms: P_30  and  O_31
REMARK   28  A    between atoms: P_30  and  O_32
REMARK   29  A    between atoms: O_34  and  C_35
REMARK   30  A    between atoms: C_35  and  C_36
REMARK   31  A    between atoms: C_36  and  C_37
REMARK   32  A    between atoms: C_37  and  C_39
REMARK   33  A    between atoms: C_37  and  C_40
REMARK   34  A    between atoms: C_40  and  C_41
REMARK   35  A    between atoms: C_41  and  C_42
REMARK   36  A    between atoms: C_42  and  C_43
REMARK   37  A    between atoms: C_43  and  C_45
REMARK   38  A    between atoms: C_43  and  C_46
REMARK   39  A    between atoms: C_46  and  C_47
REMARK   40  A    between atoms: C_47  and  C_48
REMARK   41  A    between atoms: C_48  and  C_49
REMARK   42  A    between atoms: C_49  and  C_51
REMARK   43  A    between atoms: C_49  and  C_52
REMARK   44  A    between atoms: C_52  and  C_53
REMARK   45  A    between atoms: C_53  and  C_54
REMARK   46  A    between atoms: C_54  and  C_55
REMARK   47  A    between atoms: C_55  and  C_56
REMARK   48  A    between atoms: C_55  and  C_57
REMARK                            x       y       z     vdW  Elec       q    Type
REMARK                         _______ _______ _______ _____ _____    ______ ____
ROOT
ATOM      1  C   UNL     1       5.132   5.610  23.297  0.00  0.00    +0.170 C 
ENDROOT
BRANCH   1   2
ATOM      2  C   UNL     1       3.759   5.844  22.653  0.00  0.00    +0.206 C 
BRANCH   2   3
ATOM      3  O   UNL     1       2.805   4.950  23.197  0.00  0.00    -0.284 OA
BRANCH   3   4
ATOM      4  P   UNL     1       2.484   3.627  22.375  0.00  0.00    +0.472 P 
ATOM      5  O   UNL     1       1.086   3.134  22.288  0.00  0.00    -0.228 OA
BRANCH   4   6
ATOM      6  O   UNL     1       3.106   4.058  20.960  0.00  0.00    -0.303 OA
ATOM      7  H   UNL     1       4.064   4.203  21.067  0.00  0.00    +0.222 HD
ENDBRANCH   4   6
BRANCH   4   8
ATOM      8  O   UNL     1       3.607   2.595  22.843  0.00  0.00    -0.303 OA
ATOM      9  H   UNL     1       3.291   2.103  23.621  0.00  0.00    +0.222 HD
ENDBRANCH   4   8
ENDBRANCH   3   4
ENDBRANCH   2   3
ENDBRANCH   1   2
BRANCH   1  10
ATOM     10  C   UNL     1       5.246   6.278  24.672  0.00  0.00    +0.193 C 
BRANCH  10  11
ATOM     11  O   UNL     1       4.994   5.359  25.731  0.00  0.00    -0.377 OA
BRANCH  11  12
ATOM     12  C   UNL     1       5.909   4.261  25.698  0.00  0.00    +0.160 C 
BRANCH  12  13
ATOM     13  C   UNL     1       5.208   2.915  25.892  0.00  0.00    +0.031 C 
BRANCH  13  14
ATOM     14  C   UNL     1       5.900   2.019  26.941  0.00  0.00    -0.012 C 
ATOM     15  C   UNL     1       6.952   2.818  27.720  0.00  0.00    +0.007 C 
BRANCH  14  16
ATOM     16  C   UNL     1       4.872   1.342  27.874  0.00  0.00    +0.003 C 
BRANCH  16  17
ATOM     17  C   UNL     1       4.883  -0.176  27.742  0.00  0.00    +0.001 C 
BRANCH  17  18
ATOM     18  C   UNL     1       3.656  -0.744  27.040  0.00  0.00    +0.003 C 
BRANCH  18  19
ATOM     19  C   UNL     1       3.614  -2.282  27.167  0.00  0.00    -0.014 C 
ATOM     20  C   UNL     1       2.282  -2.776  27.756  0.00  0.00    +0.007 C 
BRANCH  19  21
ATOM     21  C   UNL     1       4.815  -2.771  27.999  0.00  0.00    +0.003 C 
BRANCH  21  22
ATOM     22  C   UNL     1       4.476  -4.060  28.748  0.00  0.00    +0.001 C 
BRANCH  22  23
ATOM     23  C   UNL     1       5.534  -5.146  28.577  0.00  0.00    +0.003 C 
BRANCH  23  24
ATOM     24  C   UNL     1       6.023  -5.237  27.113  0.00  0.00    -0.014 C 
ATOM     25  C   UNL     1       7.552  -5.345  27.039  0.00  0.00    +0.007 C 
BRANCH  24  26
ATOM     26  C   UNL     1       5.399  -6.426  26.352  0.00  0.00    +0.003 C 
BRANCH  26  27
ATOM     27  C   UNL     1       4.660  -6.007  25.080  0.00  0.00    +0.001 C 
BRANCH  27  28
ATOM     28  C   UNL     1       3.231  -5.539  25.367  0.00  0.00    +0.003 C 
BRANCH  28  30
ATOM     29  C   UNL     1       2.085  -5.484  23.127  0.00  0.00    +0.007 C 
ATOM     30  C   UNL     1       2.189  -6.224  24.461  0.00  0.00    -0.017 C 
ATOM     31  C   UNL     1       2.506  -7.700  24.205  0.00  0.00    +0.007 C 
ENDBRANCH  28  30
ENDBRANCH  27  28
ENDBRANCH  26  27
ENDBRANCH  24  26
ENDBRANCH  23  24
ENDBRANCH  22  23
ENDBRANCH  21  22
ENDBRANCH  19  21
ENDBRANCH  18  19
ENDBRANCH  17  18
ENDBRANCH  16  17
ENDBRANCH  14  16
ENDBRANCH  13  14
ENDBRANCH  12  13
ENDBRANCH  11  12
ENDBRANCH  10  11
ENDBRANCH   1  10
BRANCH   1  32
ATOM     32  O   UNL     1       6.148   6.100  22.395  0.00  0.00    -0.372 OA
BRANCH  32  33
ATOM     33  C   UNL     1       7.278   5.240  22.209  0.00  0.00    +0.160 C 
BRANCH  33  34
ATOM     34  C   UNL     1       6.869   3.767  22.172  0.00  0.00    +0.031 C 
BRANCH  34  35
ATOM     35  C   UNL     1       7.913   2.779  22.709  0.00  0.00    -0.012 C 
ATOM     36  C   UNL     1       8.993   3.567  23.459  0.00  0.00    +0.007 C 
BRANCH  35  37
ATOM     37  C   UNL     1       8.533   1.908  21.595  0.00  0.00    +0.003 C 
BRANCH  37  38
ATOM     38  C   UNL     1       9.823   1.179  21.998  0.00  0.00    +0.001 C 
BRANCH  38  39
ATOM     39  C   UNL     1       9.666  -0.336  22.194  0.00  0.00    +0.003 C 
BRANCH  39  40
ATOM     40  C   UNL     1      10.236  -0.884  23.520  0.00  0.00    -0.014 C 
ATOM     41  C   UNL     1      10.270   0.201  24.601  0.00  0.00    +0.007 C 
BRANCH  40  42
ATOM     42  C   UNL     1       9.436  -2.106  24.026  0.00  0.00    +0.003 C 
BRANCH  42  43
ATOM     43  C   UNL     1       8.948  -2.016  25.481  0.00  0.00    +0.001 C 
BRANCH  43  44
ATOM     44  C   UNL     1       7.451  -1.716  25.597  0.00  0.00    +0.003 C 
BRANCH  44  45
ATOM     45  C   UNL     1       6.687  -1.598  24.265  0.00  0.00    -0.014 C 
ATOM     46  C   UNL     1       6.270  -0.153  23.963  0.00  0.00    +0.007 C 
BRANCH  45  47
ATOM     47  C   UNL     1       5.495  -2.569  24.210  0.00  0.00    +0.003 C 
BRANCH  47  48
ATOM     48  C   UNL     1       5.356  -3.204  22.826  0.00  0.00    +0.001 C 
BRANCH  48  49
ATOM     49  C   UNL     1       6.692  -3.339  22.100  0.00  0.00    +0.003 C 
BRANCH  49  50
ATOM     50  C   UNL     1       7.149  -4.809  22.017  0.00  0.00    -0.017 C 
ATOM     51  C   UNL     1       5.987  -5.701  21.582  0.00  0.00    +0.007 C 
ATOM     52  C   UNL     1       7.726  -5.311  23.343  0.00  0.00    +0.007 C 
ENDBRANCH  49  50
ENDBRANCH  48  49
ENDBRANCH  47  48
ENDBRANCH  45  47
ENDBRANCH  44  45
ENDBRANCH  43  44
ENDBRANCH  42  43
ENDBRANCH  40  42
ENDBRANCH  39  40
ENDBRANCH  38  39
ENDBRANCH  37  38
ENDBRANCH  35  37
ENDBRANCH  34  35
ENDBRANCH  33  34
ENDBRANCH  32  33
ENDBRANCH   1  32
TORSDOF 38
ENDMDL
MODEL 4
REMARK VINA RESULT:      -4.5      1.457      4.442
REMARK  Name = 
REMARK  48 active torsions:
REMARK  status: ('A' for Active; 'I' for Inactive)
REMARK    1  A    between atoms: C_1  and  C_2
REMARK    2  A    between atoms: C_2  and  C_3
REMARK    3  A    between atoms: C_2  and  C_4
REMARK    4  A    between atoms: C_4  and  C_5
REMARK    5  A    between atoms: C_5  and  C_6
REMARK    6  A    between atoms: C_6  and  C_7
REMARK    7  A    between atoms: C_7  and  C_9
REMARK    8  A    between atoms: C_7  and  C_10
REMARK    9  A    between atoms: C_10  and  C_11
REMARK   10  A    between atoms: C_11  and  C_12
REMARK   11  A    between atoms: C_12  and  C_13
REMARK   12  A    between atoms: C_13  and  C_15
REMARK   13  A    between atoms: C_13  and  C_16
REMARK   14  A    between atoms: C_16  and  C_17
REMARK   15  A    between atoms: C_17  and  C_18
REMARK   16  A    between atoms: C_18  and  C_19
REMARK   17  A    between atoms: C_19  and  C_21
REMARK   18  A    between atoms: C_19  and  C_22
REMARK   19  A    between atoms: C_22  and  C_23
REMARK   20  A    between atoms: C_23  and  O_24
REMARK   21  A    between atoms: O_24  and  C_25
REMARK   22  A    between atoms: C_25  and  C_26
REMARK   23  A    between atoms: C_26  and  C_28
REMARK   24  A    between atoms: C_26  and  O_34
REMARK   25  A    between atoms: C_28  and  O_29
REMARK   26  A    between atoms: O_29  and  P_30
REMARK   27  A    between atoms: P_30  and  O_31
REMARK   28  A    between atoms: P_30  and  O_32
REMARK   29  A    between atoms: O_34  and  C_35
REMARK   30  A    between atoms: C_35  and  C_36
REMARK   31  A    between atoms: C_36  and  C_37
REMARK   32  A    between atoms: C_37  and  C_39
REMARK   33  A    between atoms: C_37  and  C_40
REMARK   34  A    between atoms: C_40  and  C_41
REMARK   35  A    between atoms: C_41  and  C_42
REMARK   36  A    between atoms: C_42  and  C_43
REMARK   37  A    between atoms: C_43  and  C_45
REMARK   38  A    between atoms: C_43  and  C_46
REMARK   39  A    between atoms: C_46  and  C_47
REMARK   40  A    between atoms: C_47  and  C_48
REMARK   41  A    between atoms: C_48  and  C_49
REMARK   42  A    between atoms: C_49  and  C_51
REMARK   43  A    between atoms: C_49  and  C_52
REMARK   44  A    between atoms: C_52  and  C_53
REMARK   45  A    between atoms: C_53  and  C_54
REMARK   46  A    between atoms: C_54  and  C_55
REMARK   47  A    between atoms: C_55  and  C_56
REMARK   48  A    between atoms: C_55  and  C_57
REMARK                            x       y       z     vdW  Elec       q    Type
REMARK                         _______ _______ _______ _____ _____    ______ ____
ROOT
ATOM      1  C   UNL     1       8.788  -1.749  23.343  0.00  0.00    +0.170 C 
ENDROOT
BRANCH   1   2
ATOM      2  C   UNL     1       9.705  -2.742  24.070  0.00  0.00    +0.206 C 
BRANCH   2   3
ATOM      3  O   UNL     1       9.059  -3.995  24.206  0.00  0.00    -0.284 OA
BRANCH   3   4
ATOM      4  P   UNL     1       9.197  -4.747  25.600  0.00  0.00    +0.472 P 
ATOM      5  O   UNL     1       8.934  -4.012  26.864  0.00  0.00    -0.228 OA
BRANCH   4   6
ATOM      6  O   UNL     1       8.177  -5.955  25.332  0.00  0.00    -0.303 OA
ATOM      7  H   UNL     1       8.142  -6.133  24.374  0.00  0.00    +0.222 HD
ENDBRANCH   4   6
BRANCH   4   8
ATOM      8  O   UNL     1      10.573  -5.544  25.479  0.00  0.00    -0.303 OA
ATOM      9  H   UNL     1      10.627  -6.206  26.190  0.00  0.00    +0.222 HD
ENDBRANCH   4   8
ENDBRANCH   3   4
ENDBRANCH   2   3
ENDBRANCH   1   2
BRANCH   1  10
ATOM     10  C   UNL     1       7.935  -0.931  24.319  0.00  0.00    +0.193 C 
BRANCH  10  11
ATOM     11  O   UNL     1       8.216  -1.261  25.676  0.00  0.00    -0.377 OA
BRANCH  11  12
ATOM     12  C   UNL     1       8.151  -0.107  26.517  0.00  0.00    +0.160 C 
BRANCH  12  13
ATOM     13  C   UNL     1       7.518   1.093  25.810  0.00  0.00    +0.031 C 
BRANCH  13  14
ATOM     14  C   UNL     1       6.378   1.741  26.623  0.00  0.00    -0.012 C 
ATOM     15  C   UNL     1       6.835   2.021  28.059  0.00  0.00    +0.007 C 
BRANCH  14  16
ATOM     16  C   UNL     1       5.834   3.008  25.926  0.00  0.00    +0.003 C 
BRANCH  16  17
ATOM     17  C   UNL     1       5.020   2.679  24.681  0.00  0.00    +0.001 C 
BRANCH  17  18
ATOM     18  C   UNL     1       5.046   3.771  23.619  0.00  0.00    +0.003 C 
BRANCH  18  19
ATOM     19  C   UNL     1       5.831   3.307  22.374  0.00  0.00    -0.014 C 
ATOM     20  C   UNL     1       6.420   1.898  22.556  0.00  0.00    +0.007 C 
BRANCH  19  21
ATOM     21  C   UNL     1       6.925   4.336  22.030  0.00  0.00    +0.003 C 
BRANCH  21  22
ATOM     22  C   UNL     1       6.610   5.699  22.646  0.00  0.00    +0.001 C 
BRANCH  22  23
ATOM     23  C   UNL     1       7.769   6.685  22.538  0.00  0.00    +0.003 C 
BRANCH  23  24
ATOM     24  C   UNL     1       8.643   6.676  23.813  0.00  0.00    -0.014 C 
ATOM     25  C   UNL     1       7.842   6.216  25.039  0.00  0.00    +0.007 C 
BRANCH  24  26
ATOM     26  C   UNL     1       9.894   5.783  23.669  0.00  0.00    +0.003 C 
BRANCH  26  27
ATOM     27  C   UNL     1       9.661   4.341  24.118  0.00  0.00    +0.001 C 
BRANCH  27  28
ATOM     28  C   UNL     1      10.702   3.378  23.541  0.00  0.00    +0.003 C 
BRANCH  28  30
ATOM     29  C   UNL     1      10.036   1.481  22.026  0.00  0.00    +0.007 C 
ATOM     30  C   UNL     1      10.197   1.922  23.481  0.00  0.00    -0.017 C 
ATOM     31  C   UNL     1      11.118   0.945  24.215  0.00  0.00    +0.007 C 
ENDBRANCH  28  30
ENDBRANCH  27  28
ENDBRANCH  26  27
ENDBRANCH  24  26
ENDBRANCH  23  24
ENDBRANCH  22  23
ENDBRANCH  21  22
ENDBRANCH  19  21
ENDBRANCH  18  19
ENDBRANCH  17  18
ENDBRANCH  16  17
ENDBRANCH  14  16
ENDBRANCH  13  14
ENDBRANCH  12  13
ENDBRANCH  11  12
ENDBRANCH  10  11
ENDBRANCH   1  10
BRANCH   1  32
ATOM     32  O   UNL     1       7.959  -2.487  22.419  0.00  0.00    -0.372 OA
BRANCH  32  33
ATOM     33  C   UNL     1       6.549  -2.267  22.540  0.00  0.00    +0.160 C 
BRANCH  33  34
ATOM     34  C   UNL     1       5.743  -3.416  21.932  0.00  0.00    +0.031 C 
BRANCH  34  35
ATOM     35  C   UNL     1       6.278  -4.824  22.227  0.00  0.00    -0.012 C 
ATOM     36  C   UNL     1       6.253  -5.640  20.929  0.00  0.00    +0.007 C 
BRANCH  35  37
ATOM     37  C   UNL     1       5.486  -5.535  23.346  0.00  0.00    +0.003 C 
BRANCH  37  38
ATOM     38  C   UNL     1       4.047  -5.916  22.967  0.00  0.00    +0.001 C 
BRANCH  38  39
ATOM     39  C   UNL     1       2.974  -4.946  23.483  0.00  0.00    +0.003 C 
BRANCH  39  40
ATOM     40  C   UNL     1       1.531  -5.497  23.456  0.00  0.00    -0.014 C 
ATOM     41  C   UNL     1       1.445  -6.787  22.634  0.00  0.00    +0.007 C 
BRANCH  40  42
ATOM     42  C   UNL     1       0.986  -5.744  24.881  0.00  0.00    +0.003 C 
BRANCH  42  43
ATOM     43  C   UNL     1       1.405  -7.077  25.523  0.00  0.00    +0.001 C 
BRANCH  43  44
ATOM     44  C   UNL     1       2.036  -6.905  26.908  0.00  0.00    +0.003 C 
BRANCH  44  45
ATOM     45  C   UNL     1       3.270  -5.987  26.973  0.00  0.00    -0.014 C 
ATOM     46  C   UNL     1       4.572  -6.744  26.680  0.00  0.00    +0.007 C 
BRANCH  45  47
ATOM     47  C   UNL     1       3.334  -5.218  28.304  0.00  0.00    +0.003 C 
BRANCH  47  48
ATOM     48  C   UNL     1       3.154  -3.715  28.090  0.00  0.00    +0.001 C 
BRANCH  48  49
ATOM     49  C   UNL     1       3.118  -3.328  26.614  0.00  0.00    +0.003 C 
BRANCH  49  50
ATOM     50  C   UNL     1       4.285  -2.392  26.242  0.00  0.00    -0.017 C 
ATOM     51  C   UNL     1       5.554  -3.204  25.988  0.00  0.00    +0.007 C 
ATOM     52  C   UNL     1       4.547  -1.337  27.319  0.00  0.00    +0.007 C 
ENDBRANCH  49  50
ENDBRANCH  48  49
ENDBRANCH  47  48
ENDBRANCH  45  47
ENDBRANCH  44  45
ENDBRANCH  43  44
ENDBRANCH  42  43
ENDBRANCH  40  42
ENDBRANCH  39  40
ENDBRANCH  38  39
ENDBRANCH  37  38
ENDBRANCH  35  37
ENDBRANCH  34  35
ENDBRANCH  33  34
ENDBRANCH  32  33
ENDBRANCH   1  32
TORSDOF 38
ENDMDL
MODEL 5
REMARK VINA RESULT:      -4.5      1.508      3.998
REMARK  Name = 
REMARK  48 active torsions:
REMARK  status: ('A' for Active; 'I' for Inactive)
REMARK    1  A    between atoms: C_1  and  C_2
REMARK    2  A    between atoms: C_2  and  C_3
REMARK    3  A    between atoms: C_2  and  C_4
REMARK    4  A    between atoms: C_4  and  C_5
REMARK    5  A    between atoms: C_5  and  C_6
REMARK    6  A    between atoms: C_6  and  C_7
REMARK    7  A    between atoms: C_7  and  C_9
REMARK    8  A    between atoms: C_7  and  C_10
REMARK    9  A    between atoms: C_10  and  C_11
REMARK   10  A    between atoms: C_11  and  C_12
REMARK   11  A    between atoms: C_12  and  C_13
REMARK   12  A    between atoms: C_13  and  C_15
REMARK   13  A    between atoms: C_13  and  C_16
REMARK   14  A    between atoms: C_16  and  C_17
REMARK   15  A    between atoms: C_17  and  C_18
REMARK   16  A    between atoms: C_18  and  C_19
REMARK   17  A    between atoms: C_19  and  C_21
REMARK   18  A    between atoms: C_19  and  C_22
REMARK   19  A    between atoms: C_22  and  C_23
REMARK   20  A    between atoms: C_23  and  O_24
REMARK   21  A    between atoms: O_24  and  C_25
REMARK   22  A    between atoms: C_25  and  C_26
REMARK   23  A    between atoms: C_26  and  C_28
REMARK   24  A    between atoms: C_26  and  O_34
REMARK   25  A    between atoms: C_28  and  O_29
REMARK   26  A    between atoms: O_29  and  P_30
REMARK   27  A    between atoms: P_30  and  O_31
REMARK   28  A    between atoms: P_30  and  O_32
REMARK   29  A    between atoms: O_34  and  C_35
REMARK   30  A    between atoms: C_35  and  C_36
REMARK   31  A    between atoms: C_36  and  C_37
REMARK   32  A    between atoms: C_37  and  C_39
REMARK   33  A    between atoms: C_37  and  C_40
REMARK   34  A    between atoms: C_40  and  C_41
REMARK   35  A    between atoms: C_41  and  C_42
REMARK   36  A    between atoms: C_42  and  C_43
REMARK   37  A    between atoms: C_43  and  C_45
REMARK   38  A    between atoms: C_43  and  C_46
REMARK   39  A    between atoms: C_46  and  C_47
REMARK   40  A    between atoms: C_47  and  C_48
REMARK   41  A    between atoms: C_48  and  C_49
REMARK   42  A    between atoms: C_49  and  C_51
REMARK   43  A    between atoms: C_49  and  C_52
REMARK   44  A    between atoms: C_52  and  C_53
REMARK   45  A    between atoms: C_53  and  C_54
REMARK   46  A    between atoms: C_54  and  C_55
REMARK   47  A    between atoms: C_55  and  C_56
REMARK   48  A    between atoms: C_55  and  C_57
REMARK                            x       y       z     vdW  Elec       q    Type
REMARK                         _______ _______ _______ _____ _____    ______ ____
ROOT
ATOM      1  C   UNL     1       6.749  -4.821  22.208  0.00  0.00    +0.170 C 
ENDROOT
BRANCH   1   2
ATOM      2  C   UNL     1       7.077  -5.318  23.623  0.00  0.00    +0.206 C 
BRANCH   2   3
ATOM      3  O   UNL     1       8.480  -5.352  23.816  0.00  0.00    -0.284 OA
BRANCH   3   4
ATOM      4  P   UNL     1       9.042  -4.856  25.218  0.00  0.00    +0.472 P 
ATOM      5  O   UNL     1       8.818  -3.453  25.647  0.00  0.00    -0.228 OA
BRANCH   4   6
ATOM      6  O   UNL     1       8.336  -5.941  26.165  0.00  0.00    -0.303 OA
ATOM      7  H   UNL     1       7.697  -5.488  26.745  0.00  0.00    +0.222 HD
ENDBRANCH   4   6
BRANCH   4   8
ATOM      8  O   UNL     1      10.535  -5.416  25.259  0.00  0.00    -0.303 OA
ATOM      9  H   UNL     1      10.833  -5.611  24.353  0.00  0.00    +0.222 HD
ENDBRANCH   4   8
ENDBRANCH   3   4
ENDBRANCH   2   3
ENDBRANCH   1   2
BRANCH   1  10
ATOM     10  C   UNL     1       6.887  -3.300  22.086  0.00  0.00    +0.193 C 
BRANCH  10  11
ATOM     11  O   UNL     1       6.578  -2.638  23.308  0.00  0.00    -0.377 OA
BRANCH  11  12
ATOM     12  C   UNL     1       6.694  -1.219  23.177  0.00  0.00    +0.160 C 
BRANCH  12  13
ATOM     13  C   UNL     1       6.491  -0.494  24.509  0.00  0.00    +0.031 C 
BRANCH  13  14
ATOM     14  C   UNL     1       6.001   0.960  24.337  0.00  0.00    -0.012 C 
ATOM     15  C   UNL     1       6.403   1.808  25.548  0.00  0.00    +0.007 C 
BRANCH  14  16
ATOM     16  C   UNL     1       6.494   1.570  23.006  0.00  0.00    +0.003 C 
BRANCH  16  17
ATOM     17  C   UNL     1       5.640   2.749  22.559  0.00  0.00    +0.001 C 
BRANCH  17  18
ATOM     18  C   UNL     1       6.431   4.030  22.319  0.00  0.00    +0.003 C 
BRANCH  18  19
ATOM     19  C   UNL     1       6.108   5.084  23.398  0.00  0.00    -0.014 C 
ATOM     20  C   UNL     1       4.683   4.923  23.955  0.00  0.00    +0.007 C 
BRANCH  19  21
ATOM     21  C   UNL     1       6.337   6.499  22.833  0.00  0.00    +0.003 C 
BRANCH  21  22
ATOM     22  C   UNL     1       7.817   6.738  22.534  0.00  0.00    +0.001 C 
BRANCH  22  23
ATOM     23  C   UNL     1       8.679   6.797  23.790  0.00  0.00    +0.003 C 
BRANCH  23  24
ATOM     24  C   UNL     1       9.853   5.794  23.721  0.00  0.00    -0.014 C 
ATOM     25  C   UNL     1      11.104   6.346  24.417  0.00  0.00    +0.007 C 
BRANCH  24  26
ATOM     26  C   UNL     1       9.499   4.424  24.339  0.00  0.00    +0.003 C 
BRANCH  26  27
ATOM     27  C   UNL     1       9.999   3.241  23.509  0.00  0.00    +0.001 C 
BRANCH  27  28
ATOM     28  C   UNL     1       9.837   1.907  24.244  0.00  0.00    +0.003 C 
BRANCH  28  30
ATOM     29  C   UNL     1      10.184  -0.585  24.214  0.00  0.00    +0.007 C 
ATOM     30  C   UNL     1      10.434   0.721  23.461  0.00  0.00    -0.017 C 
ATOM     31  C   UNL     1       9.877   0.609  22.039  0.00  0.00    +0.007 C 
ENDBRANCH  28  30
ENDBRANCH  27  28
ENDBRANCH  26  27
ENDBRANCH  24  26
ENDBRANCH  23  24
ENDBRANCH  22  23
ENDBRANCH  21  22
ENDBRANCH  19  21
ENDBRANCH  18  19
ENDBRANCH  17  18
ENDBRANCH  16  17
ENDBRANCH  14  16
ENDBRANCH  13  14
ENDBRANCH  12  13
ENDBRANCH  11  12
ENDBRANCH  10  11
ENDBRANCH   1  10
BRANCH   1  32
ATOM     32  O   UNL     1       5.412  -5.251  21.873  0.00  0.00    -0.372 OA
BRANCH  32  33
ATOM     33  C   UNL     1       4.608  -5.690  22.974  0.00  0.00    +0.160 C 
BRANCH  33  34
ATOM     34  C   UNL     1       3.643  -4.599  23.440  0.00  0.00    +0.031 C 
BRANCH  34  35
ATOM     35  C   UNL     1       2.341  -5.100  24.082  0.00  0.00    -0.012 C 
ATOM     36  C   UNL     1       1.311  -5.346  22.973  0.00  0.00    +0.007 C 
BRANCH  35  37
ATOM     37  C   UNL     1       1.791  -4.125  25.145  0.00  0.00    +0.003 C 
BRANCH  37  38
ATOM     38  C   UNL     1       0.834  -4.764  26.163  0.00  0.00    +0.001 C 
BRANCH  38  39
ATOM     39  C   UNL     1       1.147  -6.228  26.501  0.00  0.00    +0.003 C 
BRANCH  39  40
ATOM     40  C   UNL     1       2.447  -6.448  27.306  0.00  0.00    -0.014 C 
ATOM     41  C   UNL     1       2.178  -7.233  28.593  0.00  0.00    +0.007 C 
BRANCH  40  42
ATOM     42  C   UNL     1       3.525  -7.168  26.465  0.00  0.00    +0.003 C 
BRANCH  42  43
ATOM     43  C   UNL     1       4.953  -6.617  26.614  0.00  0.00    +0.001 C 
BRANCH  43  44
ATOM     44  C   UNL     1       4.990  -5.177  27.135  0.00  0.00    +0.003 C 
BRANCH  44  45
ATOM     45  C   UNL     1       5.491  -5.002  28.581  0.00  0.00    -0.014 C 
ATOM     46  C   UNL     1       6.101  -6.293  29.143  0.00  0.00    +0.007 C 
BRANCH  45  47
ATOM     47  C   UNL     1       4.390  -4.435  29.495  0.00  0.00    +0.003 C 
BRANCH  47  48
ATOM     48  C   UNL     1       4.116  -2.963  29.191  0.00  0.00    +0.001 C 
BRANCH  48  49
ATOM     49  C   UNL     1       2.667  -2.701  28.788  0.00  0.00    +0.003 C 
BRANCH  49  50
ATOM     50  C   UNL     1       2.526  -1.398  27.979  0.00  0.00    -0.017 C 
ATOM     51  C   UNL     1       1.119  -1.287  27.394  0.00  0.00    +0.007 C 
ATOM     52  C   UNL     1       3.566  -1.296  26.860  0.00  0.00    +0.007 C 
ENDBRANCH  49  50
ENDBRANCH  48  49
ENDBRANCH  47  48
ENDBRANCH  45  47
ENDBRANCH  44  45
ENDBRANCH  43  44
ENDBRANCH  42  43
ENDBRANCH  40  42
ENDBRANCH  39  40
ENDBRANCH  38  39
ENDBRANCH  37  38
ENDBRANCH  35  37
ENDBRANCH  34  35
ENDBRANCH  33  34
ENDBRANCH  32  33
ENDBRANCH   1  32
TORSDOF 38
ENDMDL
MODEL 6
REMARK VINA RESULT:      -4.4      1.397      3.762
REMARK  Name = 
REMARK  48 active torsions:
REMARK  status: ('A' for Active; 'I' for Inactive)
REMARK    1  A    between atoms: C_1  and  C_2
REMARK    2  A    between atoms: C_2  and  C_3
REMARK    3  A    between atoms: C_2  and  C_4
REMARK    4  A    between atoms: C_4  and  C_5
REMARK    5  A    between atoms: C_5  and  C_6
REMARK    6  A    between atoms: C_6  and  C_7
REMARK    7  A    between atoms: C_7  and  C_9
REMARK    8  A    between atoms: C_7  and  C_10
REMARK    9  A    between atoms: C_10  and  C_11
REMARK   10  A    between atoms: C_11  and  C_12
REMARK   11  A    between atoms: C_12  and  C_13
REMARK   12  A    between atoms: C_13  and  C_15
REMARK   13  A    between atoms: C_13  and  C_16
REMARK   14  A    between atoms: C_16  and  C_17
REMARK   15  A    between atoms: C_17  and  C_18
REMARK   16  A    between atoms: C_18  and  C_19
REMARK   17  A    between atoms: C_19  and  C_21
REMARK   18  A    between atoms: C_19  and  C_22
REMARK   19  A    between atoms: C_22  and  C_23
REMARK   20  A    between atoms: C_23  and  O_24
REMARK   21  A    between atoms: O_24  and  C_25
REMARK   22  A    between atoms: C_25  and  C_26
REMARK   23  A    between atoms: C_26  and  C_28
REMARK   24  A    between atoms: C_26  and  O_34
REMARK   25  A    between atoms: C_28  and  O_29
REMARK   26  A    between atoms: O_29  and  P_30
REMARK   27  A    between atoms: P_30  and  O_31
REMARK   28  A    between atoms: P_30  and  O_32
REMARK   29  A    between atoms: O_34  and  C_35
REMARK   30  A    between atoms: C_35  and  C_36
REMARK   31  A    between atoms: C_36  and  C_37
REMARK   32  A    between atoms: C_37  and  C_39
REMARK   33  A    between atoms: C_37  and  C_40
REMARK   34  A    between atoms: C_40  and  C_41
REMARK   35  A    between atoms: C_41  and  C_42
REMARK   36  A    between atoms: C_42  and  C_43
REMARK   37  A    between atoms: C_43  and  C_45
REMARK   38  A    between atoms: C_43  and  C_46
REMARK   39  A    between atoms: C_46  and  C_47
REMARK   40  A    between atoms: C_47  and  C_48
REMARK   41  A    between atoms: C_48  and  C_49
REMARK   42  A    between atoms: C_49  and  C_51
REMARK   43  A    between atoms: C_49  and  C_52
REMARK   44  A    between atoms: C_52  and  C_53
REMARK   45  A    between atoms: C_53  and  C_54
REMARK   46  A    between atoms: C_54  and  C_55
REMARK   47  A    between atoms: C_55  and  C_56
REMARK   48  A    between atoms: C_55  and  C_57
REMARK                            x       y       z     vdW  Elec       q    Type
REMARK                         _______ _______ _______ _____ _____    ______ ____
ROOT
ATOM      1  C   UNL     1       9.154  -1.881  22.477  0.00  0.00    +0.170 C 
ENDROOT
BRANCH   1   2
ATOM      2  C   UNL     1       9.584  -2.089  23.936  0.00  0.00    +0.206 C 
BRANCH   2   3
ATOM      3  O   UNL     1      10.149  -3.377  24.101  0.00  0.00    -0.284 OA
BRANCH   3   4
ATOM      4  P   UNL     1       9.414  -4.383  25.087  0.00  0.00    +0.472 P 
ATOM      5  O   UNL     1       8.639  -3.854  26.239  0.00  0.00    -0.228 OA
BRANCH   4   6
ATOM      6  O   UNL     1       8.518  -5.171  24.015  0.00  0.00    -0.303 OA
ATOM      7  H   UNL     1       8.400  -6.091  24.315  0.00  0.00    +0.222 HD
ENDBRANCH   4   6
BRANCH   4   8
ATOM      8  O   UNL     1      10.505  -5.508  25.382  0.00  0.00    -0.303 OA
ATOM      9  H   UNL     1      11.059  -5.233  26.134  0.00  0.00    +0.222 HD
ENDBRANCH   4   8
ENDBRANCH   3   4
ENDBRANCH   2   3
ENDBRANCH   1   2
BRANCH   1  10
ATOM     10  C   UNL     1       8.724  -0.436  22.204  0.00  0.00    +0.193 C 
BRANCH  10  11
ATOM     11  O   UNL     1       9.804   0.358  21.723  0.00  0.00    -0.377 OA
BRANCH  11  12
ATOM     12  C   UNL     1       9.586   1.747  21.982  0.00  0.00    +0.160 C 
BRANCH  12  13
ATOM     13  C   UNL     1       8.103   2.079  22.155  0.00  0.00    +0.031 C 
BRANCH  13  14
ATOM     14  C   UNL     1       7.817   2.939  23.405  0.00  0.00    -0.012 C 
ATOM     15  C   UNL     1       9.027   2.934  24.347  0.00  0.00    +0.007 C 
BRANCH  14  16
ATOM     16  C   UNL     1       7.380   4.369  23.021  0.00  0.00    +0.003 C 
BRANCH  16  17
ATOM     17  C   UNL     1       8.563   5.322  22.896  0.00  0.00    +0.001 C 
BRANCH  17  18
ATOM     18  C   UNL     1       8.406   6.610  23.696  0.00  0.00    +0.003 C 
BRANCH  18  19
ATOM     19  C   UNL     1       9.590   6.800  24.667  0.00  0.00    -0.014 C 
ATOM     20  C   UNL     1      10.889   6.181  24.122  0.00  0.00    +0.007 C 
BRANCH  19  21
ATOM     21  C   UNL     1       9.230   6.227  26.051  0.00  0.00    +0.003 C 
BRANCH  21  22
ATOM     22  C   UNL     1       7.740   6.397  26.345  0.00  0.00    +0.001 C 
BRANCH  22  23
ATOM     23  C   UNL     1       7.111   5.160  26.979  0.00  0.00    +0.003 C 
BRANCH  23  24
ATOM     24  C   UNL     1       5.618   5.026  26.602  0.00  0.00    -0.014 C 
ATOM     25  C   UNL     1       5.226   6.018  25.499  0.00  0.00    +0.007 C 
BRANCH  24  26
ATOM     26  C   UNL     1       5.246   3.599  26.148  0.00  0.00    +0.003 C 
BRANCH  26  27
ATOM     27  C   UNL     1       6.226   2.534  26.642  0.00  0.00    +0.001 C 
BRANCH  27  28
ATOM     28  C   UNL     1       5.513   1.265  27.117  0.00  0.00    +0.003 C 
BRANCH  28  30
ATOM     29  C   UNL     1       5.805   0.196  24.858  0.00  0.00    +0.007 C 
ATOM     30  C   UNL     1       5.981   0.003  26.364  0.00  0.00    -0.017 C 
ATOM     31  C   UNL     1       7.436  -0.362  26.668  0.00  0.00    +0.007 C 
ENDBRANCH  28  30
ENDBRANCH  27  28
ENDBRANCH  26  27
ENDBRANCH  24  26
ENDBRANCH  23  24
ENDBRANCH  22  23
ENDBRANCH  21  22
ENDBRANCH  19  21
ENDBRANCH  18  19
ENDBRANCH  17  18
ENDBRANCH  16  17
ENDBRANCH  14  16
ENDBRANCH  13  14
ENDBRANCH  12  13
ENDBRANCH  11  12
ENDBRANCH  10  11
ENDBRANCH   1  10
BRANCH   1  32
ATOM     32  O   UNL     1       8.087  -2.807  22.180  0.00  0.00    -0.372 OA
BRANCH  32  33
ATOM     33  C   UNL     1       6.766  -2.353  22.497  0.00  0.00    +0.160 C 
BRANCH  33  34
ATOM     34  C   UNL     1       5.698  -3.334  22.009  0.00  0.00    +0.031 C 
BRANCH  34  35
ATOM     35  C   UNL     1       4.891  -4.031  23.113  0.00  0.00    -0.012 C 
ATOM     36  C   UNL     1       5.436  -3.585  24.475  0.00  0.00    +0.007 C 
BRANCH  35  37
ATOM     37  C   UNL     1       4.914  -5.569  22.981  0.00  0.00    +0.003 C 
BRANCH  37  38
ATOM     38  C   UNL     1       4.461  -6.325  24.239  0.00  0.00    +0.001 C 
BRANCH  38  39
ATOM     39  C   UNL     1       3.067  -6.961  24.134  0.00  0.00    +0.003 C 
BRANCH  39  40
ATOM     40  C   UNL     1       2.248  -6.533  22.897  0.00  0.00    -0.014 C 
ATOM     41  C   UNL     1       1.361  -7.677  22.395  0.00  0.00    +0.007 C 
BRANCH  40  42
ATOM     42  C   UNL     1       1.383  -5.285  23.187  0.00  0.00    +0.003 C 
BRANCH  42  43
ATOM     43  C   UNL     1       1.034  -5.056  24.667  0.00  0.00    +0.001 C 
BRANCH  43  44
ATOM     44  C   UNL     1       1.717  -3.822  25.262  0.00  0.00    +0.003 C 
BRANCH  44  45
ATOM     45  C   UNL     1       1.980  -3.868  26.779  0.00  0.00    -0.014 C 
ATOM     46  C   UNL     1       3.254  -3.109  27.170  0.00  0.00    +0.007 C 
BRANCH  45  47
ATOM     47  C   UNL     1       1.981  -5.314  27.307  0.00  0.00    +0.003 C 
BRANCH  47  48
ATOM     48  C   UNL     1       2.914  -5.468  28.509  0.00  0.00    +0.001 C 
BRANCH  48  49
ATOM     49  C   UNL     1       3.818  -6.694  28.403  0.00  0.00    +0.003 C 
BRANCH  49  50
ATOM     50  C   UNL     1       5.286  -6.348  28.715  0.00  0.00    -0.017 C 
ATOM     51  C   UNL     1       5.363  -5.380  29.894  0.00  0.00    +0.007 C 
ATOM     52  C   UNL     1       6.011  -5.755  27.504  0.00  0.00    +0.007 C 
ENDBRANCH  49  50
ENDBRANCH  48  49
ENDBRANCH  47  48
ENDBRANCH  45  47
ENDBRANCH  44  45
ENDBRANCH  43  44
ENDBRANCH  42  43
ENDBRANCH  40  42
ENDBRANCH  39  40
ENDBRANCH  38  39
ENDBRANCH  37  38
ENDBRANCH  35  37
ENDBRANCH  34  35
ENDBRANCH  33  34
ENDBRANCH  32  33
ENDBRANCH   1  32
TORSDOF 38
ENDMDL
MODEL 7
REMARK VINA RESULT:      -4.4      1.341      4.109
REMARK  Name = 
REMARK  48 active torsions:
REMARK  status: ('A' for Active; 'I' for Inactive)
REMARK    1  A    between atoms: C_1  and  C_2
REMARK    2  A    between atoms: C_2  and  C_3
REMARK    3  A    between atoms: C_2  and  C_4
REMARK    4  A    between atoms: C_4  and  C_5
REMARK    5  A    between atoms: C_5  and  C_6
REMARK    6  A    between atoms: C_6  and  C_7
REMARK    7  A    between atoms: C_7  and  C_9
REMARK    8  A    between atoms: C_7  and  C_10
REMARK    9  A    between atoms: C_10  and  C_11
REMARK   10  A    between atoms: C_11  and  C_12
REMARK   11  A    between atoms: C_12  and  C_13
REMARK   12  A    between atoms: C_13  and  C_15
REMARK   13  A    between atoms: C_13  and  C_16
REMARK   14  A    between atoms: C_16  and  C_17
REMARK   15  A    between atoms: C_17  and  C_18
REMARK   16  A    between atoms: C_18  and  C_19
REMARK   17  A    between atoms: C_19  and  C_21
REMARK   18  A    between atoms: C_19  and  C_22
REMARK   19  A    between atoms: C_22  and  C_23
REMARK   20  A    between atoms: C_23  and  O_24
REMARK   21  A    between atoms: O_24  and  C_25
REMARK   22  A    between atoms: C_25  and  C_26
REMARK   23  A    between atoms: C_26  and  C_28
REMARK   24  A    between atoms: C_26  and  O_34
REMARK   25  A    between atoms: C_28  and  O_29
REMARK   26  A    between atoms: O_29  and  P_30
REMARK   27  A    between atoms: P_30  and  O_31
REMARK   28  A    between atoms: P_30  and  O_32
REMARK   29  A    between atoms: O_34  and  C_35
REMARK   30  A    between atoms: C_35  and  C_36
REMARK   31  A    between atoms: C_36  and  C_37
REMARK   32  A    between atoms: C_37  and  C_39
REMARK   33  A    between atoms: C_37  and  C_40
REMARK   34  A    between atoms: C_40  and  C_41
REMARK   35  A    between atoms: C_41  and  C_42
REMARK   36  A    between atoms: C_42  and  C_43
REMARK   37  A    between atoms: C_43  and  C_45
REMARK   38  A    between atoms: C_43  and  C_46
REMARK   39  A    between atoms: C_46  and  C_47
REMARK   40  A    between atoms: C_47  and  C_48
REMARK   41  A    between atoms: C_48  and  C_49
REMARK   42  A    between atoms: C_49  and  C_51
REMARK   43  A    between atoms: C_49  and  C_52
REMARK   44  A    between atoms: C_52  and  C_53
REMARK   45  A    between atoms: C_53  and  C_54
REMARK   46  A    between atoms: C_54  and  C_55
REMARK   47  A    between atoms: C_55  and  C_56
REMARK   48  A    between atoms: C_55  and  C_57
REMARK                            x       y       z     vdW  Elec       q    Type
REMARK                         _______ _______ _______ _____ _____    ______ ____
ROOT
ATOM      1  C   UNL     1       7.267  -3.335  22.686  0.00  0.00    +0.170 C 
ENDROOT
BRANCH   1   2
ATOM      2  C   UNL     1       7.874  -4.636  23.230  0.00  0.00    +0.206 C 
BRANCH   2   3
ATOM      3  O   UNL     1       7.592  -4.768  24.611  0.00  0.00    -0.284 OA
BRANCH   3   4
ATOM      4  P   UNL     1       8.826  -4.848  25.610  0.00  0.00    +0.472 P 
ATOM      5  O   UNL     1      10.201  -5.008  25.072  0.00  0.00    -0.228 OA
BRANCH   4   6
ATOM      6  O   UNL     1       8.597  -3.469  26.397  0.00  0.00    -0.303 OA
ATOM      7  H   UNL     1       8.846  -3.593  27.332  0.00  0.00    +0.222 HD
ENDBRANCH   4   6
BRANCH   4   8
ATOM      8  O   UNL     1       8.348  -5.867  26.740  0.00  0.00    -0.303 OA
ATOM      9  H   UNL     1       7.714  -5.422  27.330  0.00  0.00    +0.222 HD
ENDBRANCH   4   8
ENDBRANCH   3   4
ENDBRANCH   2   3
ENDBRANCH   1   2
BRANCH   1  10
ATOM     10  C   UNL     1       8.343  -2.357  22.201  0.00  0.00    +0.193 C 
BRANCH  10  11
ATOM     11  O   UNL     1       9.630  -2.685  22.714  0.00  0.00    -0.377 OA
BRANCH  11  12
ATOM     12  C   UNL     1      10.521  -1.569  22.642  0.00  0.00    +0.160 C 
BRANCH  12  13
ATOM     13  C   UNL     1       9.823  -0.302  22.143  0.00  0.00    +0.031 C 
BRANCH  13  14
ATOM     14  C   UNL     1       9.885   0.861  23.157  0.00  0.00    -0.012 C 
ATOM     15  C   UNL     1      10.863   0.533  24.291  0.00  0.00    +0.007 C 
BRANCH  14  16
ATOM     16  C   UNL     1      10.222   2.199  22.464  0.00  0.00    +0.003 C 
BRANCH  16  17
ATOM     17  C   UNL     1      10.577   3.294  23.462  0.00  0.00    +0.001 C 
BRANCH  17  18
ATOM     18  C   UNL     1       9.368   4.029  24.030  0.00  0.00    +0.003 C 
BRANCH  18  19
ATOM     19  C   UNL     1       9.481   5.547  23.776  0.00  0.00    -0.014 C 
ATOM     20  C   UNL     1       9.763   6.329  25.071  0.00  0.00    +0.007 C 
BRANCH  19  21
ATOM     21  C   UNL     1       8.208   6.057  23.075  0.00  0.00    +0.003 C 
BRANCH  21  22
ATOM     22  C   UNL     1       7.464   4.913  22.386  0.00  0.00    +0.001 C 
BRANCH  22  23
ATOM     23  C   UNL     1       5.968   4.910  22.682  0.00  0.00    +0.003 C 
BRANCH  23  24
ATOM     24  C   UNL     1       5.344   3.517  22.437  0.00  0.00    -0.014 C 
ATOM     25  C   UNL     1       6.358   2.395  22.696  0.00  0.00    +0.007 C 
BRANCH  24  26
ATOM     26  C   UNL     1       4.089   3.269  23.302  0.00  0.00    +0.003 C 
BRANCH  26  27
ATOM     27  C   UNL     1       4.405   2.618  24.650  0.00  0.00    +0.001 C 
BRANCH  27  28
ATOM     28  C   UNL     1       4.434   3.637  25.793  0.00  0.00    +0.003 C 
BRANCH  28  30
ATOM     29  C   UNL     1       6.549   4.857  26.400  0.00  0.00    +0.007 C 
ATOM     30  C   UNL     1       5.740   3.577  26.609  0.00  0.00    -0.017 C 
ATOM     31  C   UNL     1       5.495   3.365  28.105  0.00  0.00    +0.007 C 
ENDBRANCH  28  30
ENDBRANCH  27  28
ENDBRANCH  26  27
ENDBRANCH  24  26
ENDBRANCH  23  24
ENDBRANCH  22  23
ENDBRANCH  21  22
ENDBRANCH  19  21
ENDBRANCH  18  19
ENDBRANCH  17  18
ENDBRANCH  16  17
ENDBRANCH  14  16
ENDBRANCH  13  14
ENDBRANCH  12  13
ENDBRANCH  11  12
ENDBRANCH  10  11
ENDBRANCH   1  10
BRANCH   1  32
ATOM     32  O   UNL     1       6.455  -2.743  23.723  0.00  0.00    -0.372 OA
BRANCH  32  33
ATOM     33  C   UNL     1       6.768  -1.386  24.056  0.00  0.00    +0.160 C 
BRANCH  33  34
ATOM     34  C   UNL     1       5.669  -0.744  24.905  0.00  0.00    +0.031 C 
BRANCH  34  35
ATOM     35  C   UNL     1       6.150  -0.036  26.179  0.00  0.00    -0.012 C 
ATOM     36  C   UNL     1       7.587   0.451  25.957  0.00  0.00    +0.007 C 
BRANCH  35  37
ATOM     37  C   UNL     1       6.055  -0.937  27.429  0.00  0.00    +0.003 C 
BRANCH  37  38
ATOM     38  C   UNL     1       4.668  -0.971  28.088  0.00  0.00    +0.001 C 
BRANCH  38  39
ATOM     39  C   UNL     1       4.032  -2.366  28.167  0.00  0.00    +0.003 C 
BRANCH  39  40
ATOM     40  C   UNL     1       2.538  -2.423  27.780  0.00  0.00    -0.014 C 
ATOM     41  C   UNL     1       2.082  -1.114  27.128  0.00  0.00    +0.007 C 
BRANCH  40  42
ATOM     42  C   UNL     1       2.237  -3.612  26.839  0.00  0.00    +0.003 C 
BRANCH  42  43
ATOM     43  C   UNL     1       2.548  -3.370  25.353  0.00  0.00    +0.001 C 
BRANCH  43  44
ATOM     44  C   UNL     1       3.851  -4.031  24.895  0.00  0.00    +0.003 C 
BRANCH  44  45
ATOM     45  C   UNL     1       3.696  -5.192  23.894  0.00  0.00    -0.014 C 
ATOM     46  C   UNL     1       2.236  -5.407  23.478  0.00  0.00    +0.007 C 
BRANCH  45  47
ATOM     47  C   UNL     1       4.345  -6.484  24.423  0.00  0.00    +0.003 C 
BRANCH  47  48
ATOM     48  C   UNL     1       3.871  -6.807  25.840  0.00  0.00    +0.001 C 
BRANCH  48  49
ATOM     49  C   UNL     1       4.987  -6.705  26.875  0.00  0.00    +0.003 C 
BRANCH  49  50
ATOM     50  C   UNL     1       4.502  -6.030  28.173  0.00  0.00    -0.017 C 
ATOM     51  C   UNL     1       5.688  -5.720  29.084  0.00  0.00    +0.007 C 
ATOM     52  C   UNL     1       3.477  -6.885  28.921  0.00  0.00    +0.007 C 
ENDBRANCH  49  50
ENDBRANCH  48  49
ENDBRANCH  47  48
ENDBRANCH  45  47
ENDBRANCH  44  45
ENDBRANCH  43  44
ENDBRANCH  42  43
ENDBRANCH  40  42
ENDBRANCH  39  40
ENDBRANCH  38  39
ENDBRANCH  37  38
ENDBRANCH  35  37
ENDBRANCH  34  35
ENDBRANCH  33  34
ENDBRANCH  32  33
ENDBRANCH   1  32
TORSDOF 38
ENDMDL
MODEL 8
REMARK VINA RESULT:      -4.3      3.217      5.636
REMARK  Name = 
REMARK  48 active torsions:
REMARK  status: ('A' for Active; 'I' for Inactive)
REMARK    1  A    between atoms: C_1  and  C_2
REMARK    2  A    between atoms: C_2  and  C_3
REMARK    3  A    between atoms: C_2  and  C_4
REMARK    4  A    between atoms: C_4  and  C_5
REMARK    5  A    between atoms: C_5  and  C_6
REMARK    6  A    between atoms: C_6  and  C_7
REMARK    7  A    between atoms: C_7  and  C_9
REMARK    8  A    between atoms: C_7  and  C_10
REMARK    9  A    between atoms: C_10  and  C_11
REMARK   10  A    between atoms: C_11  and  C_12
REMARK   11  A    between atoms: C_12  and  C_13
REMARK   12  A    between atoms: C_13  and  C_15
REMARK   13  A    between atoms: C_13  and  C_16
REMARK   14  A    between atoms: C_16  and  C_17
REMARK   15  A    between atoms: C_17  and  C_18
REMARK   16  A    between atoms: C_18  and  C_19
REMARK   17  A    between atoms: C_19  and  C_21
REMARK   18  A    between atoms: C_19  and  C_22
REMARK   19  A    between atoms: C_22  and  C_23
REMARK   20  A    between atoms: C_23  and  O_24
REMARK   21  A    between atoms: O_24  and  C_25
REMARK   22  A    between atoms: C_25  and  C_26
REMARK   23  A    between atoms: C_26  and  C_28
REMARK   24  A    between atoms: C_26  and  O_34
REMARK   25  A    between atoms: C_28  and  O_29
REMARK   26  A    between atoms: O_29  and  P_30
REMARK   27  A    between atoms: P_30  and  O_31
REMARK   28  A    between atoms: P_30  and  O_32
REMARK   29  A    between atoms: O_34  and  C_35
REMARK   30  A    between atoms: C_35  and  C_36
REMARK   31  A    between atoms: C_36  and  C_37
REMARK   32  A    between atoms: C_37  and  C_39
REMARK   33  A    between atoms: C_37  and  C_40
REMARK   34  A    between atoms: C_40  and  C_41
REMARK   35  A    between atoms: C_41  and  C_42
REMARK   36  A    between atoms: C_42  and  C_43
REMARK   37  A    between atoms: C_43  and  C_45
REMARK   38  A    between atoms: C_43  and  C_46
REMARK   39  A    between atoms: C_46  and  C_47
REMARK   40  A    between atoms: C_47  and  C_48
REMARK   41  A    between atoms: C_48  and  C_49
REMARK   42  A    between atoms: C_49  and  C_51
REMARK   43  A    between atoms: C_49  and  C_52
REMARK   44  A    between atoms: C_52  and  C_53
REMARK   45  A    between atoms: C_53  and  C_54
REMARK   46  A    between atoms: C_54  and  C_55
REMARK   47  A    between atoms: C_55  and  C_56
REMARK   48  A    between atoms: C_55  and  C_57
REMARK                            x       y       z     vdW  Elec       q    Type
REMARK                         _______ _______ _______ _____ _____    ______ ____
ROOT
ATOM      1  C   UNL     1       4.126  -1.482  28.633  0.00  0.00    +0.170 C 
ENDROOT
BRANCH   1   2
ATOM      2  C   UNL     1       2.818  -0.898  28.080  0.00  0.00    +0.206 C 
BRANCH   2   3
ATOM      3  O   UNL     1       2.510   0.318  28.737  0.00  0.00    -0.284 OA
BRANCH   3   4
ATOM      4  P   UNL     1       2.426   1.634  27.849  0.00  0.00    +0.472 P 
ATOM      5  O   UNL     1       1.324   2.604  28.071  0.00  0.00    -0.228 OA
BRANCH   4   6
ATOM      6  O   UNL     1       3.883   2.231  28.155  0.00  0.00    -0.303 OA
ATOM      7  H   UNL     1       4.392   1.578  28.671  0.00  0.00    +0.222 HD
ENDBRANCH   4   6
BRANCH   4   8
ATOM      8  O   UNL     1       2.671   1.116  26.361  0.00  0.00    -0.303 OA
ATOM      9  H   UNL     1       2.168   1.671  25.739  0.00  0.00    +0.222 HD
ENDBRANCH   4   8
ENDBRANCH   3   4
ENDBRANCH   2   3
ENDBRANCH   1   2
BRANCH   1  10
ATOM     10  C   UNL     1       5.302  -1.270  27.674  0.00  0.00    +0.193 C 
BRANCH  10  11
ATOM     11  O   UNL     1       5.769   0.076  27.694  0.00  0.00    -0.377 OA
BRANCH  11  12
ATOM     12  C   UNL     1       7.197   0.133  27.679  0.00  0.00    +0.160 C 
BRANCH  12  13
ATOM     13  C   UNL     1       7.810  -0.910  26.742  0.00  0.00    +0.031 C 
BRANCH  13  14
ATOM     14  C   UNL     1       8.173  -0.338  25.356  0.00  0.00    -0.012 C 
ATOM     15  C   UNL     1       9.326  -1.133  24.732  0.00  0.00    +0.007 C 
BRANCH  14  16
ATOM     16  C   UNL     1       6.940  -0.273  24.429  0.00  0.00    +0.003 C 
BRANCH  16  17
ATOM     17  C   UNL     1       7.325  -0.160  22.959  0.00  0.00    +0.001 C 
BRANCH  17  18
ATOM     18  C   UNL     1       7.635   1.263  22.509  0.00  0.00    +0.003 C 
BRANCH  18  19
ATOM     19  C   UNL     1       8.959   1.311  21.717  0.00  0.00    -0.014 C 
ATOM     20  C   UNL     1       9.442  -0.093  21.315  0.00  0.00    +0.007 C 
BRANCH  19  21
ATOM     21  C   UNL     1      10.028   2.065  22.528  0.00  0.00    +0.003 C 
BRANCH  21  22
ATOM     22  C   UNL     1       9.397   2.838  23.686  0.00  0.00    +0.001 C 
BRANCH  22  23
ATOM     23  C   UNL     1       9.825   4.301  23.732  0.00  0.00    +0.003 C 
BRANCH  23  24
ATOM     24  C   UNL     1       8.607   5.251  23.667  0.00  0.00    -0.014 C 
ATOM     25  C   UNL     1       9.040   6.722  23.738  0.00  0.00    +0.007 C 
BRANCH  24  26
ATOM     26  C   UNL     1       7.756   5.040  22.397  0.00  0.00    +0.003 C 
BRANCH  26  27
ATOM     27  C   UNL     1       6.325   4.594  22.697  0.00  0.00    +0.001 C 
BRANCH  27  28
ATOM     28  C   UNL     1       5.872   5.003  24.102  0.00  0.00    +0.003 C 
BRANCH  28  30
ATOM     29  C   UNL     1       4.677   2.792  23.985  0.00  0.00    +0.007 C 
ATOM     30  C   UNL     1       5.323   3.817  24.918  0.00  0.00    -0.017 C 
ATOM     31  C   UNL     1       6.398   3.132  25.766  0.00  0.00    +0.007 C 
ENDBRANCH  28  30
ENDBRANCH  27  28
ENDBRANCH  26  27
ENDBRANCH  24  26
ENDBRANCH  23  24
ENDBRANCH  22  23
ENDBRANCH  21  22
ENDBRANCH  19  21
ENDBRANCH  18  19
ENDBRANCH  17  18
ENDBRANCH  16  17
ENDBRANCH  14  16
ENDBRANCH  13  14
ENDBRANCH  12  13
ENDBRANCH  11  12
ENDBRANCH  10  11
ENDBRANCH   1  10
BRANCH   1  32
ATOM     32  O   UNL     1       3.920  -2.885  28.902  0.00  0.00    -0.372 OA
BRANCH  32  33
ATOM     33  C   UNL     1       4.524  -3.790  27.971  0.00  0.00    +0.160 C 
BRANCH  33  34
ATOM     34  C   UNL     1       3.476  -4.621  27.228  0.00  0.00    +0.031 C 
BRANCH  34  35
ATOM     35  C   UNL     1       3.530  -6.133  27.486  0.00  0.00    -0.012 C 
ATOM     36  C   UNL     1       4.512  -6.764  26.492  0.00  0.00    +0.007 C 
BRANCH  35  37
ATOM     37  C   UNL     1       2.140  -6.799  27.393  0.00  0.00    +0.003 C 
BRANCH  37  38
ATOM     38  C   UNL     1       1.806  -7.391  26.015  0.00  0.00    +0.001 C 
BRANCH  38  39
ATOM     39  C   UNL     1       0.661  -6.682  25.277  0.00  0.00    +0.003 C 
BRANCH  39  40
ATOM     40  C   UNL     1       1.093  -5.857  24.046  0.00  0.00    -0.014 C 
ATOM     41  C   UNL     1       1.324  -4.388  24.414  0.00  0.00    +0.007 C 
BRANCH  40  42
ATOM     42  C   UNL     1       2.362  -6.439  23.383  0.00  0.00    +0.003 C 
BRANCH  42  43
ATOM     43  C   UNL     1       3.533  -5.454  23.226  0.00  0.00    +0.001 C 
BRANCH  43  44
ATOM     44  C   UNL     1       4.855  -6.142  22.875  0.00  0.00    +0.003 C 
BRANCH  44  45
ATOM     45  C   UNL     1       5.847  -5.302  22.050  0.00  0.00    -0.014 C 
ATOM     46  C   UNL     1       7.193  -6.015  21.860  0.00  0.00    +0.007 C 
BRANCH  45  47
ATOM     47  C   UNL     1       6.017  -3.890  22.637  0.00  0.00    +0.003 C 
BRANCH  47  48
ATOM     48  C   UNL     1       7.237  -3.810  23.555  0.00  0.00    +0.001 C 
BRANCH  48  49
ATOM     49  C   UNL     1       6.898  -4.089  25.017  0.00  0.00    +0.003 C 
BRANCH  49  50
ATOM     50  C   UNL     1       7.732  -5.254  25.584  0.00  0.00    -0.017 C 
ATOM     51  C   UNL     1       7.765  -5.188  27.110  0.00  0.00    +0.007 C 
ATOM     52  C   UNL     1       9.159  -5.267  25.030  0.00  0.00    +0.007 C 
ENDBRANCH  49  50
ENDBRANCH  48  49
ENDBRANCH  47  48
ENDBRANCH  45  47
ENDBRANCH  44  45
ENDBRANCH  43  44
ENDBRANCH  42  43
ENDBRANCH  40  42
ENDBRANCH  39  40
ENDBRANCH  38  39
ENDBRANCH  37  38
ENDBRANCH  35  37
ENDBRANCH  34  35
ENDBRANCH  33  34
ENDBRANCH  32  33
ENDBRANCH   1  32
TORSDOF 38
ENDMDL
MODEL 9
REMARK VINA RESULT:      -4.3      3.556      8.438
REMARK  Name = 
REMARK  48 active torsions:
REMARK  status: ('A' for Active; 'I' for Inactive)
REMARK    1  A    between atoms: C_1  and  C_2
REMARK    2  A    between atoms: C_2  and  C_3
REMARK    3  A    between atoms: C_2  and  C_4
REMARK    4  A    between atoms: C_4  and  C_5
REMARK    5  A    between atoms: C_5  and  C_6
REMARK    6  A    between atoms: C_6  and  C_7
REMARK    7  A    between atoms: C_7  and  C_9
REMARK    8  A    between atoms: C_7  and  C_10
REMARK    9  A    between atoms: C_10  and  C_11
REMARK   10  A    between atoms: C_11  and  C_12
REMARK   11  A    between atoms: C_12  and  C_13
REMARK   12  A    between atoms: C_13  and  C_15
REMARK   13  A    between atoms: C_13  and  C_16
REMARK   14  A    between atoms: C_16  and  C_17
REMARK   15  A    between atoms: C_17  and  C_18
REMARK   16  A    between atoms: C_18  and  C_19
REMARK   17  A    between atoms: C_19  and  C_21
REMARK   18  A    between atoms: C_19  and  C_22
REMARK   19  A    between atoms: C_22  and  C_23
REMARK   20  A    between atoms: C_23  and  O_24
REMARK   21  A    between atoms: O_24  and  C_25
REMARK   22  A    between atoms: C_25  and  C_26
REMARK   23  A    between atoms: C_26  and  C_28
REMARK   24  A    between atoms: C_26  and  O_34
REMARK   25  A    between atoms: C_28  and  O_29
REMARK   26  A    between atoms: O_29  and  P_30
REMARK   27  A    between atoms: P_30  and  O_31
REMARK   28  A    between atoms: P_30  and  O_32
REMARK   29  A    between atoms: O_34  and  C_35
REMARK   30  A    between atoms: C_35  and  C_36
REMARK   31  A    between atoms: C_36  and  C_37
REMARK   32  A    between atoms: C_37  and  C_39
REMARK   33  A    between atoms: C_37  and  C_40
REMARK   34  A    between atoms: C_40  and  C_41
REMARK   35  A    between atoms: C_41  and  C_42
REMARK   36  A    between atoms: C_42  and  C_43
REMARK   37  A    between atoms: C_43  and  C_45
REMARK   38  A    between atoms: C_43  and  C_46
REMARK   39  A    between atoms: C_46  and  C_47
REMARK   40  A    between atoms: C_47  and  C_48
REMARK   41  A    between atoms: C_48  and  C_49
REMARK   42  A    between atoms: C_49  and  C_51
REMARK   43  A    between atoms: C_49  and  C_52
REMARK   44  A    between atoms: C_52  and  C_53
REMARK   45  A    between atoms: C_53  and  C_54
REMARK   46  A    between atoms: C_54  and  C_55
REMARK   47  A    between atoms: C_55  and  C_56
REMARK   48  A    between atoms: C_55  and  C_57
REMARK                            x       y       z     vdW  Elec       q    Type
REMARK                         _______ _______ _______ _____ _____    ______ ____
ROOT
ATOM      1  C   UNL     1       4.482   3.917  23.336  0.00  0.00    +0.170 C 
ENDROOT
BRANCH   1   2
ATOM      2  C   UNL     1       3.232   4.311  22.536  0.00  0.00    +0.206 C 
BRANCH   2   3
ATOM      3  O   UNL     1       2.906   3.293  21.606  0.00  0.00    -0.284 OA
BRANCH   3   4
ATOM      4  P   UNL     1       1.366   3.007  21.339  0.00  0.00    +0.472 P 
ATOM      5  O   UNL     1       0.509   4.070  20.754  0.00  0.00    -0.228 OA
BRANCH   4   6
ATOM      6  O   UNL     1       1.513   1.711  20.405  0.00  0.00    -0.303 OA
ATOM      7  H   UNL     1       1.841   1.987  19.529  0.00  0.00    +0.222 HD
ENDBRANCH   4   6
BRANCH   4   8
ATOM      8  O   UNL     1       0.862   2.301  22.677  0.00  0.00    -0.303 OA
ATOM      9  H   UNL     1       1.046   1.346  22.628  0.00  0.00    +0.222 HD
ENDBRANCH   4   8
ENDBRANCH   3   4
ENDBRANCH   2   3
ENDBRANCH   1   2
BRANCH   1  10
ATOM     10  C   UNL     1       5.661   3.560  22.424  0.00  0.00    +0.193 C 
BRANCH  10  11
ATOM     11  O   UNL     1       6.110   2.224  22.634  0.00  0.00    -0.377 OA
BRANCH  11  12
ATOM     12  C   UNL     1       7.252   1.925  21.828  0.00  0.00    +0.160 C 
BRANCH  12  13
ATOM     13  C   UNL     1       8.505   2.666  22.299  0.00  0.00    +0.031 C 
BRANCH  13  14
ATOM     14  C   UNL     1       9.790   1.820  22.173  0.00  0.00    -0.012 C 
ATOM     15  C   UNL     1      10.501   1.720  23.527  0.00  0.00    +0.007 C 
BRANCH  14  16
ATOM     16  C   UNL     1       9.497   0.432  21.563  0.00  0.00    +0.003 C 
BRANCH  16  17
ATOM     17  C   UNL     1      10.188  -0.693  22.323  0.00  0.00    +0.001 C 
BRANCH  17  18
ATOM     18  C   UNL     1       9.238  -1.769  22.835  0.00  0.00    +0.003 C 
BRANCH  18  19
ATOM     19  C   UNL     1       8.314  -1.207  23.935  0.00  0.00    -0.014 C 
ATOM     20  C   UNL     1       8.534  -1.907  25.287  0.00  0.00    +0.007 C 
BRANCH  19  21
ATOM     21  C   UNL     1       6.844  -1.300  23.484  0.00  0.00    +0.003 C 
BRANCH  21  22
ATOM     22  C   UNL     1       6.280  -2.698  23.733  0.00  0.00    +0.001 C 
BRANCH  22  23
ATOM     23  C   UNL     1       5.782  -3.377  22.462  0.00  0.00    +0.003 C 
BRANCH  23  24
ATOM     24  C   UNL     1       6.577  -4.668  22.159  0.00  0.00    -0.014 C 
ATOM     25  C   UNL     1       7.609  -4.961  23.256  0.00  0.00    +0.007 C 
BRANCH  24  26
ATOM     26  C   UNL     1       5.664  -5.901  21.988  0.00  0.00    +0.003 C 
BRANCH  26  27
ATOM     27  C   UNL     1       4.419  -5.858  22.875  0.00  0.00    +0.001 C 
BRANCH  27  28
ATOM     28  C   UNL     1       4.579  -6.706  24.140  0.00  0.00    +0.003 C 
BRANCH  28  30
ATOM     29  C   UNL     1       5.524  -5.604  26.195  0.00  0.00    +0.007 C 
ATOM     30  C   UNL     1       4.242  -5.924  25.425  0.00  0.00    -0.017 C 
ATOM     31  C   UNL     1       3.474  -4.629  25.147  0.00  0.00    +0.007 C 
ENDBRANCH  28  30
ENDBRANCH  27  28
ENDBRANCH  26  27
ENDBRANCH  24  26
ENDBRANCH  23  24
ENDBRANCH  22  23
ENDBRANCH  21  22
ENDBRANCH  19  21
ENDBRANCH  18  19
ENDBRANCH  17  18
ENDBRANCH  16  17
ENDBRANCH  14  16
ENDBRANCH  13  14
ENDBRANCH  12  13
ENDBRANCH  11  12
ENDBRANCH  10  11
ENDBRANCH   1  10
BRANCH   1  32
ATOM     32  O   UNL     1       4.140   2.813  24.201  0.00  0.00    -0.372 OA
BRANCH  32  33
ATOM     33  C   UNL     1       3.043   3.041  25.094  0.00  0.00    +0.160 C 
BRANCH  33  34
ATOM     34  C   UNL     1       3.515   3.597  26.439  0.00  0.00    +0.031 C 
BRANCH  34  35
ATOM     35  C   UNL     1       2.950   2.891  27.679  0.00  0.00    -0.012 C 
ATOM     36  C   UNL     1       2.602   3.950  28.730  0.00  0.00    +0.007 C 
BRANCH  35  37
ATOM     37  C   UNL     1       3.920   1.835  28.253  0.00  0.00    +0.003 C 
BRANCH  37  38
ATOM     38  C   UNL     1       3.923   0.495  27.502  0.00  0.00    +0.001 C 
BRANCH  38  39
ATOM     39  C   UNL     1       5.188   0.231  26.674  0.00  0.00    +0.003 C 
BRANCH  39  40
ATOM     40  C   UNL     1       6.371   1.178  26.971  0.00  0.00    -0.014 C 
ATOM     41  C   UNL     1       7.381   0.526  27.920  0.00  0.00    +0.007 C 
BRANCH  40  42
ATOM     42  C   UNL     1       7.083   1.629  25.675  0.00  0.00    +0.003 C 
BRANCH  42  43
ATOM     43  C   UNL     1       7.810   2.981  25.760  0.00  0.00    +0.001 C 
BRANCH  43  44
ATOM     44  C   UNL     1       6.892   4.132  26.181  0.00  0.00    +0.003 C 
BRANCH  44  45
ATOM     45  C   UNL     1       7.319   4.900  27.447  0.00  0.00    -0.014 C 
ATOM     46  C   UNL     1       6.443   4.552  28.658  0.00  0.00    +0.007 C 
BRANCH  45  47
ATOM     47  C   UNL     1       7.382   6.416  27.193  0.00  0.00    +0.003 C 
BRANCH  47  48
ATOM     48  C   UNL     1       7.945   6.727  25.806  0.00  0.00    +0.001 C 
BRANCH  48  49
ATOM     49  C   UNL     1       9.428   6.388  25.680  0.00  0.00    +0.003 C 
BRANCH  49  50
ATOM     50  C   UNL     1       9.754   5.754  24.313  0.00  0.00    -0.017 C 
ATOM     51  C   UNL     1      11.235   5.934  23.985  0.00  0.00    +0.007 C 
ATOM     52  C   UNL     1       8.895   6.335  23.187  0.00  0.00    +0.007 C 
ENDBRANCH  49  50
ENDBRANCH  48  49
ENDBRANCH  47  48
ENDBRANCH  45  47
ENDBRANCH  44  45
ENDBRANCH  43  44
ENDBRANCH  42  43
ENDBRANCH  40  42
ENDBRANCH  39  40
ENDBRANCH  38  39
ENDBRANCH  37  38
ENDBRANCH  35  37
ENDBRANCH  34  35
ENDBRANCH  33  34
ENDBRANCH  32  33
ENDBRANCH   1  32
TORSDOF 38
ENDMDL
