MODEL 1
REMARK VINA RESULT:      -6.1      0.000      0.000
REMARK  Name = 
REMARK  6 active torsions:
REMARK  status: ('A' for Active; 'I' for Inactive)
REMARK    1  A    between atoms: C_2  and  C_16
REMARK    2  A    between atoms: N_4  and  C_5
REMARK    3  A    between atoms: C_5  and  C_6
REMARK    4  A    between atoms: N_18  and  C_19
REMARK    5  A    between atoms: C_19  and  C_20
REMARK    6  A    between atoms: C_20  and  S_21
REMARK                            x       y       z     vdW  Elec       q    Type
REMARK                         _______ _______ _______ _____ _____    ______ ____
ROOT
ATOM      1  C   UNL     1       6.583  -3.494  23.844  0.00  0.00    +0.155 C 
ATOM      2  N   UNL     1       7.110  -4.512  24.811  0.00  0.00    -0.303 NA
ATOM      3  H   UNL     1       6.392  -4.654  25.524  0.00  0.00    +0.123 HD
ATOM      4  C   UNL     1       8.314  -3.972  25.467  0.00  0.00    +0.097 C 
ATOM      5  C   UNL     1       9.387  -3.508  24.459  0.00  0.00    +0.100 C 
ATOM      6  N   UNL     1       8.852  -2.440  23.595  0.00  0.00    -0.295 NA
ATOM      7  C   UNL     1       7.666  -2.959  22.877  0.00  0.00    +0.113 C 
ENDROOT
BRANCH   1   8
ATOM      8  C   UNL     1       5.459  -4.114  22.993  0.00  0.00    +0.231 C 
ATOM      9  N   UNL     1       4.689  -5.039  23.664  0.00  0.00    -0.313 N 
ATOM     10  H   UNL     1       4.875  -5.133  24.661  0.00  0.00    +0.149 HD
ATOM     11  O   UNL     1       5.312  -3.858  21.801  0.00  0.00    -0.274 OA
BRANCH   9  12
ATOM     12  C   UNL     1       3.595  -5.750  23.037  0.00  0.00    +0.114 C 
BRANCH  12  13
ATOM     13  C   UNL     1       2.215  -5.226  23.443  0.00  0.00    +0.084 C 
BRANCH  13  14
ATOM     14  S   UNL     1       0.873  -6.155  22.633  0.00  0.00    -0.177 S 
ATOM     15  H   UNL     1       1.667  -6.852  21.807  0.00  0.00    +0.102 HD
ENDBRANCH  13  14
ENDBRANCH  12  13
ENDBRANCH   9  12
ENDBRANCH   1   8
BRANCH   6  16
ATOM     16  C   UNL     1       9.881  -1.927  22.679  0.00  0.00    +0.119 C 
BRANCH  16  17
ATOM     17  C   UNL     1      10.100  -0.434  22.840  0.00  0.00    -0.033 A 
ATOM     18  C   UNL     1       9.789   0.449  21.793  0.00  0.00    +0.008 A 
ATOM     19  C   UNL     1       9.885   1.828  21.983  0.00  0.00    +0.038 A 
ATOM     20  C   UNL     1      10.300   2.322  23.213  0.00  0.00    +0.123 A 
ATOM     21  F   UNL     1      10.357   3.649  23.404  0.00  0.00    -0.205 F 
ATOM     22  C   UNL     1      10.645   1.468  24.252  0.00  0.00    +0.038 A 
ATOM     23  C   UNL     1      10.549   0.088  24.066  0.00  0.00    +0.008 A 
ENDBRANCH  16  17
ENDBRANCH   6  16
TORSDOF 6
ENDMDL
MODEL 2
REMARK VINA RESULT:      -6.0      5.569      8.562
REMARK  Name = 
REMARK  6 active torsions:
REMARK  status: ('A' for Active; 'I' for Inactive)
REMARK    1  A    between atoms: C_2  and  C_16
REMARK    2  A    between atoms: N_4  and  C_5
REMARK    3  A    between atoms: C_5  and  C_6
REMARK    4  A    between atoms: N_18  and  C_19
REMARK    5  A    between atoms: C_19  and  C_20
REMARK    6  A    between atoms: C_20  and  S_21
REMARK                            x       y       z     vdW  Elec       q    Type
REMARK                         _______ _______ _______ _____ _____    ______ ____
ROOT
ATOM      1  C   UNL     1       8.880   2.470  23.302  0.00  0.00    +0.155 C 
ATOM      2  N   UNL     1       9.293   2.439  21.860  0.00  0.00    -0.303 NA
ATOM      3  H   UNL     1       8.684   3.086  21.355  0.00  0.00    +0.123 HD
ATOM      4  C   UNL     1       9.068   1.083  21.327  0.00  0.00    +0.097 C 
ATOM      5  C   UNL     1       9.767  -0.011  22.163  0.00  0.00    +0.100 C 
ATOM      6  N   UNL     1       9.258  -0.004  23.546  0.00  0.00    -0.295 NA
ATOM      7  C   UNL     1       9.509   1.330  24.138  0.00  0.00    +0.113 C 
ENDROOT
BRANCH   1   8
ATOM      8  C   UNL     1       9.303   3.807  23.938  0.00  0.00    +0.231 C 
ATOM      9  N   UNL     1      10.333   4.443  23.279  0.00  0.00    -0.313 N 
ATOM     10  H   UNL     1      10.627   4.021  22.401  0.00  0.00    +0.149 HD
ATOM     11  O   UNL     1       8.812   4.231  24.980  0.00  0.00    -0.274 OA
BRANCH   9  12
ATOM     12  C   UNL     1      10.891   5.701  23.728  0.00  0.00    +0.114 C 
BRANCH  12  13
ATOM     13  C   UNL     1      12.418   5.687  23.840  0.00  0.00    +0.084 C 
BRANCH  13  14
ATOM     14  S   UNL     1      13.216   5.560  22.207  0.00  0.00    -0.177 S 
ATOM     15  H   UNL     1      12.439   6.471  21.604  0.00  0.00    +0.102 HD
ENDBRANCH  13  14
ENDBRANCH  12  13
ENDBRANCH   9  12
ENDBRANCH   1   8
BRANCH   6  16
ATOM     16  C   UNL     1       9.852  -1.088  24.341  0.00  0.00    +0.119 C 
BRANCH  16  17
ATOM     17  C   UNL     1       8.937  -2.295  24.439  0.00  0.00    -0.033 A 
ATOM     18  C   UNL     1       7.543  -2.141  24.355  0.00  0.00    +0.008 A 
ATOM     19  C   UNL     1       6.712  -3.261  24.332  0.00  0.00    +0.038 A 
ATOM     20  C   UNL     1       7.270  -4.531  24.405  0.00  0.00    +0.123 A 
ATOM     21  F   UNL     1       6.471  -5.606  24.347  0.00  0.00    -0.205 F 
ATOM     22  C   UNL     1       8.643  -4.706  24.522  0.00  0.00    +0.038 A 
ATOM     23  C   UNL     1       9.478  -3.589  24.544  0.00  0.00    +0.008 A 
ENDBRANCH  16  17
ENDBRANCH   6  16
TORSDOF 6
ENDMDL
MODEL 3
REMARK VINA RESULT:      -6.0      5.356      8.080
REMARK  Name = 
REMARK  6 active torsions:
REMARK  status: ('A' for Active; 'I' for Inactive)
REMARK    1  A    between atoms: C_2  and  C_16
REMARK    2  A    between atoms: N_4  and  C_5
REMARK    3  A    between atoms: C_5  and  C_6
REMARK    4  A    between atoms: N_18  and  C_19
REMARK    5  A    between atoms: C_19  and  C_20
REMARK    6  A    between atoms: C_20  and  S_21
REMARK                            x       y       z     vdW  Elec       q    Type
REMARK                         _______ _______ _______ _____ _____    ______ ____
ROOT
ATOM      1  C   UNL     1       7.680   2.196  21.826  0.00  0.00    +0.155 C 
ATOM      2  N   UNL     1       9.175   2.317  21.792  0.00  0.00    -0.303 NA
ATOM      3  H   UNL     1       9.421   2.796  20.922  0.00  0.00    +0.123 HD
ATOM      4  C   UNL     1       9.765   0.967  21.759  0.00  0.00    +0.097 C 
ATOM      5  C   UNL     1       9.275   0.073  22.918  0.00  0.00    +0.100 C 
ATOM      6  N   UNL     1       7.812  -0.096  22.852  0.00  0.00    -0.295 NA
ATOM      7  C   UNL     1       7.176   1.238  22.932  0.00  0.00    +0.113 C 
ENDROOT
BRANCH   1   8
ATOM      8  C   UNL     1       7.049   3.578  22.078  0.00  0.00    +0.231 C 
ATOM      9  N   UNL     1       7.961   4.609  22.148  0.00  0.00    -0.313 N 
ATOM     10  H   UNL     1       8.924   4.367  21.925  0.00  0.00    +0.149 HD
ATOM     11  O   UNL     1       5.847   3.732  22.270  0.00  0.00    -0.274 OA
BRANCH   9  12
ATOM     12  C   UNL     1       7.573   5.981  22.397  0.00  0.00    +0.114 C 
BRANCH  12  13
ATOM     13  C   UNL     1       8.427   6.672  23.464  0.00  0.00    +0.084 C 
BRANCH  13  14
ATOM     14  S   UNL     1      10.048   5.863  23.663  0.00  0.00    -0.177 S 
ATOM     15  H   UNL     1       9.731   5.195  24.781  0.00  0.00    +0.102 HD
ENDBRANCH  13  14
ENDBRANCH  12  13
ENDBRANCH   9  12
ENDBRANCH   1   8
BRANCH   6  16
ATOM     16  C   UNL     1       7.331  -1.008  23.900  0.00  0.00    +0.119 C 
BRANCH  16  17
ATOM     17  C   UNL     1       7.134  -2.421  23.384  0.00  0.00    -0.033 A 
ATOM     18  C   UNL     1       6.219  -2.682  22.350  0.00  0.00    +0.008 A 
ATOM     19  C   UNL     1       6.122  -3.961  21.802  0.00  0.00    +0.038 A 
ATOM     20  C   UNL     1       6.929  -4.980  22.292  0.00  0.00    +0.123 A 
ATOM     21  F   UNL     1       6.858  -6.199  21.739  0.00  0.00    -0.205 F 
ATOM     22  C   UNL     1       7.817  -4.754  23.336  0.00  0.00    +0.038 A 
ATOM     23  C   UNL     1       7.917  -3.476  23.886  0.00  0.00    +0.008 A 
ENDBRANCH  16  17
ENDBRANCH   6  16
TORSDOF 6
ENDMDL
MODEL 4
REMARK VINA RESULT:      -5.9      2.373      2.908
REMARK  Name = 
REMARK  6 active torsions:
REMARK  status: ('A' for Active; 'I' for Inactive)
REMARK    1  A    between atoms: C_2  and  C_16
REMARK    2  A    between atoms: N_4  and  C_5
REMARK    3  A    between atoms: C_5  and  C_6
REMARK    4  A    between atoms: N_18  and  C_19
REMARK    5  A    between atoms: C_19  and  C_20
REMARK    6  A    between atoms: C_20  and  S_21
REMARK                            x       y       z     vdW  Elec       q    Type
REMARK                         _______ _______ _______ _____ _____    ______ ____
ROOT
ATOM      1  C   UNL     1       6.717  -5.091  26.203  0.00  0.00    +0.155 C 
ATOM      2  N   UNL     1       8.043  -5.617  26.664  0.00  0.00    -0.303 NA
ATOM      3  H   UNL     1       8.025  -5.636  27.686  0.00  0.00    +0.123 HD
ATOM      4  C   UNL     1       9.103  -4.685  26.238  0.00  0.00    +0.097 C 
ATOM      5  C   UNL     1       9.077  -4.405  24.720  0.00  0.00    +0.100 C 
ATOM      6  N   UNL     1       7.791  -3.799  24.332  0.00  0.00    -0.295 NA
ATOM      7  C   UNL     1       6.698  -4.729  24.698  0.00  0.00    +0.113 C 
ENDROOT
BRANCH   1   8
ATOM      8  C   UNL     1       5.623  -6.148  26.445  0.00  0.00    +0.231 C 
ATOM      9  N   UNL     1       4.563  -6.072  25.568  0.00  0.00    -0.313 N 
ATOM     10  H   UNL     1       4.664  -5.408  24.803  0.00  0.00    +0.149 HD
ATOM     11  O   UNL     1       5.662  -6.939  27.382  0.00  0.00    -0.274 OA
BRANCH   9  12
ATOM     12  C   UNL     1       3.423  -6.962  25.638  0.00  0.00    +0.114 C 
BRANCH  12  13
ATOM     13  C   UNL     1       2.939  -7.444  24.268  0.00  0.00    +0.084 C 
BRANCH  13  14
ATOM     14  S   UNL     1       2.425  -6.056  23.205  0.00  0.00    -0.177 S 
ATOM     15  H   UNL     1       3.237  -6.358  22.182  0.00  0.00    +0.102 HD
ENDBRANCH  13  14
ENDBRANCH  12  13
ENDBRANCH   9  12
ENDBRANCH   1   8
BRANCH   6  16
ATOM     16  C   UNL     1       7.772  -3.450  22.904  0.00  0.00    +0.119 C 
BRANCH  16  17
ATOM     17  C   UNL     1       8.135  -1.997  22.664  0.00  0.00    -0.033 A 
ATOM     18  C   UNL     1       9.301  -1.660  21.957  0.00  0.00    +0.008 A 
ATOM     19  C   UNL     1       9.573  -0.330  21.641  0.00  0.00    +0.038 A 
ATOM     20  C   UNL     1       8.688   0.664  22.039  0.00  0.00    +0.123 A 
ATOM     21  F   UNL     1       8.935   1.939  21.703  0.00  0.00    -0.205 F 
ATOM     22  C   UNL     1       7.546   0.359  22.768  0.00  0.00    +0.038 A 
ATOM     23  C   UNL     1       7.270  -0.971  23.085  0.00  0.00    +0.008 A 
ENDBRANCH  16  17
ENDBRANCH   6  16
TORSDOF 6
ENDMDL
MODEL 5
REMARK VINA RESULT:      -5.8      3.332      4.593
REMARK  Name = 
REMARK  6 active torsions:
REMARK  status: ('A' for Active; 'I' for Inactive)
REMARK    1  A    between atoms: C_2  and  C_16
REMARK    2  A    between atoms: N_4  and  C_5
REMARK    3  A    between atoms: C_5  and  C_6
REMARK    4  A    between atoms: N_18  and  C_19
REMARK    5  A    between atoms: C_19  and  C_20
REMARK    6  A    between atoms: C_20  and  S_21
REMARK                            x       y       z     vdW  Elec       q    Type
REMARK                         _______ _______ _______ _____ _____    ______ ____
ROOT
ATOM      1  C   UNL     1       9.641  -1.550  23.537  0.00  0.00    +0.155 C 
ATOM      2  N   UNL     1       9.215  -1.778  22.117  0.00  0.00    -0.303 NA
ATOM      3  H   UNL     1       9.812  -2.514  21.735  0.00  0.00    +0.123 HD
ATOM      4  C   UNL     1       9.450  -0.545  21.343  0.00  0.00    +0.097 C 
ATOM      5  C   UNL     1       8.771   0.692  21.969  0.00  0.00    +0.100 C 
ATOM      6  N   UNL     1       9.293   0.932  23.326  0.00  0.00    -0.295 NA
ATOM      7  C   UNL     1       9.033  -0.268  24.154  0.00  0.00    +0.113 C 
ENDROOT
BRANCH   1   8
ATOM      8  C   UNL     1       9.209  -2.743  24.410  0.00  0.00    +0.231 C 
ATOM      9  N   UNL     1       8.611  -2.383  25.598  0.00  0.00    -0.313 N 
ATOM     10  H   UNL     1       8.426  -1.390  25.721  0.00  0.00    +0.149 HD
ATOM     11  O   UNL     1       9.445  -3.908  24.104  0.00  0.00    -0.274 OA
BRANCH   9  12
ATOM     12  C   UNL     1       8.151  -3.355  26.568  0.00  0.00    +0.114 C 
BRANCH  12  13
ATOM     13  C   UNL     1       6.673  -3.722  26.410  0.00  0.00    +0.084 C 
BRANCH  13  14
ATOM     14  S   UNL     1       6.142  -4.945  27.653  0.00  0.00    -0.177 S 
ATOM     15  H   UNL     1       6.205  -6.006  26.837  0.00  0.00    +0.102 HD
ENDBRANCH  13  14
ENDBRANCH  12  13
ENDBRANCH   9  12
ENDBRANCH   1   8
BRANCH   6  16
ATOM     16  C   UNL     1       8.719   2.151  23.913  0.00  0.00    +0.119 C 
BRANCH  16  17
ATOM     17  C   UNL     1       9.653   3.340  23.792  0.00  0.00    -0.033 A 
ATOM     18  C   UNL     1       9.237   4.618  24.199  0.00  0.00    +0.008 A 
ATOM     19  C   UNL     1      10.134   5.687  24.191  0.00  0.00    +0.038 A 
ATOM     20  C   UNL     1      11.441   5.481  23.768  0.00  0.00    +0.123 A 
ATOM     21  F   UNL     1      12.310   6.502  23.795  0.00  0.00    -0.205 F 
ATOM     22  C   UNL     1      11.866   4.234  23.329  0.00  0.00    +0.038 A 
ATOM     23  C   UNL     1      10.972   3.163  23.336  0.00  0.00    +0.008 A 
ENDBRANCH  16  17
ENDBRANCH   6  16
TORSDOF 6
ENDMDL
MODEL 6
REMARK VINA RESULT:      -5.5      3.063      3.724
REMARK  Name = 
REMARK  6 active torsions:
REMARK  status: ('A' for Active; 'I' for Inactive)
REMARK    1  A    between atoms: C_2  and  C_16
REMARK    2  A    between atoms: N_4  and  C_5
REMARK    3  A    between atoms: C_5  and  C_6
REMARK    4  A    between atoms: N_18  and  C_19
REMARK    5  A    between atoms: C_19  and  C_20
REMARK    6  A    between atoms: C_20  and  S_21
REMARK                            x       y       z     vdW  Elec       q    Type
REMARK                         _______ _______ _______ _____ _____    ______ ____
ROOT
ATOM      1  C   UNL     1       7.589  -4.660  26.818  0.00  0.00    +0.155 C 
ATOM      2  N   UNL     1       8.532  -5.720  26.332  0.00  0.00    -0.303 NA
ATOM      3  H   UNL     1       9.155  -5.953  27.109  0.00  0.00    +0.123 HD
ATOM      4  C   UNL     1       9.348  -5.170  25.235  0.00  0.00    +0.097 C 
ATOM      5  C   UNL     1       8.493  -4.576  24.095  0.00  0.00    +0.100 C 
ATOM      6  N   UNL     1       7.655  -3.475  24.602  0.00  0.00    -0.295 NA
ATOM      7  C   UNL     1       6.782  -3.998  25.676  0.00  0.00    +0.113 C 
ENDROOT
BRANCH   1   8
ATOM      8  C   UNL     1       6.584  -5.271  27.812  0.00  0.00    +0.231 C 
ATOM      9  N   UNL     1       5.350  -4.657  27.814  0.00  0.00    -0.313 N 
ATOM     10  H   UNL     1       5.205  -3.949  27.098  0.00  0.00    +0.149 HD
ATOM     11  O   UNL     1       6.883  -6.177  28.584  0.00  0.00    -0.274 OA
BRANCH   9  12
ATOM     12  C   UNL     1       4.272  -5.068  28.689  0.00  0.00    +0.114 C 
BRANCH  12  13
ATOM     13  C   UNL     1       3.264  -6.003  28.018  0.00  0.00    +0.084 C 
BRANCH  13  14
ATOM     14  S   UNL     1       3.173  -5.723  26.219  0.00  0.00    -0.177 S 
ATOM     15  H   UNL     1       1.882  -5.363  26.201  0.00  0.00    +0.102 HD
ENDBRANCH  13  14
ENDBRANCH  12  13
ENDBRANCH   9  12
ENDBRANCH   1   8
BRANCH   6  16
ATOM     16  C   UNL     1       6.890  -2.841  23.518  0.00  0.00    +0.119 C 
BRANCH  16  17
ATOM     17  C   UNL     1       7.625  -1.661  22.911  0.00  0.00    -0.033 A 
ATOM     18  C   UNL     1       7.222  -0.346  23.197  0.00  0.00    +0.008 A 
ATOM     19  C   UNL     1       7.967   0.736  22.728  0.00  0.00    +0.038 A 
ATOM     20  C   UNL     1       9.106   0.505  21.966  0.00  0.00    +0.123 A 
ATOM     21  F   UNL     1       9.840   1.546  21.547  0.00  0.00    -0.205 F 
ATOM     22  C   UNL     1       9.504  -0.786  21.642  0.00  0.00    +0.038 A 
ATOM     23  C   UNL     1       8.762  -1.870  22.110  0.00  0.00    +0.008 A 
ENDBRANCH  16  17
ENDBRANCH   6  16
TORSDOF 6
ENDMDL
MODEL 7
REMARK VINA RESULT:      -5.5      2.622      3.235
REMARK  Name = 
REMARK  6 active torsions:
REMARK  status: ('A' for Active; 'I' for Inactive)
REMARK    1  A    between atoms: C_2  and  C_16
REMARK    2  A    between atoms: N_4  and  C_5
REMARK    3  A    between atoms: C_5  and  C_6
REMARK    4  A    between atoms: N_18  and  C_19
REMARK    5  A    between atoms: C_19  and  C_20
REMARK    6  A    between atoms: C_20  and  S_21
REMARK                            x       y       z     vdW  Elec       q    Type
REMARK                         _______ _______ _______ _____ _____    ______ ____
ROOT
ATOM      1  C   UNL     1       8.349  -4.165  24.328  0.00  0.00    +0.155 C 
ATOM      2  N   UNL     1       7.038  -3.727  23.744  0.00  0.00    -0.303 NA
ATOM      3  H   UNL     1       6.439  -4.553  23.688  0.00  0.00    +0.123 HD
ATOM      4  C   UNL     1       7.266  -3.228  22.376  0.00  0.00    +0.097 C 
ATOM      5  C   UNL     1       8.337  -2.118  22.315  0.00  0.00    +0.100 C 
ATOM      6  N   UNL     1       9.630  -2.625  22.808  0.00  0.00    -0.295 NA
ATOM      7  C   UNL     1       9.457  -3.092  24.202  0.00  0.00    +0.113 C 
ENDROOT
BRANCH   1   8
ATOM      8  C   UNL     1       8.173  -4.487  25.823  0.00  0.00    +0.231 C 
ATOM      9  N   UNL     1       6.860  -4.581  26.229  0.00  0.00    -0.313 N 
ATOM     10  H   UNL     1       6.161  -4.534  25.490  0.00  0.00    +0.149 HD
ATOM     11  O   UNL     1       9.122  -4.578  26.598  0.00  0.00    -0.274 OA
BRANCH   9  12
ATOM     12  C   UNL     1       6.481  -4.856  27.599  0.00  0.00    +0.114 C 
BRANCH  12  13
ATOM     13  C   UNL     1       5.166  -5.631  27.724  0.00  0.00    +0.084 C 
BRANCH  13  14
ATOM     14  S   UNL     1       4.813  -6.611  26.229  0.00  0.00    -0.177 S 
ATOM     15  H   UNL     1       5.124  -5.644  25.354  0.00  0.00    +0.102 HD
ENDBRANCH  13  14
ENDBRANCH  12  13
ENDBRANCH   9  12
ENDBRANCH   1   8
BRANCH   6  16
ATOM     16  C   UNL     1      10.686  -1.609  22.687  0.00  0.00    +0.119 C 
BRANCH  16  17
ATOM     17  C   UNL     1      10.164  -0.207  22.941  0.00  0.00    -0.033 A 
ATOM     18  C   UNL     1      10.128   0.314  24.245  0.00  0.00    +0.008 A 
ATOM     19  C   UNL     1       9.754   1.640  24.463  0.00  0.00    +0.038 A 
ATOM     20  C   UNL     1       9.408   2.441  23.381  0.00  0.00    +0.123 A 
ATOM     21  F   UNL     1       9.083   3.725  23.591  0.00  0.00    -0.205 F 
ATOM     22  C   UNL     1       9.405   1.938  22.087  0.00  0.00    +0.038 A 
ATOM     23  C   UNL     1       9.778   0.612  21.865  0.00  0.00    +0.008 A 
ENDBRANCH  16  17
ENDBRANCH   6  16
TORSDOF 6
ENDMDL
MODEL 8
REMARK VINA RESULT:      -5.5      2.035      2.701
REMARK  Name = 
REMARK  6 active torsions:
REMARK  status: ('A' for Active; 'I' for Inactive)
REMARK    1  A    between atoms: C_2  and  C_16
REMARK    2  A    between atoms: N_4  and  C_5
REMARK    3  A    between atoms: C_5  and  C_6
REMARK    4  A    between atoms: N_18  and  C_19
REMARK    5  A    between atoms: C_19  and  C_20
REMARK    6  A    between atoms: C_20  and  S_21
REMARK                            x       y       z     vdW  Elec       q    Type
REMARK                         _______ _______ _______ _____ _____    ______ ____
ROOT
ATOM      1  C   UNL     1       7.690  -2.290  24.108  0.00  0.00    +0.155 C 
ATOM      2  N   UNL     1       8.816  -3.253  23.876  0.00  0.00    -0.303 NA
ATOM      3  H   UNL     1       8.908  -3.823  24.719  0.00  0.00    +0.123 HD
ATOM      4  C   UNL     1      10.066  -2.493  23.693  0.00  0.00    +0.097 C 
ATOM      5  C   UNL     1       9.962  -1.431  22.579  0.00  0.00    +0.100 C 
ATOM      6  N   UNL     1       8.908  -0.452  22.900  0.00  0.00    -0.295 NA
ATOM      7  C   UNL     1       7.621  -1.169  23.043  0.00  0.00    +0.113 C 
ENDROOT
BRANCH   1   8
ATOM      8  C   UNL     1       6.346  -3.042  24.087  0.00  0.00    +0.231 C 
ATOM      9  N   UNL     1       6.469  -4.414  24.062  0.00  0.00    -0.313 N 
ATOM     10  H   UNL     1       7.414  -4.778  24.165  0.00  0.00    +0.149 HD
ATOM     11  O   UNL     1       5.264  -2.465  24.024  0.00  0.00    -0.274 OA
BRANCH   9  12
ATOM     12  C   UNL     1       5.327  -5.302  24.019  0.00  0.00    +0.114 C 
BRANCH  12  13
ATOM     13  C   UNL     1       4.979  -5.781  22.607  0.00  0.00    +0.084 C 
BRANCH  13  14
ATOM     14  S   UNL     1       6.426  -5.735  21.501  0.00  0.00    -0.177 S 
ATOM     15  H   UNL     1       7.190  -4.983  22.305  0.00  0.00    +0.102 HD
ENDBRANCH  13  14
ENDBRANCH  12  13
ENDBRANCH   9  12
ENDBRANCH   1   8
BRANCH   6  16
ATOM     16  C   UNL     1       8.843   0.616  21.891  0.00  0.00    +0.119 C 
BRANCH  16  17
ATOM     17  C   UNL     1       9.164   1.978  22.477  0.00  0.00    -0.033 A 
ATOM     18  C   UNL     1       8.138   2.901  22.740  0.00  0.00    +0.008 A 
ATOM     19  C   UNL     1       8.423   4.107  23.381  0.00  0.00    +0.038 A 
ATOM     20  C   UNL     1       9.731   4.394  23.749  0.00  0.00    +0.123 A 
ATOM     21  F   UNL     1       9.996   5.538  24.397  0.00  0.00    -0.205 F 
ATOM     22  C   UNL     1      10.767   3.512  23.470  0.00  0.00    +0.038 A 
ATOM     23  C   UNL     1      10.485   2.305  22.830  0.00  0.00    +0.008 A 
ENDBRANCH  16  17
ENDBRANCH   6  16
TORSDOF 6
ENDMDL
MODEL 9
REMARK VINA RESULT:      -5.4      2.807      3.329
REMARK  Name = 
REMARK  6 active torsions:
REMARK  status: ('A' for Active; 'I' for Inactive)
REMARK    1  A    between atoms: C_2  and  C_16
REMARK    2  A    between atoms: N_4  and  C_5
REMARK    3  A    between atoms: C_5  and  C_6
REMARK    4  A    between atoms: N_18  and  C_19
REMARK    5  A    between atoms: C_19  and  C_20
REMARK    6  A    between atoms: C_20  and  S_21
REMARK                            x       y       z     vdW  Elec       q    Type
REMARK                         _______ _______ _______ _____ _____    ______ ____
ROOT
ATOM      1  C   UNL     1       6.936  -4.930  24.348  0.00  0.00    +0.155 C 
ATOM      2  N   UNL     1       6.122  -5.555  23.254  0.00  0.00    -0.303 NA
ATOM      3  H   UNL     1       6.527  -6.473  23.061  0.00  0.00    +0.123 HD
ATOM      4  C   UNL     1       6.241  -4.732  22.038  0.00  0.00    +0.097 C 
ATOM      5  C   UNL     1       5.866  -3.254  22.278  0.00  0.00    +0.100 C 
ATOM      6  N   UNL     1       6.756  -2.656  23.289  0.00  0.00    -0.295 NA
ATOM      7  C   UNL     1       6.630  -3.426  24.547  0.00  0.00    +0.113 C 
ENDROOT
BRANCH   1   8
ATOM      8  C   UNL     1       6.658  -5.647  25.682  0.00  0.00    +0.231 C 
ATOM      9  N   UNL     1       5.349  -6.044  25.845  0.00  0.00    -0.313 N 
ATOM     10  H   UNL     1       4.741  -5.918  25.038  0.00  0.00    +0.149 HD
ATOM     11  O   UNL     1       7.514  -5.786  26.551  0.00  0.00    -0.274 OA
BRANCH   9  12
ATOM     12  C   UNL     1       4.878  -6.717  27.038  0.00  0.00    +0.114 C 
BRANCH  12  13
ATOM     13  C   UNL     1       3.415  -6.414  27.372  0.00  0.00    +0.084 C 
BRANCH  13  14
ATOM     14  S   UNL     1       3.180  -4.677  27.870  0.00  0.00    -0.177 S 
ATOM     15  H   UNL     1       1.843  -4.733  27.939  0.00  0.00    +0.102 HD
ENDBRANCH  13  14
ENDBRANCH  12  13
ENDBRANCH   9  12
ENDBRANCH   1   8
BRANCH   6  16
ATOM     16  C   UNL     1       6.470  -1.227  23.478  0.00  0.00    +0.119 C 
BRANCH  16  17
ATOM     17  C   UNL     1       7.542  -0.342  22.870  0.00  0.00    -0.033 A 
ATOM     18  C   UNL     1       7.322   1.036  22.710  0.00  0.00    +0.008 A 
ATOM     19  C   UNL     1       8.349   1.864  22.256  0.00  0.00    +0.038 A 
ATOM     20  C   UNL     1       9.589   1.316  21.953  0.00  0.00    +0.123 A 
ATOM     21  F   UNL     1      10.584   2.119  21.552  0.00  0.00    -0.205 F 
ATOM     22  C   UNL     1       9.819  -0.049  22.073  0.00  0.00    +0.038 A 
ATOM     23  C   UNL     1       8.795  -0.880  22.527  0.00  0.00    +0.008 A 
ENDBRANCH  16  17
ENDBRANCH   6  16
TORSDOF 6
ENDMDL
