MODEL 1
REMARK VINA RESULT:      -6.3      0.000      0.000
REMARK  Name = 
REMARK  6 active torsions:
REMARK  status: ('A' for Active; 'I' for Inactive)
REMARK    1  A    between atoms: C_1  and  C_2
REMARK    2  A    between atoms: C_2  and  C_3
REMARK    3  A    between atoms: C_3  and  C_4
REMARK    4  A    between atoms: C_4  and  C_5
REMARK    5  A    between atoms: C_6  and  C_14
REMARK    6  A    between atoms: C_17  and  O_18
REMARK                            x       y       z     vdW  Elec       q    Type
REMARK                         _______ _______ _______ _____ _____    ______ ____
ROOT
ATOM      1  C   UNL     1       8.919  -1.418  23.141  0.00  0.00    +0.005 A 
ATOM      2  C   UNL     1       9.446  -0.107  22.975  0.00  0.00    +0.111 A 
ATOM      3  C   UNL     1       9.748   0.391  24.234  0.00  0.00    +0.157 A 
ATOM      4  N   UNL     1      10.236   1.620  24.516  0.00  0.00    -0.234 NA
ATOM      5  C   UNL     1      10.418   2.336  23.377  0.00  0.00    +0.133 A 
ATOM      6  C   UNL     1      10.135   1.863  22.103  0.00  0.00    +0.131 A 
ATOM      7  N   UNL     1       9.452  -0.584  25.141  0.00  0.00    -0.338 N 
ATOM      8  H   UNL     1       9.582  -0.469  26.133  0.00  0.00    +0.167 HD
ATOM      9  N   UNL     1       9.636   0.632  21.850  0.00  0.00    -0.250 NA
ATOM     10  C   UNL     1       8.962  -1.717  24.511  0.00  0.00    +0.053 A 
ENDROOT
BRANCH  10  11
ATOM     11  C   UNL     1       8.537  -2.912  25.263  0.00  0.00    -0.001 A 
ATOM     12  C   UNL     1       9.265  -4.110  25.204  0.00  0.00    +0.013 A 
ATOM     13  C   UNL     1       8.927  -5.195  26.022  0.00  0.00    +0.046 A 
ATOM     14  C   UNL     1       7.871  -5.084  26.916  0.00  0.00    +0.117 A 
ATOM     15  C   UNL     1       7.101  -3.931  26.959  0.00  0.00    +0.046 A 
ATOM     16  C   UNL     1       7.420  -2.867  26.113  0.00  0.00    +0.013 A 
BRANCH  14  17
ATOM     17  O   UNL     1       7.624  -6.130  27.752  0.00  0.00    -0.507 OA
ATOM     18  H   UNL     1       7.509  -5.785  28.652  0.00  0.00    +0.292 HD
ENDBRANCH  14  17
ENDBRANCH  10  11
BRANCH   1  19
ATOM     19  C   UNL     1       8.389  -2.244  22.004  0.00  0.00    +0.039 C 
BRANCH  19  20
ATOM     20  C   UNL     1       7.012  -2.845  22.300  0.00  0.00    +0.004 C 
BRANCH  20  22
ATOM     21  C   UNL     1       6.137  -4.988  23.260  0.00  0.00    +0.004 C 
ATOM     22  C   UNL     1       7.029  -4.366  22.198  0.00  0.00    -0.003 C 
ENDBRANCH  20  22
ENDBRANCH  19  20
ENDBRANCH   1  19
TORSDOF 5
ENDMDL
MODEL 2
REMARK VINA RESULT:      -6.2      3.127      5.766
REMARK  Name = 
REMARK  6 active torsions:
REMARK  status: ('A' for Active; 'I' for Inactive)
REMARK    1  A    between atoms: C_1  and  C_2
REMARK    2  A    between atoms: C_2  and  C_3
REMARK    3  A    between atoms: C_3  and  C_4
REMARK    4  A    between atoms: C_4  and  C_5
REMARK    5  A    between atoms: C_6  and  C_14
REMARK    6  A    between atoms: C_17  and  O_18
REMARK                            x       y       z     vdW  Elec       q    Type
REMARK                         _______ _______ _______ _____ _____    ______ ____
ROOT
ATOM      1  C   UNL     1       7.064  -2.890  24.152  0.00  0.00    +0.005 A 
ATOM      2  C   UNL     1       6.958  -3.894  25.155  0.00  0.00    +0.111 A 
ATOM      3  C   UNL     1       8.106  -3.841  25.931  0.00  0.00    +0.157 A 
ATOM      4  N   UNL     1       8.412  -4.652  26.968  0.00  0.00    -0.234 NA
ATOM      5  C   UNL     1       7.421  -5.554  27.181  0.00  0.00    +0.133 A 
ATOM      6  C   UNL     1       6.255  -5.625  26.429  0.00  0.00    +0.131 A 
ATOM      7  N   UNL     1       8.878  -2.825  25.450  0.00  0.00    -0.338 N 
ATOM      8  H   UNL     1       9.772  -2.580  25.844  0.00  0.00    +0.167 HD
ATOM      9  N   UNL     1       5.979  -4.808  25.389  0.00  0.00    -0.250 NA
ATOM     10  C   UNL     1       8.266  -2.202  24.373  0.00  0.00    +0.053 A 
ENDROOT
BRANCH  10  11
ATOM     11  C   UNL     1       8.901  -1.087  23.646  0.00  0.00    -0.001 A 
ATOM     12  C   UNL     1       9.171  -1.170  22.272  0.00  0.00    +0.013 A 
ATOM     13  C   UNL     1       9.652  -0.060  21.567  0.00  0.00    +0.046 A 
ATOM     14  C   UNL     1       9.849   1.145  22.228  0.00  0.00    +0.117 A 
ATOM     15  C   UNL     1       9.640   1.242  23.595  0.00  0.00    +0.046 A 
ATOM     16  C   UNL     1       9.197   0.121  24.299  0.00  0.00    +0.013 A 
BRANCH  14  17
ATOM     17  O   UNL     1      10.239   2.224  21.493  0.00  0.00    -0.507 OA
ATOM     18  H   UNL     1      10.827   1.917  20.784  0.00  0.00    +0.292 HD
ENDBRANCH  14  17
ENDBRANCH  10  11
BRANCH   1  19
ATOM     19  C   UNL     1       6.049  -2.703  23.061  0.00  0.00    +0.039 C 
BRANCH  19  20
ATOM     20  C   UNL     1       6.420  -3.446  21.774  0.00  0.00    +0.004 C 
BRANCH  20  22
ATOM     21  C   UNL     1       7.115  -5.853  21.831  0.00  0.00    +0.004 C 
ATOM     22  C   UNL     1       5.938  -4.892  21.800  0.00  0.00    -0.003 C 
ENDBRANCH  20  22
ENDBRANCH  19  20
ENDBRANCH   1  19
TORSDOF 5
ENDMDL
MODEL 3
REMARK VINA RESULT:      -6.1      3.610      6.664
REMARK  Name = 
REMARK  6 active torsions:
REMARK  status: ('A' for Active; 'I' for Inactive)
REMARK    1  A    between atoms: C_1  and  C_2
REMARK    2  A    between atoms: C_2  and  C_3
REMARK    3  A    between atoms: C_3  and  C_4
REMARK    4  A    between atoms: C_4  and  C_5
REMARK    5  A    between atoms: C_6  and  C_14
REMARK    6  A    between atoms: C_17  and  O_18
REMARK                            x       y       z     vdW  Elec       q    Type
REMARK                         _______ _______ _______ _____ _____    ______ ____
ROOT
ATOM      1  C   UNL     1       7.256  -3.128  24.175  0.00  0.00    +0.005 A 
ATOM      2  C   UNL     1       6.291  -4.174  24.144  0.00  0.00    +0.111 A 
ATOM      3  C   UNL     1       5.510  -3.996  23.011  0.00  0.00    +0.157 A 
ATOM      4  N   UNL     1       4.457  -4.755  22.635  0.00  0.00    -0.234 NA
ATOM      5  C   UNL     1       4.251  -5.762  23.521  0.00  0.00    +0.133 A 
ATOM      6  C   UNL     1       5.020  -5.973  24.658  0.00  0.00    +0.131 A 
ATOM      7  N   UNL     1       5.992  -2.906  22.349  0.00  0.00    -0.338 N 
ATOM      8  H   UNL     1       5.594  -2.564  21.490  0.00  0.00    +0.167 HD
ATOM      9  N   UNL     1       6.062  -5.190  25.017  0.00  0.00    -0.250 NA
ATOM     10  C   UNL     1       7.076  -2.357  23.017  0.00  0.00    +0.053 A 
ENDROOT
BRANCH  10  11
ATOM     11  C   UNL     1       7.770  -1.150  22.531  0.00  0.00    -0.001 A 
ATOM     12  C   UNL     1       7.256   0.134  22.765  0.00  0.00    +0.013 A 
ATOM     13  C   UNL     1       7.987   1.275  22.414  0.00  0.00    +0.046 A 
ATOM     14  C   UNL     1       9.245   1.139  21.844  0.00  0.00    +0.117 A 
ATOM     15  C   UNL     1       9.757  -0.116  21.553  0.00  0.00    +0.046 A 
ATOM     16  C   UNL     1       9.006  -1.249  21.870  0.00  0.00    +0.013 A 
BRANCH  14  17
ATOM     17  O   UNL     1       9.961   2.271  21.592  0.00  0.00    -0.507 OA
ATOM     18  H   UNL     1      10.905   2.063  21.679  0.00  0.00    +0.292 HD
ENDBRANCH  14  17
ENDBRANCH  10  11
BRANCH   1  19
ATOM     19  C   UNL     1       8.224  -2.933  25.307  0.00  0.00    +0.039 C 
BRANCH  19  20
ATOM     20  C   UNL     1       7.700  -1.967  26.373  0.00  0.00    +0.004 C 
BRANCH  20  22
ATOM     21  C   UNL     1       9.502  -0.424  25.564  0.00  0.00    +0.004 C 
ATOM     22  C   UNL     1       8.761  -0.951  26.782  0.00  0.00    -0.003 C 
ENDBRANCH  20  22
ENDBRANCH  19  20
ENDBRANCH   1  19
TORSDOF 5
ENDMDL
MODEL 4
REMARK VINA RESULT:      -5.9      3.608      6.365
REMARK  Name = 
REMARK  6 active torsions:
REMARK  status: ('A' for Active; 'I' for Inactive)
REMARK    1  A    between atoms: C_1  and  C_2
REMARK    2  A    between atoms: C_2  and  C_3
REMARK    3  A    between atoms: C_3  and  C_4
REMARK    4  A    between atoms: C_4  and  C_5
REMARK    5  A    between atoms: C_6  and  C_14
REMARK    6  A    between atoms: C_17  and  O_18
REMARK                            x       y       z     vdW  Elec       q    Type
REMARK                         _______ _______ _______ _____ _____    ______ ____
ROOT
ATOM      1  C   UNL     1       5.881  -4.784  25.216  0.00  0.00    +0.005 A 
ATOM      2  C   UNL     1       5.646  -5.524  26.409  0.00  0.00    +0.111 A 
ATOM      3  C   UNL     1       6.757  -5.377  27.225  0.00  0.00    +0.157 A 
ATOM      4  N   UNL     1       6.947  -5.952  28.433  0.00  0.00    -0.234 NA
ATOM      5  C   UNL     1       5.876  -6.711  28.778  0.00  0.00    +0.133 A 
ATOM      6  C   UNL     1       4.745  -6.870  27.987  0.00  0.00    +0.131 A 
ATOM      7  N   UNL     1       7.631  -4.552  26.581  0.00  0.00    -0.338 N 
ATOM      8  H   UNL     1       8.523  -4.287  26.967  0.00  0.00    +0.167 HD
ATOM      9  N   UNL     1       4.585  -6.292  26.776  0.00  0.00    -0.250 NA
ATOM     10  C   UNL     1       7.123  -4.148  25.356  0.00  0.00    +0.053 A 
ENDROOT
BRANCH  10  11
ATOM     11  C   UNL     1       7.880  -3.273  24.441  0.00  0.00    -0.001 A 
ATOM     12  C   UNL     1       9.280  -3.196  24.494  0.00  0.00    +0.013 A 
ATOM     13  C   UNL     1       9.995  -2.465  23.538  0.00  0.00    +0.046 A 
ATOM     14  C   UNL     1       9.317  -1.821  22.513  0.00  0.00    +0.117 A 
ATOM     15  C   UNL     1       7.931  -1.836  22.465  0.00  0.00    +0.046 A 
ATOM     16  C   UNL     1       7.222  -2.535  23.444  0.00  0.00    +0.013 A 
BRANCH  14  17
ATOM     17  O   UNL     1      10.051  -1.188  21.555  0.00  0.00    -0.507 OA
ATOM     18  H   UNL     1      10.361  -0.342  21.914  0.00  0.00    +0.292 HD
ENDBRANCH  14  17
ENDBRANCH  10  11
BRANCH   1  19
ATOM     19  C   UNL     1       4.936  -4.778  24.048  0.00  0.00    +0.039 C 
BRANCH  19  20
ATOM     20  C   UNL     1       5.119  -5.994  23.135  0.00  0.00    +0.004 C 
BRANCH  20  22
ATOM     21  C   UNL     1       7.304  -5.963  21.908  0.00  0.00    +0.004 C 
ATOM     22  C   UNL     1       5.825  -5.619  21.837  0.00  0.00    -0.003 C 
ENDBRANCH  20  22
ENDBRANCH  19  20
ENDBRANCH   1  19
TORSDOF 5
ENDMDL
MODEL 5
REMARK VINA RESULT:      -5.9      3.585      6.467
REMARK  Name = 
REMARK  6 active torsions:
REMARK  status: ('A' for Active; 'I' for Inactive)
REMARK    1  A    between atoms: C_1  and  C_2
REMARK    2  A    between atoms: C_2  and  C_3
REMARK    3  A    between atoms: C_3  and  C_4
REMARK    4  A    between atoms: C_4  and  C_5
REMARK    5  A    between atoms: C_6  and  C_14
REMARK    6  A    between atoms: C_17  and  O_18
REMARK                            x       y       z     vdW  Elec       q    Type
REMARK                         _______ _______ _______ _____ _____    ______ ____
ROOT
ATOM      1  C   UNL     1       6.833  -3.065  24.308  0.00  0.00    +0.005 A 
ATOM      2  C   UNL     1       6.053  -4.224  24.038  0.00  0.00    +0.111 A 
ATOM      3  C   UNL     1       5.853  -4.292  22.667  0.00  0.00    +0.157 A 
ATOM      4  N   UNL     1       5.132  -5.224  22.006  0.00  0.00    -0.234 NA
ATOM      5  C   UNL     1       4.614  -6.132  22.872  0.00  0.00    +0.133 A 
ATOM      6  C   UNL     1       4.803  -6.097  24.247  0.00  0.00    +0.131 A 
ATOM      7  N   UNL     1       6.512  -3.238  22.106  0.00  0.00    -0.338 N 
ATOM      8  H   UNL     1       6.521  -3.060  21.115  0.00  0.00    +0.167 HD
ATOM      9  N   UNL     1       5.521  -5.146  24.884  0.00  0.00    -0.250 NA
ATOM     10  C   UNL     1       7.144  -2.473  23.075  0.00  0.00    +0.053 A 
ENDROOT
BRANCH  10  11
ATOM     11  C   UNL     1       7.905  -1.255  22.741  0.00  0.00    -0.001 A 
ATOM     12  C   UNL     1       9.153  -1.324  22.103  0.00  0.00    +0.013 A 
ATOM     13  C   UNL     1       9.804  -0.161  21.674  0.00  0.00    +0.046 A 
ATOM     14  C   UNL     1       9.204   1.076  21.865  0.00  0.00    +0.117 A 
ATOM     15  C   UNL     1       7.997   1.179  22.538  0.00  0.00    +0.046 A 
ATOM     16  C   UNL     1       7.371   0.018  22.997  0.00  0.00    +0.013 A 
BRANCH  14  17
ATOM     17  O   UNL     1       9.829   2.177  21.361  0.00  0.00    -0.507 OA
ATOM     18  H   UNL     1      10.752   2.172  21.663  0.00  0.00    +0.292 HD
ENDBRANCH  14  17
ENDBRANCH  10  11
BRANCH   1  19
ATOM     19  C   UNL     1       7.176  -2.605  25.696  0.00  0.00    +0.039 C 
BRANCH  19  20
ATOM     20  C   UNL     1       8.644  -2.852  26.055  0.00  0.00    +0.004 C 
BRANCH  20  22
ATOM     21  C   UNL     1       9.623  -5.074  25.433  0.00  0.00    +0.004 C 
ATOM     22  C   UNL     1       8.878  -4.291  26.502  0.00  0.00    -0.003 C 
ENDBRANCH  20  22
ENDBRANCH  19  20
ENDBRANCH   1  19
TORSDOF 5
ENDMDL
MODEL 6
REMARK VINA RESULT:      -5.8      1.662      3.351
REMARK  Name = 
REMARK  6 active torsions:
REMARK  status: ('A' for Active; 'I' for Inactive)
REMARK    1  A    between atoms: C_1  and  C_2
REMARK    2  A    between atoms: C_2  and  C_3
REMARK    3  A    between atoms: C_3  and  C_4
REMARK    4  A    between atoms: C_4  and  C_5
REMARK    5  A    between atoms: C_6  and  C_14
REMARK    6  A    between atoms: C_17  and  O_18
REMARK                            x       y       z     vdW  Elec       q    Type
REMARK                         _______ _______ _______ _____ _____    ______ ____
ROOT
ATOM      1  C   UNL     1       8.042  -1.169  24.409  0.00  0.00    +0.005 A 
ATOM      2  C   UNL     1       8.820  -0.050  24.001  0.00  0.00    +0.111 A 
ATOM      3  C   UNL     1       8.961  -0.112  22.622  0.00  0.00    +0.157 A 
ATOM      4  N   UNL     1       9.661   0.747  21.848  0.00  0.00    -0.234 NA
ATOM      5  C   UNL     1      10.224   1.724  22.602  0.00  0.00    +0.133 A 
ATOM      6  C   UNL     1      10.094   1.819  23.982  0.00  0.00    +0.131 A 
ATOM      7  N   UNL     1       8.270  -1.205  22.190  0.00  0.00    -0.338 N 
ATOM      8  H   UNL     1       8.216  -1.473  21.220  0.00  0.00    +0.167 HD
ATOM      9  N   UNL     1       9.396   0.940  24.734  0.00  0.00    -0.250 NA
ATOM     10  C   UNL     1       7.673  -1.869  23.250  0.00  0.00    +0.053 A 
ENDROOT
BRANCH  10  11
ATOM     11  C   UNL     1       6.888  -3.103  23.064  0.00  0.00    -0.001 A 
ATOM     12  C   UNL     1       7.502  -4.314  22.709  0.00  0.00    +0.013 A 
ATOM     13  C   UNL     1       6.767  -5.504  22.663  0.00  0.00    +0.046 A 
ATOM     14  C   UNL     1       5.417  -5.495  22.987  0.00  0.00    +0.117 A 
ATOM     15  C   UNL     1       4.772  -4.306  23.290  0.00  0.00    +0.046 A 
ATOM     16  C   UNL     1       5.504  -3.116  23.297  0.00  0.00    +0.013 A 
BRANCH  14  17
ATOM     17  O   UNL     1       4.755  -6.685  23.011  0.00  0.00    -0.507 OA
ATOM     18  H   UNL     1       4.423  -6.835  23.911  0.00  0.00    +0.292 HD
ENDBRANCH  14  17
ENDBRANCH  10  11
BRANCH   1  19
ATOM     19  C   UNL     1       7.756  -1.495  25.847  0.00  0.00    +0.039 C 
BRANCH  19  20
ATOM     20  C   UNL     1       8.378  -2.822  26.289  0.00  0.00    +0.004 C 
BRANCH  20  22
ATOM     21  C   UNL     1       7.758  -5.251  26.309  0.00  0.00    +0.004 C 
ATOM     22  C   UNL     1       7.313  -3.843  26.671  0.00  0.00    -0.003 C 
ENDBRANCH  20  22
ENDBRANCH  19  20
ENDBRANCH   1  19
TORSDOF 5
ENDMDL
MODEL 7
REMARK VINA RESULT:      -5.8      3.402      6.231
REMARK  Name = 
REMARK  6 active torsions:
REMARK  status: ('A' for Active; 'I' for Inactive)
REMARK    1  A    between atoms: C_1  and  C_2
REMARK    2  A    between atoms: C_2  and  C_3
REMARK    3  A    between atoms: C_3  and  C_4
REMARK    4  A    between atoms: C_4  and  C_5
REMARK    5  A    between atoms: C_6  and  C_14
REMARK    6  A    between atoms: C_17  and  O_18
REMARK                            x       y       z     vdW  Elec       q    Type
REMARK                         _______ _______ _______ _____ _____    ______ ____
ROOT
ATOM      1  C   UNL     1       7.785  -1.789  23.874  0.00  0.00    +0.005 A 
ATOM      2  C   UNL     1       7.790  -3.165  24.235  0.00  0.00    +0.111 A 
ATOM      3  C   UNL     1       9.112  -3.565  24.361  0.00  0.00    +0.157 A 
ATOM      4  N   UNL     1       9.548  -4.810  24.657  0.00  0.00    -0.234 NA
ATOM      5  C   UNL     1       8.502  -5.655  24.838  0.00  0.00    +0.133 A 
ATOM      6  C   UNL     1       7.169  -5.283  24.729  0.00  0.00    +0.131 A 
ATOM      7  N   UNL     1       9.894  -2.475  24.121  0.00  0.00    -0.338 N 
ATOM      8  H   UNL     1      10.900  -2.503  24.150  0.00  0.00    +0.167 HD
ATOM      9  N   UNL     1       6.759  -4.033  24.421  0.00  0.00    -0.250 NA
ATOM     10  C   UNL     1       9.120  -1.359  23.840  0.00  0.00    +0.053 A 
ENDROOT
BRANCH  10  11
ATOM     11  C   UNL     1       9.716  -0.050  23.515  0.00  0.00    -0.001 A 
ATOM     12  C   UNL     1       9.567   0.525  22.244  0.00  0.00    +0.013 A 
ATOM     13  C   UNL     1      10.024   1.823  21.987  0.00  0.00    +0.046 A 
ATOM     14  C   UNL     1      10.617   2.560  23.003  0.00  0.00    +0.117 A 
ATOM     15  C   UNL     1      10.825   1.999  24.253  0.00  0.00    +0.046 A 
ATOM     16  C   UNL     1      10.401   0.690  24.492  0.00  0.00    +0.013 A 
BRANCH  14  17
ATOM     17  O   UNL     1      10.975   3.848  22.737  0.00  0.00    -0.507 OA
ATOM     18  H   UNL     1      10.414   4.181  22.018  0.00  0.00    +0.292 HD
ENDBRANCH  14  17
ENDBRANCH  10  11
BRANCH   1  19
ATOM     19  C   UNL     1       6.532  -1.023  23.557  0.00  0.00    +0.039 C 
BRANCH  19  20
ATOM     20  C   UNL     1       6.197   0.030  24.617  0.00  0.00    +0.004 C 
BRANCH  20  22
ATOM     21  C   UNL     1       7.136   2.312  25.056  0.00  0.00    +0.004 C 
ATOM     22  C   UNL     1       6.364   1.445  24.075  0.00  0.00    -0.003 C 
ENDBRANCH  20  22
ENDBRANCH  19  20
ENDBRANCH   1  19
TORSDOF 5
ENDMDL
MODEL 8
REMARK VINA RESULT:      -5.8      3.668      6.614
REMARK  Name = 
REMARK  6 active torsions:
REMARK  status: ('A' for Active; 'I' for Inactive)
REMARK    1  A    between atoms: C_1  and  C_2
REMARK    2  A    between atoms: C_2  and  C_3
REMARK    3  A    between atoms: C_3  and  C_4
REMARK    4  A    between atoms: C_4  and  C_5
REMARK    5  A    between atoms: C_6  and  C_14
REMARK    6  A    between atoms: C_17  and  O_18
REMARK                            x       y       z     vdW  Elec       q    Type
REMARK                         _______ _______ _______ _____ _____    ______ ____
ROOT
ATOM      1  C   UNL     1       7.772  -2.322  23.639  0.00  0.00    +0.005 A 
ATOM      2  C   UNL     1       7.010  -3.510  23.458  0.00  0.00    +0.111 A 
ATOM      3  C   UNL     1       5.900  -3.190  22.691  0.00  0.00    +0.157 A 
ATOM      4  N   UNL     1       4.907  -4.031  22.325  0.00  0.00    -0.234 NA
ATOM      5  C   UNL     1       5.137  -5.280  22.803  0.00  0.00    +0.133 A 
ATOM      6  C   UNL     1       6.242  -5.635  23.564  0.00  0.00    +0.131 A 
ATOM      7  N   UNL     1       5.987  -1.865  22.380  0.00  0.00    -0.338 N 
ATOM      8  H   UNL     1       5.296  -1.384  21.826  0.00  0.00    +0.167 HD
ATOM      9  N   UNL     1       7.216  -4.770  23.926  0.00  0.00    -0.250 NA
ATOM     10  C   UNL     1       7.131  -1.300  22.923  0.00  0.00    +0.053 A 
ENDROOT
BRANCH  10  11
ATOM     11  C   UNL     1       7.453   0.130  22.762  0.00  0.00    -0.001 A 
ATOM     12  C   UNL     1       6.774   1.119  23.489  0.00  0.00    +0.013 A 
ATOM     13  C   UNL     1       7.177   2.459  23.426  0.00  0.00    +0.046 A 
ATOM     14  C   UNL     1       8.271   2.815  22.650  0.00  0.00    +0.117 A 
ATOM     15  C   UNL     1       8.929   1.868  21.880  0.00  0.00    +0.046 A 
ATOM     16  C   UNL     1       8.498   0.540  21.918  0.00  0.00    +0.013 A 
BRANCH  14  17
ATOM     17  O   UNL     1       8.683   4.113  22.678  0.00  0.00    -0.507 OA
ATOM     18  H   UNL     1       7.923   4.672  22.906  0.00  0.00    +0.292 HD
ENDBRANCH  14  17
ENDBRANCH  10  11
BRANCH   1  19
ATOM     19  C   UNL     1       9.002  -2.253  24.498  0.00  0.00    +0.039 C 
BRANCH  19  20
ATOM     20  C   UNL     1       8.722  -1.672  25.887  0.00  0.00    +0.004 C 
BRANCH  20  22
ATOM     21  C   UNL     1      10.325   0.040  25.002  0.00  0.00    +0.004 C 
ATOM     22  C   UNL     1       9.215  -0.234  26.004  0.00  0.00    -0.003 C 
ENDBRANCH  20  22
ENDBRANCH  19  20
ENDBRANCH   1  19
TORSDOF 5
ENDMDL
MODEL 9
REMARK VINA RESULT:      -5.5      2.387      3.744
REMARK  Name = 
REMARK  6 active torsions:
REMARK  status: ('A' for Active; 'I' for Inactive)
REMARK    1  A    between atoms: C_1  and  C_2
REMARK    2  A    between atoms: C_2  and  C_3
REMARK    3  A    between atoms: C_3  and  C_4
REMARK    4  A    between atoms: C_4  and  C_5
REMARK    5  A    between atoms: C_6  and  C_14
REMARK    6  A    between atoms: C_17  and  O_18
REMARK                            x       y       z     vdW  Elec       q    Type
REMARK                         _______ _______ _______ _____ _____    ______ ____
ROOT
ATOM      1  C   UNL     1       9.457   1.838  24.079  0.00  0.00    +0.005 A 
ATOM      2  C   UNL     1       9.446   3.247  24.277  0.00  0.00    +0.111 A 
ATOM      3  C   UNL     1       8.477   3.534  25.227  0.00  0.00    +0.157 A 
ATOM      4  N   UNL     1       8.127   4.762  25.671  0.00  0.00    -0.234 NA
ATOM      5  C   UNL     1       8.872   5.722  25.066  0.00  0.00    +0.133 A 
ATOM      6  C   UNL     1       9.856   5.466  24.120  0.00  0.00    +0.131 A 
ATOM      7  N   UNL     1       7.933   2.350  25.626  0.00  0.00    -0.338 N 
ATOM      8  H   UNL     1       7.199   2.286  26.314  0.00  0.00    +0.167 HD
ATOM      9  N   UNL     1      10.179   4.228  23.685  0.00  0.00    -0.250 NA
ATOM     10  C   UNL     1       8.520   1.283  24.963  0.00  0.00    +0.053 A 
ENDROOT
BRANCH  10  11
ATOM     11  C   UNL     1       8.096  -0.111  25.186  0.00  0.00    -0.001 A 
ATOM     12  C   UNL     1       7.046  -0.683  24.451  0.00  0.00    +0.013 A 
ATOM     13  C   UNL     1       6.739  -2.043  24.579  0.00  0.00    +0.046 A 
ATOM     14  C   UNL     1       7.490  -2.844  25.428  0.00  0.00    +0.117 A 
ATOM     15  C   UNL     1       8.499  -2.296  26.206  0.00  0.00    +0.046 A 
ATOM     16  C   UNL     1       8.775  -0.931  26.102  0.00  0.00    +0.013 A 
BRANCH  14  17
ATOM     17  O   UNL     1       7.215  -4.177  25.464  0.00  0.00    -0.507 OA
ATOM     18  H   UNL     1       8.040  -4.666  25.315  0.00  0.00    +0.292 HD
ENDBRANCH  14  17
ENDBRANCH  10  11
BRANCH   1  19
ATOM     19  C   UNL     1      10.315   1.156  23.051  0.00  0.00    +0.039 C 
BRANCH  19  20
ATOM     20  C   UNL     1       9.565   0.877  21.746  0.00  0.00    +0.004 C 
BRANCH  20  22
ATOM     21  C   UNL     1      10.237  -1.429  22.461  0.00  0.00    +0.004 C 
ATOM     22  C   UNL     1       9.354  -0.617  21.528  0.00  0.00    -0.003 C 
ENDBRANCH  20  22
ENDBRANCH  19  20
ENDBRANCH   1  19
TORSDOF 5
ENDMDL
