MODEL 1
REMARK VINA RESULT:      -5.6      0.000      0.000
REMARK  Name = 
REMARK  14 active torsions:
REMARK  status: ('A' for Active; 'I' for Inactive)
REMARK    1  A    between atoms: C_1  and  C_2
REMARK    2  A    between atoms: C_2  and  C_3
REMARK    3  A    between atoms: C_2  and  N_4
REMARK    4  A    between atoms: N_4  and  C_5
REMARK    5  A    between atoms: C_5  and  C_6
REMARK    6  A    between atoms: C_6  and  O_8
REMARK    7  A    between atoms: C_6  and  C_9
REMARK    8  A    between atoms: C_9  and  O_10
REMARK    9  A    between atoms: O_10  and  C_11
REMARK   10  A    between atoms: C_14  and  C_15
REMARK   11  A    between atoms: C_15  and  C_16
REMARK   12  A    between atoms: C_16  and  O_17
REMARK   13  A    between atoms: O_17  and  C_18
REMARK   14  A    between atoms: C_18  and  C_19
REMARK                            x       y       z     vdW  Elec       q    Type
REMARK                         _______ _______ _______ _____ _____    ______ ____
ROOT
ATOM      1  C   UNL     1       9.968  -2.027  23.577  0.00  0.00    +0.121 A 
ATOM      2  C   UNL     1       9.603  -1.847  22.242  0.00  0.00    +0.046 A 
ATOM      3  C   UNL     1       9.431  -0.560  21.720  0.00  0.00    +0.007 A 
ATOM      4  C   UNL     1       9.627   0.567  22.528  0.00  0.00    -0.045 A 
ATOM      5  C   UNL     1      10.009   0.377  23.861  0.00  0.00    +0.007 A 
ATOM      6  C   UNL     1      10.193  -0.904  24.375  0.00  0.00    +0.046 A 
ENDROOT
BRANCH   1   7
ATOM      7  O   UNL     1      10.069  -3.327  24.002  0.00  0.00    -0.489 OA
BRANCH   7   8
ATOM      8  C   UNL     1       8.811  -3.952  24.302  0.00  0.00    +0.261 C 
BRANCH   8   9
ATOM      9  C   UNL     1       9.040  -5.113  25.271  0.00  0.00    +0.166 C 
BRANCH   9  10
ATOM     10  O   UNL     1      10.438  -5.432  25.315  0.00  0.00    -0.387 OA
ATOM     11  H   UNL     1      10.504  -6.241  25.858  0.00  0.00    +0.210 HD
ENDBRANCH   9  10
BRANCH   9  12
ATOM     12  C   UNL     1       8.566  -4.736  26.688  0.00  0.00    +0.115 C 
BRANCH  12  13
ATOM     13  N   UNL     1       7.742  -5.743  27.378  0.00  0.00    -0.311 NA
ATOM     14  H   UNL     1       7.685  -6.575  26.789  0.00  0.00    +0.122 HD
BRANCH  13  16
ATOM     15  C   UNL     1       6.087  -3.883  27.215  0.00  0.00    +0.023 C 
ATOM     16  C   UNL     1       6.387  -5.293  27.722  0.00  0.00    +0.048 C 
ATOM     17  C   UNL     1       5.384  -6.286  27.127  0.00  0.00    +0.023 C 
ENDBRANCH  13  16
ENDBRANCH  12  13
ENDBRANCH   9  12
ENDBRANCH   8   9
ENDBRANCH   7   8
ENDBRANCH   1   7
BRANCH   4  18
ATOM     18  C   UNL     1       9.401   1.961  21.995  0.00  0.00    +0.063 C 
BRANCH  18  19
ATOM     19  C   UNL     1       8.413   2.762  22.843  0.00  0.00    +0.164 C 
BRANCH  19  20
ATOM     20  O   UNL     1       7.165   2.074  22.909  0.00  0.00    -0.379 OA
BRANCH  20  21
ATOM     21  C   UNL     1       6.641   2.115  24.237  0.00  0.00    +0.163 C 
BRANCH  21  22
ATOM     22  C   UNL     1       5.929   0.833  24.520  0.00  0.00    +0.015 C 
ATOM     23  C   UNL     1       6.562  -0.233  25.379  0.00  0.00    +0.006 C 
ATOM     24  C   UNL     1       6.429  -0.446  23.899  0.00  0.00    +0.006 C 
ENDBRANCH  21  22
ENDBRANCH  20  21
ENDBRANCH  19  20
ENDBRANCH  18  19
ENDBRANCH   4  18
TORSDOF 12
ENDMDL
MODEL 2
REMARK VINA RESULT:      -5.5      3.194      6.940
REMARK  Name = 
REMARK  14 active torsions:
REMARK  status: ('A' for Active; 'I' for Inactive)
REMARK    1  A    between atoms: C_1  and  C_2
REMARK    2  A    between atoms: C_2  and  C_3
REMARK    3  A    between atoms: C_2  and  N_4
REMARK    4  A    between atoms: N_4  and  C_5
REMARK    5  A    between atoms: C_5  and  C_6
REMARK    6  A    between atoms: C_6  and  O_8
REMARK    7  A    between atoms: C_6  and  C_9
REMARK    8  A    between atoms: C_9  and  O_10
REMARK    9  A    between atoms: O_10  and  C_11
REMARK   10  A    between atoms: C_14  and  C_15
REMARK   11  A    between atoms: C_15  and  C_16
REMARK   12  A    between atoms: C_16  and  O_17
REMARK   13  A    between atoms: O_17  and  C_18
REMARK   14  A    between atoms: C_18  and  C_19
REMARK                            x       y       z     vdW  Elec       q    Type
REMARK                         _______ _______ _______ _____ _____    ______ ____
ROOT
ATOM      1  C   UNL     1       9.072  -3.147  24.368  0.00  0.00    +0.121 A 
ATOM      2  C   UNL     1       9.381  -4.413  24.865  0.00  0.00    +0.046 A 
ATOM      3  C   UNL     1       8.389  -5.205  25.456  0.00  0.00    +0.007 A 
ATOM      4  C   UNL     1       7.072  -4.739  25.553  0.00  0.00    -0.045 A 
ATOM      5  C   UNL     1       6.769  -3.475  25.037  0.00  0.00    +0.007 A 
ATOM      6  C   UNL     1       7.754  -2.694  24.436  0.00  0.00    +0.046 A 
ENDROOT
BRANCH   1   7
ATOM      7  O   UNL     1      10.122  -2.434  23.847  0.00  0.00    -0.489 OA
BRANCH   7   8
ATOM      8  C   UNL     1       9.871  -1.028  23.703  0.00  0.00    +0.261 C 
BRANCH   8   9
ATOM      9  C   UNL     1      10.246  -0.588  22.287  0.00  0.00    +0.166 C 
BRANCH   9  10
ATOM     10  O   UNL     1       9.453  -1.311  21.335  0.00  0.00    -0.387 OA
ATOM     11  H   UNL     1      10.050  -1.496  20.585  0.00  0.00    +0.210 HD
ENDBRANCH   9  10
BRANCH   9  12
ATOM     12  C   UNL     1       9.996   0.922  22.105  0.00  0.00    +0.115 C 
BRANCH  12  13
ATOM     13  N   UNL     1       8.904   1.286  21.188  0.00  0.00    -0.311 NA
ATOM     14  H   UNL     1       9.295   1.831  20.417  0.00  0.00    +0.122 HD
BRANCH  13  16
ATOM     15  C   UNL     1       6.844   1.137  22.587  0.00  0.00    +0.023 C 
ATOM     16  C   UNL     1       7.806   2.036  21.810  0.00  0.00    +0.048 C 
ATOM     17  C   UNL     1       8.408   3.088  22.746  0.00  0.00    +0.023 C 
ENDBRANCH  13  16
ENDBRANCH  12  13
ENDBRANCH   9  12
ENDBRANCH   8   9
ENDBRANCH   7   8
ENDBRANCH   1   7
BRANCH   4  18
ATOM     18  C   UNL     1       6.000  -5.559  26.229  0.00  0.00    +0.063 C 
BRANCH  18  19
ATOM     19  C   UNL     1       4.806  -5.833  25.315  0.00  0.00    +0.164 C 
BRANCH  19  20
ATOM     20  O   UNL     1       5.250  -6.476  24.120  0.00  0.00    -0.379 OA
BRANCH  20  21
ATOM     21  C   UNL     1       4.689  -5.839  22.972  0.00  0.00    +0.163 C 
BRANCH  21  22
ATOM     22  C   UNL     1       5.787  -5.212  22.177  0.00  0.00    +0.015 C 
ATOM     23  C   UNL     1       6.212  -5.789  20.851  0.00  0.00    +0.006 C 
ATOM     24  C   UNL     1       7.108  -5.924  22.047  0.00  0.00    +0.006 C 
ENDBRANCH  21  22
ENDBRANCH  20  21
ENDBRANCH  19  20
ENDBRANCH  18  19
ENDBRANCH   4  18
TORSDOF 12
ENDMDL
MODEL 3
REMARK VINA RESULT:      -5.5      3.136      7.239
REMARK  Name = 
REMARK  14 active torsions:
REMARK  status: ('A' for Active; 'I' for Inactive)
REMARK    1  A    between atoms: C_1  and  C_2
REMARK    2  A    between atoms: C_2  and  C_3
REMARK    3  A    between atoms: C_2  and  N_4
REMARK    4  A    between atoms: N_4  and  C_5
REMARK    5  A    between atoms: C_5  and  C_6
REMARK    6  A    between atoms: C_6  and  O_8
REMARK    7  A    between atoms: C_6  and  C_9
REMARK    8  A    between atoms: C_9  and  O_10
REMARK    9  A    between atoms: O_10  and  C_11
REMARK   10  A    between atoms: C_14  and  C_15
REMARK   11  A    between atoms: C_15  and  C_16
REMARK   12  A    between atoms: C_16  and  O_17
REMARK   13  A    between atoms: O_17  and  C_18
REMARK   14  A    between atoms: C_18  and  C_19
REMARK                            x       y       z     vdW  Elec       q    Type
REMARK                         _______ _______ _______ _____ _____    ______ ____
ROOT
ATOM      1  C   UNL     1       7.045  -3.330  22.537  0.00  0.00    +0.121 A 
ATOM      2  C   UNL     1       7.266  -4.671  22.218  0.00  0.00    +0.046 A 
ATOM      3  C   UNL     1       6.461  -5.674  22.769  0.00  0.00    +0.007 A 
ATOM      4  C   UNL     1       5.419  -5.348  23.647  0.00  0.00    -0.045 A 
ATOM      5  C   UNL     1       5.195  -4.000  23.949  0.00  0.00    +0.007 A 
ATOM      6  C   UNL     1       5.988  -3.001  23.388  0.00  0.00    +0.046 A 
ENDROOT
BRANCH   1   7
ATOM      7  O   UNL     1       7.915  -2.429  21.979  0.00  0.00    -0.489 OA
BRANCH   7   8
ATOM      8  C   UNL     1       8.227  -1.307  22.820  0.00  0.00    +0.261 C 
BRANCH   8   9
ATOM      9  C   UNL     1       9.486  -0.615  22.294  0.00  0.00    +0.166 C 
BRANCH   9  10
ATOM     10  O   UNL     1      10.308  -1.570  21.608  0.00  0.00    -0.387 OA
ATOM     11  H   UNL     1       9.694  -2.257  21.285  0.00  0.00    +0.210 HD
ENDBRANCH   9  10
BRANCH   9  12
ATOM     12  C   UNL     1       9.113   0.519  21.319  0.00  0.00    +0.115 C 
BRANCH  12  13
ATOM     13  N   UNL     1       9.759   1.818  21.568  0.00  0.00    -0.311 NA
ATOM     14  H   UNL     1      10.753   1.735  21.344  0.00  0.00    +0.122 HD
BRANCH  13  16
ATOM     15  C   UNL     1      10.831   3.107  23.416  0.00  0.00    +0.023 C 
ATOM     16  C   UNL     1       9.609   2.324  22.939  0.00  0.00    +0.048 C 
ATOM     17  C   UNL     1       8.365   3.216  22.990  0.00  0.00    +0.023 C 
ENDBRANCH  13  16
ENDBRANCH  12  13
ENDBRANCH   9  12
ENDBRANCH   8   9
ENDBRANCH   7   8
ENDBRANCH   1   7
BRANCH   4  18
ATOM     18  C   UNL     1       4.571  -6.418  24.288  0.00  0.00    +0.063 C 
BRANCH  18  19
ATOM     19  C   UNL     1       4.626  -6.378  25.815  0.00  0.00    +0.164 C 
BRANCH  19  20
ATOM     20  O   UNL     1       5.982  -6.472  26.251  0.00  0.00    -0.379 OA
BRANCH  20  21
ATOM     21  C   UNL     1       6.277  -5.439  27.192  0.00  0.00    +0.163 C 
BRANCH  21  22
ATOM     22  C   UNL     1       7.726  -5.091  27.095  0.00  0.00    +0.015 C 
ATOM     23  C   UNL     1       8.189  -3.919  26.266  0.00  0.00    +0.006 C 
ATOM     24  C   UNL     1       8.458  -5.319  25.798  0.00  0.00    +0.006 C 
ENDBRANCH  21  22
ENDBRANCH  20  21
ENDBRANCH  19  20
ENDBRANCH  18  19
ENDBRANCH   4  18
TORSDOF 12
ENDMDL
MODEL 4
REMARK VINA RESULT:      -5.5      1.778      2.434
REMARK  Name = 
REMARK  14 active torsions:
REMARK  status: ('A' for Active; 'I' for Inactive)
REMARK    1  A    between atoms: C_1  and  C_2
REMARK    2  A    between atoms: C_2  and  C_3
REMARK    3  A    between atoms: C_2  and  N_4
REMARK    4  A    between atoms: N_4  and  C_5
REMARK    5  A    between atoms: C_5  and  C_6
REMARK    6  A    between atoms: C_6  and  O_8
REMARK    7  A    between atoms: C_6  and  C_9
REMARK    8  A    between atoms: C_9  and  O_10
REMARK    9  A    between atoms: O_10  and  C_11
REMARK   10  A    between atoms: C_14  and  C_15
REMARK   11  A    between atoms: C_15  and  C_16
REMARK   12  A    between atoms: C_16  and  O_17
REMARK   13  A    between atoms: O_17  and  C_18
REMARK   14  A    between atoms: C_18  and  C_19
REMARK                            x       y       z     vdW  Elec       q    Type
REMARK                         _______ _______ _______ _____ _____    ______ ____
ROOT
ATOM      1  C   UNL     1       9.603  -2.083  23.411  0.00  0.00    +0.121 A 
ATOM      2  C   UNL     1       9.394  -1.724  22.079  0.00  0.00    +0.046 A 
ATOM      3  C   UNL     1       9.595  -0.404  21.660  0.00  0.00    +0.007 A 
ATOM      4  C   UNL     1      10.014   0.575  22.570  0.00  0.00    -0.045 A 
ATOM      5  C   UNL     1      10.237   0.201  23.900  0.00  0.00    +0.007 A 
ATOM      6  C   UNL     1      10.050  -1.116  24.312  0.00  0.00    +0.046 A 
ENDROOT
BRANCH   1   7
ATOM      7  O   UNL     1       9.337  -3.391  23.728  0.00  0.00    -0.489 OA
BRANCH   7   8
ATOM      8  C   UNL     1       9.068  -3.620  25.121  0.00  0.00    +0.261 C 
BRANCH   8   9
ATOM      9  C   UNL     1       8.601  -5.063  25.316  0.00  0.00    +0.166 C 
BRANCH   9  10
ATOM     10  O   UNL     1       8.666  -5.404  26.708  0.00  0.00    -0.387 OA
ATOM     11  H   UNL     1       8.251  -4.656  27.179  0.00  0.00    +0.210 HD
ENDBRANCH   9  10
BRANCH   9  12
ATOM     12  C   UNL     1       7.150  -5.233  24.825  0.00  0.00    +0.115 C 
BRANCH  12  13
ATOM     13  N   UNL     1       6.536  -4.043  24.214  0.00  0.00    -0.311 NA
ATOM     14  H   UNL     1       5.814  -3.689  24.844  0.00  0.00    +0.122 HD
BRANCH  13  16
ATOM     15  C   UNL     1       5.782  -2.973  22.090  0.00  0.00    +0.023 C 
ATOM     16  C   UNL     1       5.956  -4.268  22.883  0.00  0.00    +0.048 C 
ATOM     17  C   UNL     1       6.866  -5.231  22.116  0.00  0.00    +0.023 C 
ENDBRANCH  13  16
ENDBRANCH  12  13
ENDBRANCH   9  12
ENDBRANCH   8   9
ENDBRANCH   7   8
ENDBRANCH   1   7
BRANCH   4  18
ATOM     18  C   UNL     1      10.191   2.013  22.147  0.00  0.00    +0.063 C 
BRANCH  18  19
ATOM     19  C   UNL     1       9.962   2.996  23.295  0.00  0.00    +0.164 C 
BRANCH  19  20
ATOM     20  O   UNL     1       8.610   3.454  23.276  0.00  0.00    -0.379 OA
BRANCH  20  21
ATOM     21  C   UNL     1       7.908   2.984  24.427  0.00  0.00    +0.163 C 
BRANCH  21  22
ATOM     22  C   UNL     1       6.634   2.339  23.990  0.00  0.00    +0.015 C 
ATOM     23  C   UNL     1       6.528   0.841  23.855  0.00  0.00    +0.006 C 
ATOM     24  C   UNL     1       6.553   1.703  22.627  0.00  0.00    +0.006 C 
ENDBRANCH  21  22
ENDBRANCH  20  21
ENDBRANCH  19  20
ENDBRANCH  18  19
ENDBRANCH   4  18
TORSDOF 12
ENDMDL
MODEL 5
REMARK VINA RESULT:      -5.5      3.480      7.430
REMARK  Name = 
REMARK  14 active torsions:
REMARK  status: ('A' for Active; 'I' for Inactive)
REMARK    1  A    between atoms: C_1  and  C_2
REMARK    2  A    between atoms: C_2  and  C_3
REMARK    3  A    between atoms: C_2  and  N_4
REMARK    4  A    between atoms: N_4  and  C_5
REMARK    5  A    between atoms: C_5  and  C_6
REMARK    6  A    between atoms: C_6  and  O_8
REMARK    7  A    between atoms: C_6  and  C_9
REMARK    8  A    between atoms: C_9  and  O_10
REMARK    9  A    between atoms: O_10  and  C_11
REMARK   10  A    between atoms: C_14  and  C_15
REMARK   11  A    between atoms: C_15  and  C_16
REMARK   12  A    between atoms: C_16  and  O_17
REMARK   13  A    between atoms: O_17  and  C_18
REMARK   14  A    between atoms: C_18  and  C_19
REMARK                            x       y       z     vdW  Elec       q    Type
REMARK                         _______ _______ _______ _____ _____    ______ ____
ROOT
ATOM      1  C   UNL     1      10.265   2.117  23.131  0.00  0.00    +0.121 A 
ATOM      2  C   UNL     1      10.465   1.296  24.241  0.00  0.00    +0.046 A 
ATOM      3  C   UNL     1      10.292  -0.089  24.141  0.00  0.00    +0.007 A 
ATOM      4  C   UNL     1       9.919  -0.672  22.923  0.00  0.00    -0.045 A 
ATOM      5  C   UNL     1       9.737   0.157  21.811  0.00  0.00    +0.007 A 
ATOM      6  C   UNL     1       9.924   1.534  21.909  0.00  0.00    +0.046 A 
ENDROOT
BRANCH   1   7
ATOM      7  O   UNL     1      10.418   3.463  23.344  0.00  0.00    -0.489 OA
BRANCH   7   8
ATOM      8  C   UNL     1       9.446   4.038  24.231  0.00  0.00    +0.261 C 
BRANCH   8   9
ATOM      9  C   UNL     1       9.128   5.465  23.780  0.00  0.00    +0.166 C 
BRANCH   9  10
ATOM     10  O   UNL     1      10.226   5.980  23.012  0.00  0.00    -0.387 OA
ATOM     11  H   UNL     1       9.862   6.155  22.123  0.00  0.00    +0.210 HD
ENDBRANCH   9  10
BRANCH   9  12
ATOM     12  C   UNL     1       7.855   5.487  22.913  0.00  0.00    +0.115 C 
BRANCH  12  13
ATOM     13  N   UNL     1       7.624   4.295  22.081  0.00  0.00    -0.311 NA
ATOM     14  H   UNL     1       7.697   4.565  21.098  0.00  0.00    +0.122 HD
BRANCH  13  16
ATOM     15  C   UNL     1       6.495   2.184  22.783  0.00  0.00    +0.023 C 
ATOM     16  C   UNL     1       6.335   3.628  22.310  0.00  0.00    +0.048 C 
ATOM     17  C   UNL     1       5.552   4.435  23.349  0.00  0.00    +0.023 C 
ENDBRANCH  13  16
ENDBRANCH  12  13
ENDBRANCH   9  12
ENDBRANCH   8   9
ENDBRANCH   7   8
ENDBRANCH   1   7
BRANCH   4  18
ATOM     18  C   UNL     1       9.682  -2.158  22.807  0.00  0.00    +0.063 C 
BRANCH  18  19
ATOM     19  C   UNL     1       9.502  -2.833  24.167  0.00  0.00    +0.164 C 
BRANCH  19  20
ATOM     20  O   UNL     1       8.902  -4.116  23.992  0.00  0.00    -0.379 OA
BRANCH  20  21
ATOM     21  C   UNL     1       7.772  -4.025  23.123  0.00  0.00    +0.163 C 
BRANCH  21  22
ATOM     22  C   UNL     1       7.401  -5.396  22.661  0.00  0.00    +0.015 C 
ATOM     23  C   UNL     1       6.463  -5.596  21.498  0.00  0.00    +0.006 C 
ATOM     24  C   UNL     1       6.002  -5.903  22.892  0.00  0.00    +0.006 C 
ENDBRANCH  21  22
ENDBRANCH  20  21
ENDBRANCH  19  20
ENDBRANCH  18  19
ENDBRANCH   4  18
TORSDOF 12
ENDMDL
MODEL 6
REMARK VINA RESULT:      -5.4      2.631      4.082
REMARK  Name = 
REMARK  14 active torsions:
REMARK  status: ('A' for Active; 'I' for Inactive)
REMARK    1  A    between atoms: C_1  and  C_2
REMARK    2  A    between atoms: C_2  and  C_3
REMARK    3  A    between atoms: C_2  and  N_4
REMARK    4  A    between atoms: N_4  and  C_5
REMARK    5  A    between atoms: C_5  and  C_6
REMARK    6  A    between atoms: C_6  and  O_8
REMARK    7  A    between atoms: C_6  and  C_9
REMARK    8  A    between atoms: C_9  and  O_10
REMARK    9  A    between atoms: O_10  and  C_11
REMARK   10  A    between atoms: C_14  and  C_15
REMARK   11  A    between atoms: C_15  and  C_16
REMARK   12  A    between atoms: C_16  and  O_17
REMARK   13  A    between atoms: O_17  and  C_18
REMARK   14  A    between atoms: C_18  and  C_19
REMARK                            x       y       z     vdW  Elec       q    Type
REMARK                         _______ _______ _______ _____ _____    ______ ____
ROOT
ATOM      1  C   UNL     1       9.348  -2.288  23.246  0.00  0.00    +0.121 A 
ATOM      2  C   UNL     1       9.752  -1.367  24.213  0.00  0.00    +0.046 A 
ATOM      3  C   UNL     1       9.988  -0.032  23.867  0.00  0.00    +0.007 A 
ATOM      4  C   UNL     1       9.819   0.401  22.545  0.00  0.00    -0.045 A 
ATOM      5  C   UNL     1       9.398  -0.526  21.586  0.00  0.00    +0.007 A 
ATOM      6  C   UNL     1       9.149  -1.852  21.935  0.00  0.00    +0.046 A 
ENDROOT
BRANCH   1   7
ATOM      7  O   UNL     1       9.185  -3.580  23.677  0.00  0.00    -0.489 OA
BRANCH   7   8
ATOM      8  C   UNL     1       8.988  -3.711  25.094  0.00  0.00    +0.261 C 
BRANCH   8   9
ATOM      9  C   UNL     1       8.455  -5.111  25.404  0.00  0.00    +0.166 C 
BRANCH   9  10
ATOM     10  O   UNL     1       8.646  -5.399  26.796  0.00  0.00    -0.387 OA
ATOM     11  H   UNL     1       8.849  -4.541  27.214  0.00  0.00    +0.210 HD
ENDBRANCH   9  10
BRANCH   9  12
ATOM     12  C   UNL     1       6.953  -5.204  25.073  0.00  0.00    +0.115 C 
BRANCH  12  13
ATOM     13  N   UNL     1       6.371  -4.033  24.398  0.00  0.00    -0.311 NA
ATOM     14  H   UNL     1       5.772  -3.539  25.062  0.00  0.00    +0.122 HD
BRANCH  13  16
ATOM     15  C   UNL     1       5.695  -3.240  22.131  0.00  0.00    +0.023 C 
ATOM     16  C   UNL     1       5.604  -4.344  23.185  0.00  0.00    +0.048 C 
ATOM     17  C   UNL     1       6.126  -5.662  22.607  0.00  0.00    +0.023 C 
ENDBRANCH  13  16
ENDBRANCH  12  13
ENDBRANCH   9  12
ENDBRANCH   8   9
ENDBRANCH   7   8
ENDBRANCH   1   7
BRANCH   4  18
ATOM     18  C   UNL     1      10.113   1.825  22.144  0.00  0.00    +0.063 C 
BRANCH  18  19
ATOM     19  C   UNL     1       9.213   2.835  22.856  0.00  0.00    +0.164 C 
BRANCH  19  20
ATOM     20  O   UNL     1       9.943   3.481  23.899  0.00  0.00    -0.379 OA
BRANCH  20  21
ATOM     21  C   UNL     1      11.313   3.639  23.527  0.00  0.00    +0.163 C 
BRANCH  21  22
ATOM     22  C   UNL     1      11.560   5.069  23.176  0.00  0.00    +0.015 C 
ATOM     23  C   UNL     1      12.877   5.507  22.585  0.00  0.00    +0.006 C 
ATOM     24  C   UNL     1      12.530   5.878  23.997  0.00  0.00    +0.006 C 
ENDBRANCH  21  22
ENDBRANCH  20  21
ENDBRANCH  19  20
ENDBRANCH  18  19
ENDBRANCH   4  18
TORSDOF 12
ENDMDL
MODEL 7
REMARK VINA RESULT:      -5.4      2.848      4.964
REMARK  Name = 
REMARK  14 active torsions:
REMARK  status: ('A' for Active; 'I' for Inactive)
REMARK    1  A    between atoms: C_1  and  C_2
REMARK    2  A    between atoms: C_2  and  C_3
REMARK    3  A    between atoms: C_2  and  N_4
REMARK    4  A    between atoms: N_4  and  C_5
REMARK    5  A    between atoms: C_5  and  C_6
REMARK    6  A    between atoms: C_6  and  O_8
REMARK    7  A    between atoms: C_6  and  C_9
REMARK    8  A    between atoms: C_9  and  O_10
REMARK    9  A    between atoms: O_10  and  C_11
REMARK   10  A    between atoms: C_14  and  C_15
REMARK   11  A    between atoms: C_15  and  C_16
REMARK   12  A    between atoms: C_16  and  O_17
REMARK   13  A    between atoms: O_17  and  C_18
REMARK   14  A    between atoms: C_18  and  C_19
REMARK                            x       y       z     vdW  Elec       q    Type
REMARK                         _______ _______ _______ _____ _____    ______ ____
ROOT
ATOM      1  C   UNL     1       7.301  -5.128  26.005  0.00  0.00    +0.121 A 
ATOM      2  C   UNL     1       6.817  -3.831  26.177  0.00  0.00    +0.046 A 
ATOM      3  C   UNL     1       7.528  -2.735  25.674  0.00  0.00    +0.007 A 
ATOM      4  C   UNL     1       8.733  -2.925  24.986  0.00  0.00    -0.045 A 
ATOM      5  C   UNL     1       9.202  -4.230  24.805  0.00  0.00    +0.007 A 
ATOM      6  C   UNL     1       8.486  -5.321  25.294  0.00  0.00    +0.046 A 
ENDROOT
BRANCH   1   7
ATOM      7  O   UNL     1       6.553  -6.128  26.573  0.00  0.00    -0.489 OA
BRANCH   7   8
ATOM      8  C   UNL     1       5.134  -5.968  26.419  0.00  0.00    +0.261 C 
BRANCH   8   9
ATOM      9  C   UNL     1       4.600  -7.057  25.487  0.00  0.00    +0.166 C 
BRANCH   9  10
ATOM     10  O   UNL     1       3.399  -7.615  26.041  0.00  0.00    -0.387 OA
ATOM     11  H   UNL     1       2.957  -8.070  25.299  0.00  0.00    +0.210 HD
ENDBRANCH   9  10
BRANCH   9  12
ATOM     12  C   UNL     1       4.288  -6.474  24.096  0.00  0.00    +0.115 C 
BRANCH  12  13
ATOM     13  N   UNL     1       5.342  -6.635  23.081  0.00  0.00    -0.311 NA
ATOM     14  H   UNL     1       6.212  -6.886  23.553  0.00  0.00    +0.122 HD
BRANCH  13  16
ATOM     15  C   UNL     1       5.140  -4.153  22.921  0.00  0.00    +0.023 C 
ATOM     16  C   UNL     1       5.567  -5.453  22.239  0.00  0.00    +0.048 C 
ATOM     17  C   UNL     1       7.055  -5.391  21.881  0.00  0.00    +0.023 C 
ENDBRANCH  13  16
ENDBRANCH  12  13
ENDBRANCH   9  12
ENDBRANCH   8   9
ENDBRANCH   7   8
ENDBRANCH   1   7
BRANCH   4  18
ATOM     18  C   UNL     1       9.536  -1.753  24.477  0.00  0.00    +0.063 C 
BRANCH  18  19
ATOM     19  C   UNL     1      10.181  -2.028  23.118  0.00  0.00    +0.164 C 
BRANCH  19  20
ATOM     20  O   UNL     1       9.234  -1.791  22.078  0.00  0.00    -0.379 OA
BRANCH  20  21
ATOM     21  C   UNL     1       8.528  -0.572  22.313  0.00  0.00    +0.163 C 
BRANCH  21  22
ATOM     22  C   UNL     1       9.128   0.507  21.474  0.00  0.00    +0.015 C 
ATOM     23  C   UNL     1       9.988   1.582  22.090  0.00  0.00    +0.006 C 
ATOM     24  C   UNL     1       8.610   1.917  21.597  0.00  0.00    +0.006 C 
ENDBRANCH  21  22
ENDBRANCH  20  21
ENDBRANCH  19  20
ENDBRANCH  18  19
ENDBRANCH   4  18
TORSDOF 12
ENDMDL
MODEL 8
REMARK VINA RESULT:      -5.4      1.684      2.579
REMARK  Name = 
REMARK  14 active torsions:
REMARK  status: ('A' for Active; 'I' for Inactive)
REMARK    1  A    between atoms: C_1  and  C_2
REMARK    2  A    between atoms: C_2  and  C_3
REMARK    3  A    between atoms: C_2  and  N_4
REMARK    4  A    between atoms: N_4  and  C_5
REMARK    5  A    between atoms: C_5  and  C_6
REMARK    6  A    between atoms: C_6  and  O_8
REMARK    7  A    between atoms: C_6  and  C_9
REMARK    8  A    between atoms: C_9  and  O_10
REMARK    9  A    between atoms: O_10  and  C_11
REMARK   10  A    between atoms: C_14  and  C_15
REMARK   11  A    between atoms: C_15  and  C_16
REMARK   12  A    between atoms: C_16  and  O_17
REMARK   13  A    between atoms: O_17  and  C_18
REMARK   14  A    between atoms: C_18  and  C_19
REMARK                            x       y       z     vdW  Elec       q    Type
REMARK                         _______ _______ _______ _____ _____    ______ ____
ROOT
ATOM      1  C   UNL     1       9.628  -2.277  23.526  0.00  0.00    +0.121 A 
ATOM      2  C   UNL     1       9.916  -1.249  24.423  0.00  0.00    +0.046 A 
ATOM      3  C   UNL     1       9.989   0.078  23.982  0.00  0.00    +0.007 A 
ATOM      4  C   UNL     1       9.769   0.393  22.636  0.00  0.00    -0.045 A 
ATOM      5  C   UNL     1       9.464  -0.643  21.746  0.00  0.00    +0.007 A 
ATOM      6  C   UNL     1       9.378  -1.962  22.189  0.00  0.00    +0.046 A 
ENDROOT
BRANCH   1   7
ATOM      7  O   UNL     1       9.622  -3.546  24.048  0.00  0.00    -0.489 OA
BRANCH   7   8
ATOM      8  C   UNL     1       9.104  -3.635  25.384  0.00  0.00    +0.261 C 
BRANCH   8   9
ATOM      9  C   UNL     1       8.547  -5.040  25.620  0.00  0.00    +0.166 C 
BRANCH   9  10
ATOM     10  O   UNL     1       8.482  -5.299  27.029  0.00  0.00    -0.387 OA
ATOM     11  H   UNL     1       7.921  -6.093  27.122  0.00  0.00    +0.210 HD
ENDBRANCH   9  10
BRANCH   9  12
ATOM     12  C   UNL     1       7.134  -5.169  25.019  0.00  0.00    +0.115 C 
BRANCH  12  13
ATOM     13  N   UNL     1       6.612  -3.970  24.343  0.00  0.00    -0.311 NA
ATOM     14  H   UNL     1       5.893  -3.549  24.935  0.00  0.00    +0.122 HD
BRANCH  13  16
ATOM     15  C   UNL     1       5.785  -2.920  22.236  0.00  0.00    +0.023 C 
ATOM     16  C   UNL     1       6.062  -4.213  23.003  0.00  0.00    +0.048 C 
ATOM     17  C   UNL     1       7.054  -5.080  22.223  0.00  0.00    +0.023 C 
ENDBRANCH  13  16
ENDBRANCH  12  13
ENDBRANCH   9  12
ENDBRANCH   8   9
ENDBRANCH   7   8
ENDBRANCH   1   7
BRANCH   4  18
ATOM     18  C   UNL     1       9.889   1.811  22.134  0.00  0.00    +0.063 C 
BRANCH  18  19
ATOM     19  C   UNL     1       8.851   2.745  22.756  0.00  0.00    +0.164 C 
BRANCH  19  20
ATOM     20  O   UNL     1       7.785   2.966  21.832  0.00  0.00    -0.379 OA
BRANCH  20  21
ATOM     21  C   UNL     1       6.619   2.246  22.233  0.00  0.00    +0.163 C 
BRANCH  21  22
ATOM     22  C   UNL     1       6.722   1.924  23.687  0.00  0.00    +0.015 C 
ATOM     23  C   UNL     1       6.329   0.565  24.211  0.00  0.00    +0.006 C 
ATOM     24  C   UNL     1       5.465   1.757  24.501  0.00  0.00    +0.006 C 
ENDBRANCH  21  22
ENDBRANCH  20  21
ENDBRANCH  19  20
ENDBRANCH  18  19
ENDBRANCH   4  18
TORSDOF 12
ENDMDL
MODEL 9
REMARK VINA RESULT:      -5.3      2.064      3.316
REMARK  Name = 
REMARK  14 active torsions:
REMARK  status: ('A' for Active; 'I' for Inactive)
REMARK    1  A    between atoms: C_1  and  C_2
REMARK    2  A    between atoms: C_2  and  C_3
REMARK    3  A    between atoms: C_2  and  N_4
REMARK    4  A    between atoms: N_4  and  C_5
REMARK    5  A    between atoms: C_5  and  C_6
REMARK    6  A    between atoms: C_6  and  O_8
REMARK    7  A    between atoms: C_6  and  C_9
REMARK    8  A    between atoms: C_9  and  O_10
REMARK    9  A    between atoms: O_10  and  C_11
REMARK   10  A    between atoms: C_14  and  C_15
REMARK   11  A    between atoms: C_15  and  C_16
REMARK   12  A    between atoms: C_16  and  O_17
REMARK   13  A    between atoms: O_17  and  C_18
REMARK   14  A    between atoms: C_18  and  C_19
REMARK                            x       y       z     vdW  Elec       q    Type
REMARK                         _______ _______ _______ _____ _____    ______ ____
ROOT
ATOM      1  C   UNL     1       9.850  -2.029  23.865  0.00  0.00    +0.121 A 
ATOM      2  C   UNL     1      10.194  -1.521  22.612  0.00  0.00    +0.046 A 
ATOM      3  C   UNL     1      10.018  -0.162  22.325  0.00  0.00    +0.007 A 
ATOM      4  C   UNL     1       9.499   0.708  23.291  0.00  0.00    -0.045 A 
ATOM      5  C   UNL     1       9.172   0.192  24.550  0.00  0.00    +0.007 A 
ATOM      6  C   UNL     1       9.361  -1.158  24.840  0.00  0.00    +0.046 A 
ENDROOT
BRANCH   1   7
ATOM      7  O   UNL     1      10.020  -3.380  24.032  0.00  0.00    -0.489 OA
BRANCH   7   8
ATOM      8  C   UNL     1       8.802  -4.108  24.257  0.00  0.00    +0.261 C 
BRANCH   8   9
ATOM      9  C   UNL     1       9.055  -5.215  25.281  0.00  0.00    +0.166 C 
BRANCH   9  10
ATOM     10  O   UNL     1      10.457  -5.520  25.322  0.00  0.00    -0.387 OA
ATOM     11  H   UNL     1      10.852  -5.026  24.578  0.00  0.00    +0.210 HD
ENDBRANCH   9  10
BRANCH   9  12
ATOM     12  C   UNL     1       8.597  -4.770  26.684  0.00  0.00    +0.115 C 
BRANCH  12  13
ATOM     13  N   UNL     1       7.749  -5.725  27.415  0.00  0.00    -0.311 NA
ATOM     14  H   UNL     1       7.809  -6.634  26.953  0.00  0.00    +0.122 HD
BRANCH  13  16
ATOM     15  C   UNL     1       6.117  -3.848  27.228  0.00  0.00    +0.023 C 
ATOM     16  C   UNL     1       6.340  -5.329  27.532  0.00  0.00    +0.048 C 
ATOM     17  C   UNL     1       5.515  -6.188  26.569  0.00  0.00    +0.023 C 
ENDBRANCH  13  16
ENDBRANCH  12  13
ENDBRANCH   9  12
ENDBRANCH   8   9
ENDBRANCH   7   8
ENDBRANCH   1   7
BRANCH   4  18
ATOM     18  C   UNL     1       9.259   2.165  22.985  0.00  0.00    +0.063 C 
BRANCH  18  19
ATOM     19  C   UNL     1       8.846   2.966  24.220  0.00  0.00    +0.164 C 
BRANCH  19  20
ATOM     20  O   UNL     1       9.729   4.074  24.394  0.00  0.00    -0.379 OA
BRANCH  20  21
ATOM     21  C   UNL     1      10.500   4.289  23.211  0.00  0.00    +0.163 C 
BRANCH  21  22
ATOM     22  C   UNL     1      11.914   4.576  23.598  0.00  0.00    +0.015 C 
ATOM     23  C   UNL     1      12.353   5.975  23.949  0.00  0.00    +0.006 C 
ATOM     24  C   UNL     1      12.797   5.353  22.657  0.00  0.00    +0.006 C 
ENDBRANCH  21  22
ENDBRANCH  20  21
ENDBRANCH  19  20
ENDBRANCH  18  19
ENDBRANCH   4  18
TORSDOF 12
ENDMDL
