MODEL 1
REMARK VINA RESULT:      -6.4      0.000      0.000
REMARK  Name = 
REMARK  11 active torsions:
REMARK  status: ('A' for Active; 'I' for Inactive)
REMARK    1  A    between atoms: C_1  and  N_2
REMARK    2  A    between atoms: N_2  and  C_3
REMARK    3  A    between atoms: N_2  and  C_10
REMARK    4  A    between atoms: C_3  and  C_4
REMARK    5  A    between atoms: C_4  and  C_5
REMARK    6  A    between atoms: C_5  and  C_6
REMARK    7  A    between atoms: C_6  and  C_7
REMARK    8  A    between atoms: C_7  and  O_8
REMARK    9  A    between atoms: C_13  and  C_14
REMARK   10  A    between atoms: C_15  and  C_16
REMARK   11  A    between atoms: C_19  and  N_22
REMARK                            x       y       z     vdW  Elec       q    Type
REMARK                         _______ _______ _______ _____ _____    ______ ____
ROOT
ATOM      1  C   UNL     1       8.182   4.613  23.971  0.00  0.00    +0.029 A 
ATOM      2  C   UNL     1       8.570   3.594  24.857  0.00  0.00    +0.024 A 
ATOM      3  C   UNL     1       8.284   2.239  24.623  0.00  0.00    +0.010 A 
ATOM      4  C   UNL     1       7.611   1.845  23.469  0.00  0.00    -0.025 A 
ATOM      5  C   UNL     1       7.235   2.833  22.560  0.00  0.00    +0.010 A 
ATOM      6  C   UNL     1       7.525   4.183  22.806  0.00  0.00    +0.024 A 
ENDROOT
BRANCH   1   8
ATOM      7  C   UNL     1       7.554   6.711  25.121  0.00  0.00    +0.129 C 
ATOM      8  N   UNL     1       8.429   5.957  24.227  0.00  0.00    -0.333 N 
BRANCH   8   9
ATOM      9  C   UNL     1       9.671   6.616  23.808  0.00  0.00    +0.105 C 
BRANCH   9  10
ATOM     10  C   UNL     1      10.664   6.654  24.974  0.00  0.00    +0.019 C 
BRANCH  10  11
ATOM     11  C   UNL     1      12.089   6.335  24.520  0.00  0.00    +0.013 C 
BRANCH  11  12
ATOM     12  C   UNL     1      12.086   5.316  23.381  0.00  0.00    +0.120 C 
BRANCH  12  13
ATOM     13  C   UNL     1      13.370   5.345  22.582  0.00  0.00    +0.305 C 
ATOM     14  O   UNL     1      13.462   5.652  21.405  0.00  0.00    -0.251 OA
BRANCH  13  15
ATOM     15  O   UNL     1      14.440   4.987  23.328  0.00  0.00    -0.481 OA
ATOM     16  H   UNL     1      14.600   5.566  24.097  0.00  0.00    +0.295 HD
ENDBRANCH  13  15
ENDBRANCH  12  13
ENDBRANCH  11  12
ENDBRANCH  10  11
ENDBRANCH   9  10
ENDBRANCH   8   9
ENDBRANCH   1   8
BRANCH   4  17
ATOM     17  C   UNL     1       7.201   0.459  23.218  0.00  0.00    +0.008 C 
ATOM     18  C   UNL     1       7.945  -0.628  23.484  0.00  0.00    +0.008 C 
BRANCH  18  19
ATOM     19  C   UNL     1       7.469  -2.003  23.257  0.00  0.00    -0.025 A 
ATOM     20  C   UNL     1       8.255  -3.074  23.704  0.00  0.00    +0.014 A 
ATOM     21  C   UNL     1       7.823  -4.396  23.540  0.00  0.00    +0.085 A 
ATOM     22  C   UNL     1       6.597  -4.647  22.914  0.00  0.00    +0.273 A 
ATOM     23  C   UNL     1       5.819  -3.591  22.429  0.00  0.00    +0.085 A 
ATOM     24  C   UNL     1       6.264  -2.277  22.593  0.00  0.00    +0.014 A 
BRANCH  22  25
ATOM     25  N   UNL     1       6.117  -6.026  22.773  0.00  0.00    +0.080 N 
ATOM     26  O   UNL     1       5.242  -6.415  23.560  0.00  0.00    +0.041 OA
ATOM     27  O   UNL     1       6.610  -6.720  21.872  0.00  0.00    -0.576 OA
ENDBRANCH  22  25
ENDBRANCH  18  19
ENDBRANCH   4  17
TORSDOF 10
ENDMDL
MODEL 2
REMARK VINA RESULT:      -6.4      2.825      4.375
REMARK  Name = 
REMARK  11 active torsions:
REMARK  status: ('A' for Active; 'I' for Inactive)
REMARK    1  A    between atoms: C_1  and  N_2
REMARK    2  A    between atoms: N_2  and  C_3
REMARK    3  A    between atoms: N_2  and  C_10
REMARK    4  A    between atoms: C_3  and  C_4
REMARK    5  A    between atoms: C_4  and  C_5
REMARK    6  A    between atoms: C_5  and  C_6
REMARK    7  A    between atoms: C_6  and  C_7
REMARK    8  A    between atoms: C_7  and  O_8
REMARK    9  A    between atoms: C_13  and  C_14
REMARK   10  A    between atoms: C_15  and  C_16
REMARK   11  A    between atoms: C_19  and  N_22
REMARK                            x       y       z     vdW  Elec       q    Type
REMARK                         _______ _______ _______ _____ _____    ______ ____
ROOT
ATOM      1  C   UNL     1       9.037  -0.047  23.582  0.00  0.00    +0.029 A 
ATOM      2  C   UNL     1       9.389  -1.261  22.969  0.00  0.00    +0.024 A 
ATOM      3  C   UNL     1       8.490  -2.333  22.844  0.00  0.00    +0.010 A 
ATOM      4  C   UNL     1       7.183  -2.221  23.312  0.00  0.00    -0.025 A 
ATOM      5  C   UNL     1       6.799  -1.019  23.903  0.00  0.00    +0.010 A 
ATOM      6  C   UNL     1       7.706   0.044  24.024  0.00  0.00    +0.024 A 
ENDROOT
BRANCH   1   8
ATOM      7  C   UNL     1      11.167   0.798  24.514  0.00  0.00    +0.129 C 
ATOM      8  N   UNL     1       9.943   0.996  23.743  0.00  0.00    -0.333 N 
BRANCH   8   9
ATOM      9  C   UNL     1       9.834   2.248  22.985  0.00  0.00    +0.105 C 
BRANCH   9  10
ATOM     10  C   UNL     1       9.460   3.399  23.923  0.00  0.00    +0.019 C 
BRANCH  10  11
ATOM     11  C   UNL     1      10.318   4.640  23.675  0.00  0.00    +0.013 C 
BRANCH  11  12
ATOM     12  C   UNL     1      11.741   4.250  23.275  0.00  0.00    +0.120 C 
BRANCH  12  13
ATOM     13  C   UNL     1      12.745   5.334  23.599  0.00  0.00    +0.305 C 
ATOM     14  O   UNL     1      12.493   6.382  24.170  0.00  0.00    -0.251 OA
BRANCH  13  15
ATOM     15  O   UNL     1      13.991   5.014  23.180  0.00  0.00    -0.481 OA
ATOM     16  H   UNL     1      14.371   5.649  22.544  0.00  0.00    +0.295 HD
ENDBRANCH  13  15
ENDBRANCH  12  13
ENDBRANCH  11  12
ENDBRANCH  10  11
ENDBRANCH   9  10
ENDBRANCH   8   9
ENDBRANCH   1   8
BRANCH   4  17
ATOM     17  C   UNL     1       6.230  -3.337  23.294  0.00  0.00    +0.008 C 
ATOM     18  C   UNL     1       5.939  -4.122  24.346  0.00  0.00    +0.008 C 
BRANCH  18  19
ATOM     19  C   UNL     1       4.939  -5.201  24.290  0.00  0.00    -0.025 A 
ATOM     20  C   UNL     1       3.954  -5.162  23.293  0.00  0.00    +0.014 A 
ATOM     21  C   UNL     1       3.007  -6.186  23.183  0.00  0.00    +0.085 A 
ATOM     22  C   UNL     1       3.039  -7.255  24.087  0.00  0.00    +0.273 A 
ATOM     23  C   UNL     1       3.991  -7.289  25.111  0.00  0.00    +0.085 A 
ATOM     24  C   UNL     1       4.928  -6.257  25.213  0.00  0.00    +0.014 A 
BRANCH  22  25
ATOM     25  N   UNL     1       2.075  -8.353  23.956  0.00  0.00    +0.080 N 
ATOM     26  O   UNL     1       2.086  -9.236  24.826  0.00  0.00    +0.041 OA
ATOM     27  O   UNL     1       1.303  -8.331  22.987  0.00  0.00    -0.576 OA
ENDBRANCH  22  25
ENDBRANCH  18  19
ENDBRANCH   4  17
TORSDOF 10
ENDMDL
MODEL 3
REMARK VINA RESULT:      -6.3      2.437     10.138
REMARK  Name = 
REMARK  11 active torsions:
REMARK  status: ('A' for Active; 'I' for Inactive)
REMARK    1  A    between atoms: C_1  and  N_2
REMARK    2  A    between atoms: N_2  and  C_3
REMARK    3  A    between atoms: N_2  and  C_10
REMARK    4  A    between atoms: C_3  and  C_4
REMARK    5  A    between atoms: C_4  and  C_5
REMARK    6  A    between atoms: C_5  and  C_6
REMARK    7  A    between atoms: C_6  and  C_7
REMARK    8  A    between atoms: C_7  and  O_8
REMARK    9  A    between atoms: C_13  and  C_14
REMARK   10  A    between atoms: C_15  and  C_16
REMARK   11  A    between atoms: C_19  and  N_22
REMARK                            x       y       z     vdW  Elec       q    Type
REMARK                         _______ _______ _______ _____ _____    ______ ____
ROOT
ATOM      1  C   UNL     1       6.483  -4.149  23.007  0.00  0.00    +0.029 A 
ATOM      2  C   UNL     1       7.871  -3.976  23.134  0.00  0.00    +0.024 A 
ATOM      3  C   UNL     1       8.471  -2.708  23.207  0.00  0.00    +0.010 A 
ATOM      4  C   UNL     1       7.694  -1.552  23.177  0.00  0.00    -0.025 A 
ATOM      5  C   UNL     1       6.312  -1.695  23.076  0.00  0.00    +0.010 A 
ATOM      6  C   UNL     1       5.724  -2.966  23.002  0.00  0.00    +0.024 A 
ENDROOT
BRANCH   1   8
ATOM      7  C   UNL     1       6.427  -6.384  21.948  0.00  0.00    +0.129 C 
ATOM      8  N   UNL     1       5.896  -5.404  22.892  0.00  0.00    -0.333 N 
BRANCH   8   9
ATOM      9  C   UNL     1       4.884  -5.883  23.841  0.00  0.00    +0.105 C 
BRANCH   9  10
ATOM     10  C   UNL     1       5.547  -6.251  25.172  0.00  0.00    +0.019 C 
BRANCH  10  11
ATOM     11  C   UNL     1       5.199  -5.254  26.278  0.00  0.00    +0.013 C 
BRANCH  11  12
ATOM     12  C   UNL     1       6.406  -4.385  26.631  0.00  0.00    +0.120 C 
BRANCH  12  13
ATOM     13  C   UNL     1       7.643  -5.208  26.910  0.00  0.00    +0.305 C 
ATOM     14  O   UNL     1       8.691  -5.142  26.289  0.00  0.00    -0.251 OA
BRANCH  13  15
ATOM     15  O   UNL     1       7.467  -6.053  27.952  0.00  0.00    -0.481 OA
ATOM     16  H   UNL     1       8.127  -5.949  28.664  0.00  0.00    +0.295 HD
ENDBRANCH  13  15
ENDBRANCH  12  13
ENDBRANCH  11  12
ENDBRANCH  10  11
ENDBRANCH   9  10
ENDBRANCH   8   9
ENDBRANCH   1   8
BRANCH   4  17
ATOM     17  C   UNL     1       8.271  -0.203  23.153  0.00  0.00    +0.008 C 
ATOM     18  C   UNL     1       8.349   0.624  24.210  0.00  0.00    +0.008 C 
BRANCH  18  19
ATOM     19  C   UNL     1       8.980   1.952  24.146  0.00  0.00    -0.025 A 
ATOM     20  C   UNL     1      10.204   2.089  23.476  0.00  0.00    +0.014 A 
ATOM     21  C   UNL     1      10.821   3.341  23.361  0.00  0.00    +0.085 A 
ATOM     22  C   UNL     1      10.211   4.464  23.931  0.00  0.00    +0.273 A 
ATOM     23  C   UNL     1       9.008   4.338  24.635  0.00  0.00    +0.085 A 
ATOM     24  C   UNL     1       8.407   3.082  24.748  0.00  0.00    +0.014 A 
BRANCH  22  25
ATOM     25  N   UNL     1      10.828   5.787  23.782  0.00  0.00    +0.080 N 
ATOM     26  O   UNL     1      10.128   6.780  24.025  0.00  0.00    +0.041 OA
ATOM     27  O   UNL     1      12.015   5.833  23.429  0.00  0.00    -0.576 OA
ENDBRANCH  22  25
ENDBRANCH  18  19
ENDBRANCH   4  17
TORSDOF 10
ENDMDL
MODEL 4
REMARK VINA RESULT:      -6.1      2.735      9.758
REMARK  Name = 
REMARK  11 active torsions:
REMARK  status: ('A' for Active; 'I' for Inactive)
REMARK    1  A    between atoms: C_1  and  N_2
REMARK    2  A    between atoms: N_2  and  C_3
REMARK    3  A    between atoms: N_2  and  C_10
REMARK    4  A    between atoms: C_3  and  C_4
REMARK    5  A    between atoms: C_4  and  C_5
REMARK    6  A    between atoms: C_5  and  C_6
REMARK    7  A    between atoms: C_6  and  C_7
REMARK    8  A    between atoms: C_7  and  O_8
REMARK    9  A    between atoms: C_13  and  C_14
REMARK   10  A    between atoms: C_15  and  C_16
REMARK   11  A    between atoms: C_19  and  N_22
REMARK                            x       y       z     vdW  Elec       q    Type
REMARK                         _______ _______ _______ _____ _____    ______ ____
ROOT
ATOM      1  C   UNL     1       4.752  -3.226  24.378  0.00  0.00    +0.029 A 
ATOM      2  C   UNL     1       4.867  -2.161  25.287  0.00  0.00    +0.024 A 
ATOM      3  C   UNL     1       5.697  -1.053  25.051  0.00  0.00    +0.010 A 
ATOM      4  C   UNL     1       6.435  -0.956  23.874  0.00  0.00    -0.025 A 
ATOM      5  C   UNL     1       6.322  -1.987  22.943  0.00  0.00    +0.010 A 
ATOM      6  C   UNL     1       5.490  -3.090  23.190  0.00  0.00    +0.024 A 
ENDROOT
BRANCH   1   8
ATOM      7  C   UNL     1       2.967  -4.780  23.659  0.00  0.00    +0.129 C 
ATOM      8  N   UNL     1       3.962  -4.342  24.633  0.00  0.00    -0.333 N 
BRANCH   8   9
ATOM      9  C   UNL     1       4.231  -5.247  25.757  0.00  0.00    +0.105 C 
BRANCH   9  10
ATOM     10  C   UNL     1       5.462  -6.107  25.454  0.00  0.00    +0.019 C 
BRANCH  10  11
ATOM     11  C   UNL     1       6.699  -5.620  26.209  0.00  0.00    +0.013 C 
BRANCH  11  12
ATOM     12  C   UNL     1       7.807  -5.210  25.238  0.00  0.00    +0.120 C 
BRANCH  12  13
ATOM     13  C   UNL     1       9.136  -5.018  25.932  0.00  0.00    +0.305 C 
ATOM     14  O   UNL     1       9.327  -4.315  26.911  0.00  0.00    -0.251 OA
BRANCH  13  15
ATOM     15  O   UNL     1      10.125  -5.727  25.341  0.00  0.00    -0.481 OA
ATOM     16  H   UNL     1      11.019  -5.513  25.671  0.00  0.00    +0.295 HD
ENDBRANCH  13  15
ENDBRANCH  12  13
ENDBRANCH  11  12
ENDBRANCH  10  11
ENDBRANCH   9  10
ENDBRANCH   8   9
ENDBRANCH   1   8
BRANCH   4  17
ATOM     17  C   UNL     1       7.390   0.128  23.616  0.00  0.00    +0.008 C 
ATOM     18  C   UNL     1       7.723   1.090  24.493  0.00  0.00    +0.008 C 
BRANCH  18  19
ATOM     19  C   UNL     1       8.723   2.131  24.203  0.00  0.00    -0.025 A 
ATOM     20  C   UNL     1       8.404   3.470  24.467  0.00  0.00    +0.014 A 
ATOM     21  C   UNL     1       9.339   4.487  24.240  0.00  0.00    +0.085 A 
ATOM     22  C   UNL     1      10.602   4.160  23.734  0.00  0.00    +0.273 A 
ATOM     23  C   UNL     1      10.923   2.833  23.430  0.00  0.00    +0.085 A 
ATOM     24  C   UNL     1       9.979   1.828  23.655  0.00  0.00    +0.014 A 
BRANCH  22  25
ATOM     25  N   UNL     1      11.603   5.213  23.529  0.00  0.00    +0.080 N 
ATOM     26  O   UNL     1      11.484   6.257  24.187  0.00  0.00    +0.041 OA
ATOM     27  O   UNL     1      12.512   4.996  22.716  0.00  0.00    -0.576 OA
ENDBRANCH  22  25
ENDBRANCH  18  19
ENDBRANCH   4  17
TORSDOF 10
ENDMDL
MODEL 5
REMARK VINA RESULT:      -6.0      2.850      9.898
REMARK  Name = 
REMARK  11 active torsions:
REMARK  status: ('A' for Active; 'I' for Inactive)
REMARK    1  A    between atoms: C_1  and  N_2
REMARK    2  A    between atoms: N_2  and  C_3
REMARK    3  A    between atoms: N_2  and  C_10
REMARK    4  A    between atoms: C_3  and  C_4
REMARK    5  A    between atoms: C_4  and  C_5
REMARK    6  A    between atoms: C_5  and  C_6
REMARK    7  A    between atoms: C_6  and  C_7
REMARK    8  A    between atoms: C_7  and  O_8
REMARK    9  A    between atoms: C_13  and  C_14
REMARK   10  A    between atoms: C_15  and  C_16
REMARK   11  A    between atoms: C_19  and  N_22
REMARK                            x       y       z     vdW  Elec       q    Type
REMARK                         _______ _______ _______ _____ _____    ______ ____
ROOT
ATOM      1  C   UNL     1       6.708  -4.079  26.791  0.00  0.00    +0.029 A 
ATOM      2  C   UNL     1       8.068  -3.998  26.449  0.00  0.00    +0.024 A 
ATOM      3  C   UNL     1       8.706  -2.777  26.171  0.00  0.00    +0.010 A 
ATOM      4  C   UNL     1       8.005  -1.576  26.249  0.00  0.00    -0.025 A 
ATOM      5  C   UNL     1       6.660  -1.625  26.609  0.00  0.00    +0.010 A 
ATOM      6  C   UNL     1       6.033  -2.850  26.882  0.00  0.00    +0.024 A 
ENDROOT
BRANCH   1   8
ATOM      7  C   UNL     1       6.244  -5.988  28.294  0.00  0.00    +0.129 C 
ATOM      8  N   UNL     1       6.069  -5.292  27.022  0.00  0.00    -0.333 N 
BRANCH   8   9
ATOM      9  C   UNL     1       5.036  -5.814  26.120  0.00  0.00    +0.105 C 
BRANCH   9  10
ATOM     10  C   UNL     1       5.550  -5.813  24.678  0.00  0.00    +0.019 C 
BRANCH  10  11
ATOM     11  C   UNL     1       4.689  -4.939  23.765  0.00  0.00    +0.013 C 
BRANCH  11  12
ATOM     12  C   UNL     1       5.404  -3.632  23.424  0.00  0.00    +0.120 C 
BRANCH  12  13
ATOM     13  C   UNL     1       6.176  -3.722  22.127  0.00  0.00    +0.305 C 
ATOM     14  O   UNL     1       5.692  -3.959  21.032  0.00  0.00    -0.251 OA
BRANCH  13  15
ATOM     15  O   UNL     1       7.499  -3.506  22.307  0.00  0.00    -0.481 OA
ATOM     16  H   UNL     1       8.036  -4.322  22.321  0.00  0.00    +0.295 HD
ENDBRANCH  13  15
ENDBRANCH  12  13
ENDBRANCH  11  12
ENDBRANCH  10  11
ENDBRANCH   9  10
ENDBRANCH   8   9
ENDBRANCH   1   8
BRANCH   4  17
ATOM     17  C   UNL     1       8.592  -0.283  25.878  0.00  0.00    +0.008 C 
ATOM     18  C   UNL     1       8.655   0.208  24.629  0.00  0.00    +0.008 C 
BRANCH  18  19
ATOM     19  C   UNL     1       9.213   1.534  24.314  0.00  0.00    -0.025 A 
ATOM     20  C   UNL     1       8.511   2.678  24.720  0.00  0.00    +0.014 A 
ATOM     21  C   UNL     1       9.023   3.957  24.472  0.00  0.00    +0.085 A 
ATOM     22  C   UNL     1      10.245   4.091  23.803  0.00  0.00    +0.273 A 
ATOM     23  C   UNL     1      10.940   2.961  23.359  0.00  0.00    +0.085 A 
ATOM     24  C   UNL     1      10.414   1.690  23.607  0.00  0.00    +0.014 A 
BRANCH  22  25
ATOM     25  N   UNL     1      10.810   5.426  23.573  0.00  0.00    +0.080 N 
ATOM     26  O   UNL     1      12.044   5.542  23.600  0.00  0.00    +0.041 OA
ATOM     27  O   UNL     1      10.022   6.358  23.361  0.00  0.00    -0.576 OA
ENDBRANCH  22  25
ENDBRANCH  18  19
ENDBRANCH   4  17
TORSDOF 10
ENDMDL
MODEL 6
REMARK VINA RESULT:      -6.0      2.343      3.299
REMARK  Name = 
REMARK  11 active torsions:
REMARK  status: ('A' for Active; 'I' for Inactive)
REMARK    1  A    between atoms: C_1  and  N_2
REMARK    2  A    between atoms: N_2  and  C_3
REMARK    3  A    between atoms: N_2  and  C_10
REMARK    4  A    between atoms: C_3  and  C_4
REMARK    5  A    between atoms: C_4  and  C_5
REMARK    6  A    between atoms: C_5  and  C_6
REMARK    7  A    between atoms: C_6  and  C_7
REMARK    8  A    between atoms: C_7  and  O_8
REMARK    9  A    between atoms: C_13  and  C_14
REMARK   10  A    between atoms: C_15  and  C_16
REMARK   11  A    between atoms: C_19  and  N_22
REMARK                            x       y       z     vdW  Elec       q    Type
REMARK                         _______ _______ _______ _____ _____    ______ ____
ROOT
ATOM      1  C   UNL     1      10.288   3.402  23.635  0.00  0.00    +0.029 A 
ATOM      2  C   UNL     1       9.316   3.102  24.603  0.00  0.00    +0.024 A 
ATOM      3  C   UNL     1       8.526   1.942  24.547  0.00  0.00    +0.010 A 
ATOM      4  C   UNL     1       8.697   1.016  23.521  0.00  0.00    -0.025 A 
ATOM      5  C   UNL     1       9.672   1.276  22.559  0.00  0.00    +0.010 A 
ATOM      6  C   UNL     1      10.453   2.439  22.624  0.00  0.00    +0.024 A 
ENDROOT
BRANCH   1   8
ATOM      7  C   UNL     1      12.326   4.644  22.984  0.00  0.00    +0.129 C 
ATOM      8  N   UNL     1      11.038   4.573  23.669  0.00  0.00    -0.333 N 
BRANCH   8   9
ATOM      9  C   UNL     1      10.494   5.833  24.186  0.00  0.00    +0.105 C 
BRANCH   9  10
ATOM     10  C   UNL     1       9.434   6.380  23.225  0.00  0.00    +0.019 C 
BRANCH  10  11
ATOM     11  C   UNL     1       8.160   6.802  23.959  0.00  0.00    +0.013 C 
BRANCH  11  12
ATOM     12  C   UNL     1       7.039   5.787  23.738  0.00  0.00    +0.120 C 
BRANCH  12  13
ATOM     13  C   UNL     1       7.019   5.254  22.323  0.00  0.00    +0.305 C 
ATOM     14  O   UNL     1       7.219   4.095  22.002  0.00  0.00    -0.251 OA
BRANCH  13  15
ATOM     15  O   UNL     1       6.749   6.224  21.419  0.00  0.00    -0.481 OA
ATOM     16  H   UNL     1       5.822   6.530  21.430  0.00  0.00    +0.295 HD
ENDBRANCH  13  15
ENDBRANCH  12  13
ENDBRANCH  11  12
ENDBRANCH  10  11
ENDBRANCH   9  10
ENDBRANCH   8   9
ENDBRANCH   1   8
BRANCH   4  17
ATOM     17  C   UNL     1       7.839  -0.163  23.358  0.00  0.00    +0.008 C 
ATOM     18  C   UNL     1       8.203  -1.429  23.627  0.00  0.00    +0.008 C 
BRANCH  18  19
ATOM     19  C   UNL     1       7.289  -2.574  23.492  0.00  0.00    -0.025 A 
ATOM     20  C   UNL     1       7.688  -3.822  23.989  0.00  0.00    +0.014 A 
ATOM     21  C   UNL     1       6.835  -4.929  23.914  0.00  0.00    +0.085 A 
ATOM     22  C   UNL     1       5.573  -4.787  23.325  0.00  0.00    +0.273 A 
ATOM     23  C   UNL     1       5.174  -3.558  22.790  0.00  0.00    +0.085 A 
ATOM     24  C   UNL     1       6.038  -2.463  22.866  0.00  0.00    +0.014 A 
BRANCH  22  25
ATOM     25  N   UNL     1       4.656  -5.932  23.276  0.00  0.00    +0.080 N 
ATOM     26  O   UNL     1       4.910  -6.905  24.001  0.00  0.00    +0.041 OA
ATOM     27  O   UNL     1       3.678  -5.856  22.519  0.00  0.00    -0.576 OA
ENDBRANCH  22  25
ENDBRANCH  18  19
ENDBRANCH   4  17
TORSDOF 10
ENDMDL
MODEL 7
REMARK VINA RESULT:      -5.8      2.899     10.646
REMARK  Name = 
REMARK  11 active torsions:
REMARK  status: ('A' for Active; 'I' for Inactive)
REMARK    1  A    between atoms: C_1  and  N_2
REMARK    2  A    between atoms: N_2  and  C_3
REMARK    3  A    between atoms: N_2  and  C_10
REMARK    4  A    between atoms: C_3  and  C_4
REMARK    5  A    between atoms: C_4  and  C_5
REMARK    6  A    between atoms: C_5  and  C_6
REMARK    7  A    between atoms: C_6  and  C_7
REMARK    8  A    between atoms: C_7  and  O_8
REMARK    9  A    between atoms: C_13  and  C_14
REMARK   10  A    between atoms: C_15  and  C_16
REMARK   11  A    between atoms: C_19  and  N_22
REMARK                            x       y       z     vdW  Elec       q    Type
REMARK                         _______ _______ _______ _____ _____    ______ ____
ROOT
ATOM      1  C   UNL     1       6.570  -4.078  22.793  0.00  0.00    +0.029 A 
ATOM      2  C   UNL     1       5.693  -2.985  22.889  0.00  0.00    +0.024 A 
ATOM      3  C   UNL     1       6.141  -1.654  22.873  0.00  0.00    +0.010 A 
ATOM      4  C   UNL     1       7.496  -1.362  22.737  0.00  0.00    -0.025 A 
ATOM      5  C   UNL     1       8.387  -2.426  22.617  0.00  0.00    +0.010 A 
ATOM      6  C   UNL     1       7.928  -3.752  22.635  0.00  0.00    +0.024 A 
ENDROOT
BRANCH   1   8
ATOM      7  C   UNL     1       6.646  -6.390  21.916  0.00  0.00    +0.129 C 
ATOM      8  N   UNL     1       6.129  -5.396  22.853  0.00  0.00    -0.333 N 
BRANCH   8   9
ATOM      9  C   UNL     1       5.317  -5.897  23.967  0.00  0.00    +0.105 C 
BRANCH   9  10
ATOM     10  C   UNL     1       6.040  -5.652  25.295  0.00  0.00    +0.019 C 
BRANCH  10  11
ATOM     11  C   UNL     1       5.059  -5.472  26.454  0.00  0.00    +0.013 C 
BRANCH  11  12
ATOM     12  C   UNL     1       5.126  -6.658  27.417  0.00  0.00    +0.120 C 
BRANCH  12  13
ATOM     13  C   UNL     1       6.003  -6.374  28.616  0.00  0.00    +0.305 C 
ATOM     14  O   UNL     1       6.352  -5.266  28.989  0.00  0.00    -0.251 OA
BRANCH  13  15
ATOM     15  O   UNL     1       6.373  -7.508  29.255  0.00  0.00    -0.481 OA
ATOM     16  H   UNL     1       5.725  -8.235  29.181  0.00  0.00    +0.295 HD
ENDBRANCH  13  15
ENDBRANCH  12  13
ENDBRANCH  11  12
ENDBRANCH  10  11
ENDBRANCH   9  10
ENDBRANCH   8   9
ENDBRANCH   1   8
BRANCH   4  17
ATOM     17  C   UNL     1       8.030   0.003  22.811  0.00  0.00    +0.008 C 
ATOM     18  C   UNL     1       8.703   0.516  23.854  0.00  0.00    +0.008 C 
BRANCH  18  19
ATOM     19  C   UNL     1       9.261   1.878  23.861  0.00  0.00    -0.025 A 
ATOM     20  C   UNL     1       8.486   2.925  24.380  0.00  0.00    +0.014 A 
ATOM     21  C   UNL     1       8.992   4.229  24.438  0.00  0.00    +0.085 A 
ATOM     22  C   UNL     1      10.283   4.488  23.962  0.00  0.00    +0.273 A 
ATOM     23  C   UNL     1      11.054   3.462  23.407  0.00  0.00    +0.085 A 
ATOM     24  C   UNL     1      10.535   2.166  23.349  0.00  0.00    +0.014 A 
BRANCH  22  25
ATOM     25  N   UNL     1      10.838   5.844  24.054  0.00  0.00    +0.080 N 
ATOM     26  O   UNL     1      10.087   6.748  24.449  0.00  0.00    +0.041 OA
ATOM     27  O   UNL     1      12.024   6.004  23.737  0.00  0.00    -0.576 OA
ENDBRANCH  22  25
ENDBRANCH  18  19
ENDBRANCH   4  17
TORSDOF 10
ENDMDL
MODEL 8
REMARK VINA RESULT:      -5.7      3.345      5.076
REMARK  Name = 
REMARK  11 active torsions:
REMARK  status: ('A' for Active; 'I' for Inactive)
REMARK    1  A    between atoms: C_1  and  N_2
REMARK    2  A    between atoms: N_2  and  C_3
REMARK    3  A    between atoms: N_2  and  C_10
REMARK    4  A    between atoms: C_3  and  C_4
REMARK    5  A    between atoms: C_4  and  C_5
REMARK    6  A    between atoms: C_5  and  C_6
REMARK    7  A    between atoms: C_6  and  C_7
REMARK    8  A    between atoms: C_7  and  O_8
REMARK    9  A    between atoms: C_13  and  C_14
REMARK   10  A    between atoms: C_15  and  C_16
REMARK   11  A    between atoms: C_19  and  N_22
REMARK                            x       y       z     vdW  Elec       q    Type
REMARK                         _______ _______ _______ _____ _____    ______ ____
ROOT
ATOM      1  C   UNL     1       8.726   0.115  23.582  0.00  0.00    +0.029 A 
ATOM      2  C   UNL     1       8.789  -0.855  22.568  0.00  0.00    +0.024 A 
ATOM      3  C   UNL     1       7.862  -1.905  22.469  0.00  0.00    +0.010 A 
ATOM      4  C   UNL     1       6.811  -2.013  23.377  0.00  0.00    -0.025 A 
ATOM      5  C   UNL     1       6.710  -1.049  24.380  0.00  0.00    +0.010 A 
ATOM      6  C   UNL     1       7.644  -0.006  24.469  0.00  0.00    +0.024 A 
ENDROOT
BRANCH   1   8
ATOM      7  C   UNL     1      10.919   0.892  24.424  0.00  0.00    +0.129 C 
ATOM      8  N   UNL     1       9.671   1.129  23.703  0.00  0.00    -0.333 N 
BRANCH   8   9
ATOM      9  C   UNL     1       9.573   2.382  22.945  0.00  0.00    +0.105 C 
BRANCH   9  10
ATOM     10  C   UNL     1       8.344   3.175  23.400  0.00  0.00    +0.019 C 
BRANCH  10  11
ATOM     11  C   UNL     1       7.499   3.646  22.216  0.00  0.00    +0.013 C 
BRANCH  11  12
ATOM     12  C   UNL     1       6.757   4.940  22.554  0.00  0.00    +0.120 C 
BRANCH  12  13
ATOM     13  C   UNL     1       7.548   6.171  22.171  0.00  0.00    +0.305 C 
ATOM     14  O   UNL     1       8.565   6.557  22.722  0.00  0.00    -0.251 OA
BRANCH  13  15
ATOM     15  O   UNL     1       6.996   6.822  21.121  0.00  0.00    -0.481 OA
ATOM     16  H   UNL     1       7.553   6.826  20.319  0.00  0.00    +0.295 HD
ENDBRANCH  13  15
ENDBRANCH  12  13
ENDBRANCH  11  12
ENDBRANCH  10  11
ENDBRANCH   9  10
ENDBRANCH   8   9
ENDBRANCH   1   8
BRANCH   4  17
ATOM     17  C   UNL     1       5.870  -3.139  23.381  0.00  0.00    +0.008 C 
ATOM     18  C   UNL     1       5.872  -4.145  24.272  0.00  0.00    +0.008 C 
BRANCH  18  19
ATOM     19  C   UNL     1       4.876  -5.229  24.261  0.00  0.00    -0.025 A 
ATOM     20  C   UNL     1       3.908  -5.250  23.247  0.00  0.00    +0.014 A 
ATOM     21  C   UNL     1       2.965  -6.282  23.180  0.00  0.00    +0.085 A 
ATOM     22  C   UNL     1       2.985  -7.298  24.143  0.00  0.00    +0.273 A 
ATOM     23  C   UNL     1       3.920  -7.271  25.183  0.00  0.00    +0.085 A 
ATOM     24  C   UNL     1       4.852  -6.232  25.242  0.00  0.00    +0.014 A 
BRANCH  22  25
ATOM     25  N   UNL     1       2.026  -8.405  24.059  0.00  0.00    +0.080 N 
ATOM     26  O   UNL     1       2.158  -9.344  24.858  0.00  0.00    +0.041 OA
ATOM     27  O   UNL     1       1.137  -8.335  23.198  0.00  0.00    -0.576 OA
ENDBRANCH  22  25
ENDBRANCH  18  19
ENDBRANCH   4  17
TORSDOF 10
ENDMDL
MODEL 9
REMARK VINA RESULT:      -5.5      2.240      3.332
REMARK  Name = 
REMARK  11 active torsions:
REMARK  status: ('A' for Active; 'I' for Inactive)
REMARK    1  A    between atoms: C_1  and  N_2
REMARK    2  A    between atoms: N_2  and  C_3
REMARK    3  A    between atoms: N_2  and  C_10
REMARK    4  A    between atoms: C_3  and  C_4
REMARK    5  A    between atoms: C_4  and  C_5
REMARK    6  A    between atoms: C_5  and  C_6
REMARK    7  A    between atoms: C_6  and  C_7
REMARK    8  A    between atoms: C_7  and  O_8
REMARK    9  A    between atoms: C_13  and  C_14
REMARK   10  A    between atoms: C_15  and  C_16
REMARK   11  A    between atoms: C_19  and  N_22
REMARK                            x       y       z     vdW  Elec       q    Type
REMARK                         _______ _______ _______ _____ _____    ______ ____
ROOT
ATOM      1  C   UNL     1       8.894   1.578  23.840  0.00  0.00    +0.029 A 
ATOM      2  C   UNL     1       9.160   0.425  24.597  0.00  0.00    +0.024 A 
ATOM      3  C   UNL     1       8.396  -0.748  24.482  0.00  0.00    +0.010 A 
ATOM      4  C   UNL     1       7.340  -0.821  23.577  0.00  0.00    -0.025 A 
ATOM      5  C   UNL     1       7.069   0.300  22.795  0.00  0.00    +0.010 A 
ATOM      6  C   UNL     1       7.837   1.467  22.920  0.00  0.00    +0.024 A 
ENDROOT
BRANCH   1   8
ATOM      7  C   UNL     1      10.946   2.881  23.379  0.00  0.00    +0.129 C 
ATOM      8  N   UNL     1       9.625   2.752  23.988  0.00  0.00    -0.333 N 
BRANCH   8   9
ATOM      9  C   UNL     1       9.036   3.972  24.553  0.00  0.00    +0.105 C 
BRANCH   9  10
ATOM     10  C   UNL     1       8.759   4.985  23.438  0.00  0.00    +0.019 C 
BRANCH  10  11
ATOM     11  C   UNL     1       9.575   6.267  23.617  0.00  0.00    +0.013 C 
BRANCH  11  12
ATOM     12  C   UNL     1      10.271   6.287  24.977  0.00  0.00    +0.120 C 
BRANCH  12  13
ATOM     13  C   UNL     1      11.761   6.518  24.855  0.00  0.00    +0.305 C 
ATOM     14  O   UNL     1      12.453   7.108  25.668  0.00  0.00    -0.251 OA
BRANCH  13  15
ATOM     15  O   UNL     1      12.266   5.988  23.718  0.00  0.00    -0.481 OA
ATOM     16  H   UNL     1      12.791   5.177  23.857  0.00  0.00    +0.295 HD
ENDBRANCH  13  15
ENDBRANCH  12  13
ENDBRANCH  11  12
ENDBRANCH  10  11
ENDBRANCH   9  10
ENDBRANCH   8   9
ENDBRANCH   1   8
BRANCH   4  17
ATOM     17  C   UNL     1       6.449  -1.983  23.481  0.00  0.00    +0.008 C 
ATOM     18  C   UNL     1       6.530  -3.085  24.245  0.00  0.00    +0.008 C 
BRANCH  18  19
ATOM     19  C   UNL     1       5.582  -4.206  24.142  0.00  0.00    -0.025 A 
ATOM     20  C   UNL     1       5.864  -5.397  24.826  0.00  0.00    +0.014 A 
ATOM     21  C   UNL     1       4.972  -6.475  24.784  0.00  0.00    +0.085 A 
ATOM     22  C   UNL     1       3.791  -6.363  24.042  0.00  0.00    +0.273 A 
ATOM     23  C   UNL     1       3.513  -5.196  23.323  0.00  0.00    +0.085 A 
ATOM     24  C   UNL     1       4.414  -4.129  23.369  0.00  0.00    +0.014 A 
BRANCH  22  25
ATOM     25  N   UNL     1       2.831  -7.472  24.023  0.00  0.00    +0.080 N 
ATOM     26  O   UNL     1       1.921  -7.433  23.181  0.00  0.00    +0.041 OA
ATOM     27  O   UNL     1       2.988  -8.386  24.845  0.00  0.00    -0.576 OA
ENDBRANCH  22  25
ENDBRANCH  18  19
ENDBRANCH   4  17
TORSDOF 10
ENDMDL
