MODEL 1
REMARK VINA RESULT:      -8.5      0.000      0.000
REMARK  Name = 
REMARK  9 active torsions:
REMARK  status: ('A' for Active; 'I' for Inactive)
REMARK    1  A    between atoms: C_1  and  C_2
REMARK    2  A    between atoms: C_2  and  C_3
REMARK    3  A    between atoms: C_2  and  C_4
REMARK    4  A    between atoms: C_2  and  C_5
REMARK    5  A    between atoms: C_7  and  C_17
REMARK    6  A    between atoms: C_8  and  C_10
REMARK    7  A    between atoms: C_20  and  N_21
REMARK    8  A    between atoms: N_21  and  S_22
REMARK    9  A    between atoms: S_22  and  C_25
REMARK                            x       y       z     vdW  Elec       q    Type
REMARK                         _______ _______ _______ _____ _____    ______ ____
ROOT
ATOM      1  C   UNL     1       5.761  -5.109  24.139  0.00  0.00    +0.039 A 
ATOM      2  C   UNL     1       6.062  -5.990  23.084  0.00  0.00    +0.013 A 
ATOM      3  C   UNL     1       6.938  -5.636  22.052  0.00  0.00    +0.003 A 
ATOM      4  C   UNL     1       7.518  -4.373  22.024  0.00  0.00    +0.027 A 
ATOM      5  C   UNL     1       7.237  -3.473  23.052  0.00  0.00    +0.084 A 
ATOM      6  C   UNL     1       6.365  -3.837  24.092  0.00  0.00    +0.155 A 
ATOM      7  F   UNL     1       6.149  -2.941  25.072  0.00  0.00    -0.203 F 
ENDROOT
BRANCH   1  11
ATOM      8  C   UNL     1       4.446  -5.923  27.439  0.00  0.00    +0.085 A 
ATOM      9  S   UNL     1       2.973  -6.372  26.698  0.00  0.00    -0.069 S 
ATOM     10  C   UNL     1       3.522  -5.822  25.165  0.00  0.00    +0.065 A 
ATOM     11  C   UNL     1       4.876  -5.494  25.260  0.00  0.00    +0.090 A 
ATOM     12  N   UNL     1       5.371  -5.515  26.588  0.00  0.00    -0.243 NA
BRANCH  10  13
ATOM     13  C   UNL     1       2.516  -5.889  24.100  0.00  0.00    +0.085 A 
ATOM     14  C   UNL     1       1.563  -4.891  23.947  0.00  0.00    +0.049 A 
ATOM     15  C   UNL     1       0.563  -5.143  23.049  0.00  0.00    +0.116 A 
ATOM     16  N   UNL     1       0.516  -6.267  22.317  0.00  0.00    -0.223 NA
ATOM     17  C   UNL     1       1.506  -7.143  22.498  0.00  0.00    +0.213 A 
ATOM     18  N   UNL     1       1.449  -8.311  21.768  0.00  0.00    -0.327 N 
ATOM     19  H   UNL     1       0.486  -8.493  21.519  0.00  0.00    +0.145 HD
ATOM     20  H   UNL     1       1.941  -9.040  22.267  0.00  0.00    +0.145 HD
ATOM     21  N   UNL     1       2.503  -7.017  23.376  0.00  0.00    -0.214 NA
ENDBRANCH  10  13
BRANCH   8  23
ATOM     22  C   UNL     1       4.185  -4.683  29.644  0.00  0.00    +0.017 C 
ATOM     23  C   UNL     1       4.527  -6.019  28.968  0.00  0.00    +0.011 C 
ATOM     24  C   UNL     1       3.527  -7.084  29.478  0.00  0.00    +0.017 C 
ATOM     25  C   UNL     1       5.949  -6.432  29.418  0.00  0.00    +0.017 C 
ENDBRANCH   8  23
ENDBRANCH   1  11
BRANCH   5  26
ATOM     26  N   UNL     1       7.869  -2.188  23.018  0.00  0.00    -0.213 N 
ATOM     27  H   UNL     1       7.834  -1.683  22.130  0.00  0.00    +0.174 HD
BRANCH  26  28
ATOM     28  S   UNL     1       9.348  -1.970  23.808  0.00  0.00    +0.078 S 
ATOM     29  O   UNL     1      10.287  -2.935  23.272  0.00  0.00    -0.150 OA
ATOM     30  O   UNL     1       9.053  -1.949  25.226  0.00  0.00    -0.150 OA
BRANCH  28  31
ATOM     31  C   UNL     1       9.875  -0.350  23.404  0.00  0.00    +0.178 A 
ATOM     32  C   UNL     1      10.279   0.542  24.386  0.00  0.00    +0.153 A 
ATOM     33  F   UNL     1      10.442   0.167  25.660  0.00  0.00    -0.203 F 
ATOM     34  C   UNL     1      10.485   1.889  24.078  0.00  0.00    +0.040 A 
ATOM     35  C   UNL     1      10.290   2.346  22.775  0.00  0.00    +0.006 A 
ATOM     36  C   UNL     1       9.913   1.446  21.779  0.00  0.00    +0.040 A 
ATOM     37  C   UNL     1       9.703   0.105  22.103  0.00  0.00    +0.153 A 
ATOM     38  F   UNL     1       9.305  -0.729  21.130  0.00  0.00    -0.203 F 
ENDBRANCH  28  31
ENDBRANCH  26  28
ENDBRANCH   5  26
TORSDOF 6
ENDMDL
MODEL 2
REMARK VINA RESULT:      -8.3      4.580      8.473
REMARK  Name = 
REMARK  9 active torsions:
REMARK  status: ('A' for Active; 'I' for Inactive)
REMARK    1  A    between atoms: C_1  and  C_2
REMARK    2  A    between atoms: C_2  and  C_3
REMARK    3  A    between atoms: C_2  and  C_4
REMARK    4  A    between atoms: C_2  and  C_5
REMARK    5  A    between atoms: C_7  and  C_17
REMARK    6  A    between atoms: C_8  and  C_10
REMARK    7  A    between atoms: C_20  and  N_21
REMARK    8  A    between atoms: N_21  and  S_22
REMARK    9  A    between atoms: S_22  and  C_25
REMARK                            x       y       z     vdW  Elec       q    Type
REMARK                         _______ _______ _______ _____ _____    ______ ____
ROOT
ATOM      1  C   UNL     1       9.150   0.892  23.340  0.00  0.00    +0.039 A 
ATOM      2  C   UNL     1       9.165   0.667  21.951  0.00  0.00    +0.013 A 
ATOM      3  C   UNL     1       9.384  -0.605  21.410  0.00  0.00    +0.003 A 
ATOM      4  C   UNL     1       9.628  -1.691  22.243  0.00  0.00    +0.027 A 
ATOM      5  C   UNL     1       9.626  -1.502  23.625  0.00  0.00    +0.084 A 
ATOM      6  C   UNL     1       9.394  -0.225  24.163  0.00  0.00    +0.155 A 
ATOM      7  F   UNL     1       9.377  -0.103  25.504  0.00  0.00    -0.203 F 
ENDROOT
BRANCH   1  11
ATOM      8  C   UNL     1       9.359   4.395  24.321  0.00  0.00    +0.085 A 
ATOM      9  S   UNL     1       7.960   4.171  25.276  0.00  0.00    -0.069 S 
ATOM     10  C   UNL     1       7.751   2.573  24.678  0.00  0.00    +0.065 A 
ATOM     11  C   UNL     1       8.870   2.223  23.920  0.00  0.00    +0.090 A 
ATOM     12  N   UNL     1       9.757   3.305  23.690  0.00  0.00    -0.243 NA
BRANCH  10  13
ATOM     13  C   UNL     1       6.530   1.907  25.141  0.00  0.00    +0.085 A 
ATOM     14  C   UNL     1       5.274   2.369  24.771  0.00  0.00    +0.049 A 
ATOM     15  C   UNL     1       4.207   1.794  25.406  0.00  0.00    +0.116 A 
ATOM     16  N   UNL     1       4.348   0.808  26.305  0.00  0.00    -0.223 NA
ATOM     17  C   UNL     1       5.592   0.396  26.556  0.00  0.00    +0.213 A 
ATOM     18  N   UNL     1       5.744  -0.598  27.498  0.00  0.00    -0.327 N 
ATOM     19  H   UNL     1       4.951  -0.578  28.124  0.00  0.00    +0.145 HD
ATOM     20  H   UNL     1       6.661  -0.524  27.915  0.00  0.00    +0.145 HD
ATOM     21  N   UNL     1       6.702   0.915  26.027  0.00  0.00    -0.214 NA
ENDBRANCH  10  13
BRANCH   8  23
ATOM     22  C   UNL     1      10.067   6.422  25.685  0.00  0.00    +0.017 C 
ATOM     23  C   UNL     1       9.973   5.801  24.284  0.00  0.00    +0.011 C 
ATOM     24  C   UNL     1      11.401   5.732  23.692  0.00  0.00    +0.017 C 
ATOM     25  C   UNL     1       9.125   6.746  23.398  0.00  0.00    +0.017 C 
ENDBRANCH   8  23
ENDBRANCH   1  11
BRANCH   5  26
ATOM     26  N   UNL     1       9.850  -2.641  24.464  0.00  0.00    -0.213 N 
ATOM     27  H   UNL     1      10.567  -3.302  24.158  0.00  0.00    +0.174 HD
BRANCH  26  28
ATOM     28  S   UNL     1       8.528  -3.427  25.167  0.00  0.00    +0.078 S 
ATOM     29  O   UNL     1       7.909  -2.510  26.102  0.00  0.00    -0.150 OA
ATOM     30  O   UNL     1       9.014  -4.715  25.620  0.00  0.00    -0.150 OA
BRANCH  28  31
ATOM     31  C   UNL     1       7.418  -3.768  23.856  0.00  0.00    +0.178 A 
ATOM     32  C   UNL     1       7.564  -4.898  23.065  0.00  0.00    +0.153 A 
ATOM     33  F   UNL     1       8.448  -5.858  23.356  0.00  0.00    -0.203 F 
ATOM     34  C   UNL     1       6.814  -5.044  21.895  0.00  0.00    +0.040 A 
ATOM     35  C   UNL     1       5.906  -4.054  21.518  0.00  0.00    +0.006 A 
ATOM     36  C   UNL     1       5.736  -2.932  22.327  0.00  0.00    +0.040 A 
ATOM     37  C   UNL     1       6.498  -2.794  23.488  0.00  0.00    +0.153 A 
ATOM     38  F   UNL     1       6.338  -1.686  24.227  0.00  0.00    -0.203 F 
ENDBRANCH  28  31
ENDBRANCH  26  28
ENDBRANCH   5  26
TORSDOF 6
ENDMDL
MODEL 3
REMARK VINA RESULT:      -8.2      5.365     10.584
REMARK  Name = 
REMARK  9 active torsions:
REMARK  status: ('A' for Active; 'I' for Inactive)
REMARK    1  A    between atoms: C_1  and  C_2
REMARK    2  A    between atoms: C_2  and  C_3
REMARK    3  A    between atoms: C_2  and  C_4
REMARK    4  A    between atoms: C_2  and  C_5
REMARK    5  A    between atoms: C_7  and  C_17
REMARK    6  A    between atoms: C_8  and  C_10
REMARK    7  A    between atoms: C_20  and  N_21
REMARK    8  A    between atoms: N_21  and  S_22
REMARK    9  A    between atoms: S_22  and  C_25
REMARK                            x       y       z     vdW  Elec       q    Type
REMARK                         _______ _______ _______ _____ _____    ______ ____
ROOT
ATOM      1  C   UNL     1       8.972   2.690  23.337  0.00  0.00    +0.039 A 
ATOM      2  C   UNL     1       9.564   2.176  22.168  0.00  0.00    +0.013 A 
ATOM      3  C   UNL     1      10.126   0.896  22.125  0.00  0.00    +0.003 A 
ATOM      4  C   UNL     1      10.143   0.097  23.263  0.00  0.00    +0.027 A 
ATOM      5  C   UNL     1       9.569   0.577  24.440  0.00  0.00    +0.084 A 
ATOM      6  C   UNL     1       8.996   1.860  24.475  0.00  0.00    +0.155 A 
ATOM      7  F   UNL     1       8.432   2.264  25.628  0.00  0.00    -0.203 F 
ENDROOT
BRANCH   1  11
ATOM      8  C   UNL     1       6.579   5.430  23.117  0.00  0.00    +0.085 A 
ATOM      9  S   UNL     1       7.853   6.518  23.453  0.00  0.00    -0.069 S 
ATOM     10  C   UNL     1       8.947   5.222  23.737  0.00  0.00    +0.065 A 
ATOM     11  C   UNL     1       8.331   4.023  23.375  0.00  0.00    +0.090 A 
ATOM     12  N   UNL     1       6.955   4.164  23.068  0.00  0.00    -0.243 NA
BRANCH  10  13
ATOM     13  C   UNL     1      10.274   5.639  24.199  0.00  0.00    +0.085 A 
ATOM     14  C   UNL     1      10.421   6.569  25.221  0.00  0.00    +0.049 A 
ATOM     15  C   UNL     1      11.691   7.025  25.444  0.00  0.00    +0.116 A 
ATOM     16  N   UNL     1      12.751   6.577  24.754  0.00  0.00    -0.223 NA
ATOM     17  C   UNL     1      12.516   5.645  23.828  0.00  0.00    +0.213 A 
ATOM     18  N   UNL     1      13.598   5.201  23.099  0.00  0.00    -0.327 N 
ATOM     19  H   UNL     1      14.310   5.919  23.102  0.00  0.00    +0.145 HD
ATOM     20  H   UNL     1      13.279   4.872  22.198  0.00  0.00    +0.145 HD
ATOM     21  N   UNL     1      11.315   5.164  23.500  0.00  0.00    -0.214 NA
ENDBRANCH  10  13
BRANCH   8  23
ATOM     22  C   UNL     1       5.147   7.106  21.847  0.00  0.00    +0.017 C 
ATOM     23  C   UNL     1       5.175   6.020  22.933  0.00  0.00    +0.011 C 
ATOM     24  C   UNL     1       4.188   4.902  22.520  0.00  0.00    +0.017 C 
ATOM     25  C   UNL     1       4.668   6.651  24.253  0.00  0.00    +0.017 C 
ENDBRANCH   8  23
ENDBRANCH   1  11
BRANCH   5  26
ATOM     26  N   UNL     1       9.572  -0.275  25.591  0.00  0.00    -0.213 N 
ATOM     27  H   UNL     1      10.440  -0.777  25.788  0.00  0.00    +0.174 HD
BRANCH  26  28
ATOM     28  S   UNL     1       8.208  -1.216  25.930  0.00  0.00    +0.078 S 
ATOM     29  O   UNL     1       7.162  -0.332  26.401  0.00  0.00    -0.150 OA
ATOM     30  O   UNL     1       8.666  -2.312  26.759  0.00  0.00    -0.150 OA
BRANCH  28  31
ATOM     31  C   UNL     1       7.729  -1.935  24.407  0.00  0.00    +0.178 A 
ATOM     32  C   UNL     1       6.570  -1.540  23.757  0.00  0.00    +0.153 A 
ATOM     33  F   UNL     1       5.850  -0.490  24.168  0.00  0.00    -0.203 F 
ATOM     34  C   UNL     1       6.087  -2.267  22.666  0.00  0.00    +0.040 A 
ATOM     35  C   UNL     1       6.773  -3.396  22.219  0.00  0.00    +0.006 A 
ATOM     36  C   UNL     1       7.955  -3.779  22.852  0.00  0.00    +0.040 A 
ATOM     37  C   UNL     1       8.422  -3.048  23.946  0.00  0.00    +0.153 A 
ATOM     38  F   UNL     1       9.542  -3.463  24.556  0.00  0.00    -0.203 F 
ENDBRANCH  28  31
ENDBRANCH  26  28
ENDBRANCH   5  26
TORSDOF 6
ENDMDL
MODEL 4
REMARK VINA RESULT:      -8.2      2.723      3.849
REMARK  Name = 
REMARK  9 active torsions:
REMARK  status: ('A' for Active; 'I' for Inactive)
REMARK    1  A    between atoms: C_1  and  C_2
REMARK    2  A    between atoms: C_2  and  C_3
REMARK    3  A    between atoms: C_2  and  C_4
REMARK    4  A    between atoms: C_2  and  C_5
REMARK    5  A    between atoms: C_7  and  C_17
REMARK    6  A    between atoms: C_8  and  C_10
REMARK    7  A    between atoms: C_20  and  N_21
REMARK    8  A    between atoms: N_21  and  S_22
REMARK    9  A    between atoms: S_22  and  C_25
REMARK                            x       y       z     vdW  Elec       q    Type
REMARK                         _______ _______ _______ _____ _____    ______ ____
ROOT
ATOM      1  C   UNL     1       6.512  -1.711  26.461  0.00  0.00    +0.039 A 
ATOM      2  C   UNL     1       5.588  -0.650  26.460  0.00  0.00    +0.013 A 
ATOM      3  C   UNL     1       5.984   0.676  26.255  0.00  0.00    +0.003 A 
ATOM      4  C   UNL     1       7.326   0.989  26.077  0.00  0.00    +0.027 A 
ATOM      5  C   UNL     1       8.271  -0.037  26.079  0.00  0.00    +0.084 A 
ATOM      6  C   UNL     1       7.866  -1.369  26.273  0.00  0.00    +0.155 A 
ATOM      7  F   UNL     1       8.814  -2.324  26.239  0.00  0.00    -0.203 F 
ENDROOT
BRANCH   1  11
ATOM      8  C   UNL     1       5.513  -4.922  27.863  0.00  0.00    +0.085 A 
ATOM      9  S   UNL     1       5.585  -5.588  26.291  0.00  0.00    -0.069 S 
ATOM     10  C   UNL     1       5.880  -4.041  25.600  0.00  0.00    +0.065 A 
ATOM     11  C   UNL     1       6.095  -3.120  26.626  0.00  0.00    +0.090 A 
ATOM     12  N   UNL     1       5.831  -3.641  27.918  0.00  0.00    -0.243 NA
BRANCH  10  13
ATOM     13  C   UNL     1       5.925  -4.031  24.135  0.00  0.00    +0.085 A 
ATOM     14  C   UNL     1       5.770  -2.851  23.418  0.00  0.00    +0.049 A 
ATOM     15  C   UNL     1       5.641  -2.980  22.062  0.00  0.00    +0.116 A 
ATOM     16  N   UNL     1       5.704  -4.168  21.441  0.00  0.00    -0.223 NA
ATOM     17  C   UNL     1       5.908  -5.239  22.210  0.00  0.00    +0.213 A 
ATOM     18  N   UNL     1       5.946  -6.464  21.580  0.00  0.00    -0.327 N 
ATOM     19  H   UNL     1       5.428  -6.402  20.714  0.00  0.00    +0.145 HD
ATOM     20  H   UNL     1       5.667  -7.183  22.233  0.00  0.00    +0.145 HD
ATOM     21  N   UNL     1       6.003  -5.231  23.542  0.00  0.00    -0.214 NA
ENDBRANCH  10  13
BRANCH   8  23
ATOM     22  C   UNL     1       3.928  -6.776  28.585  0.00  0.00    +0.017 C 
ATOM     23  C   UNL     1       5.079  -5.851  29.005  0.00  0.00    +0.011 C 
ATOM     24  C   UNL     1       6.272  -6.736  29.441  0.00  0.00    +0.017 C 
ATOM     25  C   UNL     1       4.610  -5.031  30.231  0.00  0.00    +0.017 C 
ENDBRANCH   8  23
ENDBRANCH   1  11
BRANCH   5  26
ATOM     26  N   UNL     1       9.644   0.306  25.865  0.00  0.00    -0.213 N 
ATOM     27  H   UNL     1      10.016   1.079  26.420  0.00  0.00    +0.174 HD
BRANCH  26  28
ATOM     28  S   UNL     1      10.263   0.307  24.290  0.00  0.00    +0.078 S 
ATOM     29  O   UNL     1      10.212  -1.051  23.790  0.00  0.00    -0.150 OA
ATOM     30  O   UNL     1      11.525   1.017  24.350  0.00  0.00    -0.150 OA
BRANCH  28  31
ATOM     31  C   UNL     1       9.188   1.321  23.351  0.00  0.00    +0.178 A 
ATOM     32  C   UNL     1       9.218   2.702  23.465  0.00  0.00    +0.153 A 
ATOM     33  F   UNL     1      10.165   3.335  24.166  0.00  0.00    -0.203 F 
ATOM     34  C   UNL     1       8.216   3.483  22.883  0.00  0.00    +0.040 A 
ATOM     35  C   UNL     1       7.178   2.876  22.175  0.00  0.00    +0.006 A 
ATOM     36  C   UNL     1       7.163   1.489  22.033  0.00  0.00    +0.040 A 
ATOM     37  C   UNL     1       8.165   0.720  22.628  0.00  0.00    +0.153 A 
ATOM     38  F   UNL     1       8.101  -0.614  22.504  0.00  0.00    -0.203 F 
ENDBRANCH  28  31
ENDBRANCH  26  28
ENDBRANCH   5  26
TORSDOF 6
ENDMDL
MODEL 5
REMARK VINA RESULT:      -8.1      5.081     10.715
REMARK  Name = 
REMARK  9 active torsions:
REMARK  status: ('A' for Active; 'I' for Inactive)
REMARK    1  A    between atoms: C_1  and  C_2
REMARK    2  A    between atoms: C_2  and  C_3
REMARK    3  A    between atoms: C_2  and  C_4
REMARK    4  A    between atoms: C_2  and  C_5
REMARK    5  A    between atoms: C_7  and  C_17
REMARK    6  A    between atoms: C_8  and  C_10
REMARK    7  A    between atoms: C_20  and  N_21
REMARK    8  A    between atoms: N_21  and  S_22
REMARK    9  A    between atoms: S_22  and  C_25
REMARK                            x       y       z     vdW  Elec       q    Type
REMARK                         _______ _______ _______ _____ _____    ______ ____
ROOT
ATOM      1  C   UNL     1       8.912   2.696  23.175  0.00  0.00    +0.039 A 
ATOM      2  C   UNL     1       9.548   2.272  21.993  0.00  0.00    +0.013 A 
ATOM      3  C   UNL     1      10.120   1.001  21.876  0.00  0.00    +0.003 A 
ATOM      4  C   UNL     1      10.102   0.120  22.951  0.00  0.00    +0.027 A 
ATOM      5  C   UNL     1       9.485   0.510  24.140  0.00  0.00    +0.084 A 
ATOM      6  C   UNL     1       8.903   1.784  24.249  0.00  0.00    +0.155 A 
ATOM      7  F   UNL     1       8.297   2.100  25.409  0.00  0.00    -0.203 F 
ENDROOT
BRANCH   1  11
ATOM      8  C   UNL     1       6.497   5.424  23.121  0.00  0.00    +0.085 A 
ATOM      9  S   UNL     1       7.765   6.503  23.504  0.00  0.00    -0.069 S 
ATOM     10  C   UNL     1       8.872   5.203  23.709  0.00  0.00    +0.065 A 
ATOM     11  C   UNL     1       8.262   4.019  23.290  0.00  0.00    +0.090 A 
ATOM     12  N   UNL     1       6.881   4.166  23.003  0.00  0.00    -0.243 NA
BRANCH  10  13
ATOM     13  C   UNL     1      10.200   5.606  24.181  0.00  0.00    +0.085 A 
ATOM     14  C   UNL     1      10.349   6.538  25.200  0.00  0.00    +0.049 A 
ATOM     15  C   UNL     1      11.623   6.980  25.432  0.00  0.00    +0.116 A 
ATOM     16  N   UNL     1      12.683   6.516  24.753  0.00  0.00    -0.223 NA
ATOM     17  C   UNL     1      12.444   5.584  23.829  0.00  0.00    +0.213 A 
ATOM     18  N   UNL     1      13.527   5.124  23.111  0.00  0.00    -0.327 N 
ATOM     19  H   UNL     1      14.248   5.832  23.117  0.00  0.00    +0.145 HD
ATOM     20  H   UNL     1      13.212   4.795  22.209  0.00  0.00    +0.145 HD
ATOM     21  N   UNL     1      11.241   5.115  23.493  0.00  0.00    -0.214 NA
ENDBRANCH  10  13
BRANCH   8  23
ATOM     22  C   UNL     1       4.053   4.938  22.607  0.00  0.00    +0.017 C 
ATOM     23  C   UNL     1       5.086   6.011  22.982  0.00  0.00    +0.011 C 
ATOM     24  C   UNL     1       4.651   6.650  24.323  0.00  0.00    +0.017 C 
ATOM     25  C   UNL     1       5.054   7.108  21.889  0.00  0.00    +0.017 C 
ENDBRANCH   8  23
ENDBRANCH   1  11
BRANCH   5  26
ATOM     26  N   UNL     1       9.455  -0.425  25.225  0.00  0.00    -0.213 N 
ATOM     27  H   UNL     1      10.234  -1.083  25.285  0.00  0.00    +0.174 HD
BRANCH  26  28
ATOM     28  S   UNL     1       7.986  -1.144  25.659  0.00  0.00    +0.078 S 
ATOM     29  O   UNL     1       7.045  -0.922  24.580  0.00  0.00    -0.150 OA
ATOM     30  O   UNL     1       7.686  -0.680  26.998  0.00  0.00    -0.150 OA
BRANCH  28  31
ATOM     31  C   UNL     1       8.316  -2.857  25.808  0.00  0.00    +0.178 A 
ATOM     32  C   UNL     1       9.290  -3.473  25.038  0.00  0.00    +0.153 A 
ATOM     33  F   UNL     1      10.131  -2.774  24.267  0.00  0.00    -0.203 F 
ATOM     34  C   UNL     1       9.392  -4.866  25.007  0.00  0.00    +0.040 A 
ATOM     35  C   UNL     1       8.515  -5.650  25.757  0.00  0.00    +0.006 A 
ATOM     36  C   UNL     1       7.554  -5.032  26.556  0.00  0.00    +0.040 A 
ATOM     37  C   UNL     1       7.457  -3.639  26.571  0.00  0.00    +0.153 A 
ATOM     38  F   UNL     1       6.498  -3.077  27.321  0.00  0.00    -0.203 F 
ENDBRANCH  28  31
ENDBRANCH  26  28
ENDBRANCH   5  26
TORSDOF 6
ENDMDL
MODEL 6
REMARK VINA RESULT:      -7.9      2.884      4.552
REMARK  Name = 
REMARK  9 active torsions:
REMARK  status: ('A' for Active; 'I' for Inactive)
REMARK    1  A    between atoms: C_1  and  C_2
REMARK    2  A    between atoms: C_2  and  C_3
REMARK    3  A    between atoms: C_2  and  C_4
REMARK    4  A    between atoms: C_2  and  C_5
REMARK    5  A    between atoms: C_7  and  C_17
REMARK    6  A    between atoms: C_8  and  C_10
REMARK    7  A    between atoms: C_20  and  N_21
REMARK    8  A    between atoms: N_21  and  S_22
REMARK    9  A    between atoms: S_22  and  C_25
REMARK                            x       y       z     vdW  Elec       q    Type
REMARK                         _______ _______ _______ _____ _____    ______ ____
ROOT
ATOM      1  C   UNL     1       4.669  -2.679  25.028  0.00  0.00    +0.039 A 
ATOM      2  C   UNL     1       4.244  -3.779  24.259  0.00  0.00    +0.013 A 
ATOM      3  C   UNL     1       4.790  -4.057  23.001  0.00  0.00    +0.003 A 
ATOM      4  C   UNL     1       5.759  -3.222  22.455  0.00  0.00    +0.027 A 
ATOM      5  C   UNL     1       6.199  -2.120  23.188  0.00  0.00    +0.084 A 
ATOM      6  C   UNL     1       5.655  -1.852  24.456  0.00  0.00    +0.155 A 
ATOM      7  F   UNL     1       6.133  -0.791  25.132  0.00  0.00    -0.203 F 
ENDROOT
BRANCH   1  11
ATOM      8  C   UNL     1       2.888  -1.237  27.861  0.00  0.00    +0.085 A 
ATOM      9  S   UNL     1       3.698  -2.341  28.883  0.00  0.00    -0.069 S 
ATOM     10  C   UNL     1       4.403  -3.143  27.535  0.00  0.00    +0.065 A 
ATOM     11  C   UNL     1       4.132  -2.409  26.379  0.00  0.00    +0.090 A 
ATOM     12  N   UNL     1       3.219  -1.344  26.586  0.00  0.00    -0.243 NA
BRANCH  10  13
ATOM     13  C   UNL     1       5.181  -4.337  27.879  0.00  0.00    +0.085 A 
ATOM     14  C   UNL     1       4.832  -5.137  28.960  0.00  0.00    +0.049 A 
ATOM     15  C   UNL     1       5.728  -6.112  29.304  0.00  0.00    +0.116 A 
ATOM     16  N   UNL     1       6.862  -6.324  28.619  0.00  0.00    -0.223 NA
ATOM     17  C   UNL     1       7.084  -5.538  27.564  0.00  0.00    +0.213 A 
ATOM     18  N   UNL     1       8.260  -5.734  26.873  0.00  0.00    -0.327 N 
ATOM     19  H   UNL     1       8.936  -6.158  27.494  0.00  0.00    +0.145 HD
ATOM     20  H   UNL     1       8.529  -4.872  26.420  0.00  0.00    +0.145 HD
ATOM     21  N   UNL     1       6.301  -4.532  27.168  0.00  0.00    -0.214 NA
ENDBRANCH  10  13
BRANCH   8  23
ATOM     22  C   UNL     1       0.595  -1.011  28.939  0.00  0.00    +0.017 C 
ATOM     23  C   UNL     1       1.877  -0.283  28.510  0.00  0.00    +0.011 C 
ATOM     24  C   UNL     1       2.504   0.365  29.768  0.00  0.00    +0.017 C 
ATOM     25  C   UNL     1       1.480   0.847  27.529  0.00  0.00    +0.017 C 
ENDBRANCH   8  23
ENDBRANCH   1  11
BRANCH   5  26
ATOM     26  N   UNL     1       7.218  -1.291  22.618  0.00  0.00    -0.213 N 
ATOM     27  H   UNL     1       7.080  -0.993  21.651  0.00  0.00    +0.174 HD
BRANCH  26  28
ATOM     28  S   UNL     1       8.843  -1.629  22.947  0.00  0.00    +0.078 S 
ATOM     29  O   UNL     1       9.377  -2.379  21.828  0.00  0.00    -0.150 OA
ATOM     30  O   UNL     1       8.880  -2.186  24.284  0.00  0.00    -0.150 OA
BRANCH  28  31
ATOM     31  C   UNL     1       9.646  -0.077  23.051  0.00  0.00    +0.178 A 
ATOM     32  C   UNL     1      10.119   0.409  24.261  0.00  0.00    +0.153 A 
ATOM     33  F   UNL     1      10.133  -0.340  25.369  0.00  0.00    -0.203 F 
ATOM     34  C   UNL     1      10.555   1.732  24.369  0.00  0.00    +0.040 A 
ATOM     35  C   UNL     1      10.525   2.573  23.257  0.00  0.00    +0.006 A 
ATOM     36  C   UNL     1      10.078   2.078  22.033  0.00  0.00    +0.040 A 
ATOM     37  C   UNL     1       9.636   0.757  21.940  0.00  0.00    +0.153 A 
ATOM     38  F   UNL     1       9.178   0.321  20.757  0.00  0.00    -0.203 F 
ENDBRANCH  28  31
ENDBRANCH  26  28
ENDBRANCH   5  26
TORSDOF 6
ENDMDL
MODEL 7
REMARK VINA RESULT:      -7.9      3.740      8.116
REMARK  Name = 
REMARK  9 active torsions:
REMARK  status: ('A' for Active; 'I' for Inactive)
REMARK    1  A    between atoms: C_1  and  C_2
REMARK    2  A    between atoms: C_2  and  C_3
REMARK    3  A    between atoms: C_2  and  C_4
REMARK    4  A    between atoms: C_2  and  C_5
REMARK    5  A    between atoms: C_7  and  C_17
REMARK    6  A    between atoms: C_8  and  C_10
REMARK    7  A    between atoms: C_20  and  N_21
REMARK    8  A    between atoms: N_21  and  S_22
REMARK    9  A    between atoms: S_22  and  C_25
REMARK                            x       y       z     vdW  Elec       q    Type
REMARK                         _______ _______ _______ _____ _____    ______ ____
ROOT
ATOM      1  C   UNL     1       5.119  -0.414  26.005  0.00  0.00    +0.039 A 
ATOM      2  C   UNL     1       4.931  -0.143  27.373  0.00  0.00    +0.013 A 
ATOM      3  C   UNL     1       4.708  -1.162  28.305  0.00  0.00    +0.003 A 
ATOM      4  C   UNL     1       4.634  -2.487  27.893  0.00  0.00    +0.027 A 
ATOM      5  C   UNL     1       4.810  -2.792  26.543  0.00  0.00    +0.084 A 
ATOM      6  C   UNL     1       5.044  -1.765  25.613  0.00  0.00    +0.155 A 
ATOM      7  F   UNL     1       5.234  -2.115  24.327  0.00  0.00    -0.203 F 
ENDROOT
BRANCH   1  11
ATOM      8  C   UNL     1       4.893   2.539  23.882  0.00  0.00    +0.085 A 
ATOM      9  S   UNL     1       6.353   2.064  23.132  0.00  0.00    -0.069 S 
ATOM     10  C   UNL     1       6.561   0.772  24.247  0.00  0.00    +0.065 A 
ATOM     11  C   UNL     1       5.405   0.654  25.022  0.00  0.00    +0.090 A 
ATOM     12  N   UNL     1       4.482   1.711  24.825  0.00  0.00    -0.243 NA
BRANCH  10  13
ATOM     13  C   UNL     1       7.822   0.041  24.101  0.00  0.00    +0.085 A 
ATOM     14  C   UNL     1       8.725  -0.055  25.151  0.00  0.00    +0.049 A 
ATOM     15  C   UNL     1       9.946  -0.594  24.852  0.00  0.00    +0.116 A 
ATOM     16  N   UNL     1      10.253  -1.051  23.628  0.00  0.00    -0.223 NA
ATOM     17  C   UNL     1       9.300  -0.963  22.697  0.00  0.00    +0.213 A 
ATOM     18  N   UNL     1       9.620  -1.406  21.432  0.00  0.00    -0.327 N 
ATOM     19  H   UNL     1      10.622  -1.355  21.311  0.00  0.00    +0.145 HD
ATOM     20  H   UNL     1       9.050  -0.918  20.755  0.00  0.00    +0.145 HD
ATOM     21  N   UNL     1       8.095  -0.417  22.870  0.00  0.00    -0.214 NA
ENDBRANCH  10  13
BRANCH   8  23
ATOM     22  C   UNL     1       3.466   4.542  24.534  0.00  0.00    +0.017 C 
ATOM     23  C   UNL     1       4.248   3.848  23.408  0.00  0.00    +0.011 C 
ATOM     24  C   UNL     1       5.344   4.822  22.914  0.00  0.00    +0.017 C 
ATOM     25  C   UNL     1       3.269   3.585  22.238  0.00  0.00    +0.017 C 
ENDBRANCH   8  23
ENDBRANCH   1  11
BRANCH   5  26
ATOM     26  N   UNL     1       4.758  -4.166  26.147  0.00  0.00    -0.213 N 
ATOM     27  H   UNL     1       4.015  -4.735  26.558  0.00  0.00    +0.174 HD
BRANCH  26  28
ATOM     28  S   UNL     1       6.198  -5.037  25.981  0.00  0.00    +0.078 S 
ATOM     29  O   UNL     1       5.996  -6.348  26.562  0.00  0.00    -0.150 OA
ATOM     30  O   UNL     1       7.254  -4.175  26.471  0.00  0.00    -0.150 OA
BRANCH  28  31
ATOM     31  C   UNL     1       6.470  -5.194  24.258  0.00  0.00    +0.178 A 
ATOM     32  C   UNL     1       7.415  -4.419  23.604  0.00  0.00    +0.153 A 
ATOM     33  F   UNL     1       8.273  -3.636  24.269  0.00  0.00    -0.203 F 
ATOM     34  C   UNL     1       7.468  -4.395  22.208  0.00  0.00    +0.040 A 
ATOM     35  C   UNL     1       6.572  -5.158  21.460  0.00  0.00    +0.006 A 
ATOM     36  C   UNL     1       5.640  -5.962  22.115  0.00  0.00    +0.040 A 
ATOM     37  C   UNL     1       5.592  -5.969  23.510  0.00  0.00    +0.153 A 
ATOM     38  F   UNL     1       4.660  -6.725  24.110  0.00  0.00    -0.203 F 
ENDBRANCH  28  31
ENDBRANCH  26  28
ENDBRANCH   5  26
TORSDOF 6
ENDMDL
MODEL 8
REMARK VINA RESULT:      -7.9      4.401      8.700
REMARK  Name = 
REMARK  9 active torsions:
REMARK  status: ('A' for Active; 'I' for Inactive)
REMARK    1  A    between atoms: C_1  and  C_2
REMARK    2  A    between atoms: C_2  and  C_3
REMARK    3  A    between atoms: C_2  and  C_4
REMARK    4  A    between atoms: C_2  and  C_5
REMARK    5  A    between atoms: C_7  and  C_17
REMARK    6  A    between atoms: C_8  and  C_10
REMARK    7  A    between atoms: C_20  and  N_21
REMARK    8  A    between atoms: N_21  and  S_22
REMARK    9  A    between atoms: S_22  and  C_25
REMARK                            x       y       z     vdW  Elec       q    Type
REMARK                         _______ _______ _______ _____ _____    ______ ____
ROOT
ATOM      1  C   UNL     1       9.195   0.937  23.397  0.00  0.00    +0.039 A 
ATOM      2  C   UNL     1       9.269   0.791  21.999  0.00  0.00    +0.013 A 
ATOM      3  C   UNL     1       9.464  -0.455  21.395  0.00  0.00    +0.003 A 
ATOM      4  C   UNL     1       9.623  -1.596  22.173  0.00  0.00    +0.027 A 
ATOM      5  C   UNL     1       9.561  -1.487  23.563  0.00  0.00    +0.084 A 
ATOM      6  C   UNL     1       9.354  -0.234  24.164  0.00  0.00    +0.155 A 
ATOM      7  F   UNL     1       9.275  -0.188  25.506  0.00  0.00    -0.203 F 
ENDROOT
BRANCH   1  11
ATOM      8  C   UNL     1       9.370   4.435  24.404  0.00  0.00    +0.085 A 
ATOM      9  S   UNL     1       8.154   4.123  25.562  0.00  0.00    -0.069 S 
ATOM     10  C   UNL     1       7.938   2.522  24.973  0.00  0.00    +0.065 A 
ATOM     11  C   UNL     1       8.939   2.244  24.041  0.00  0.00    +0.090 A 
ATOM     12  N   UNL     1       9.720   3.376  23.696  0.00  0.00    -0.243 NA
BRANCH  10  13
ATOM     13  C   UNL     1       6.842   1.784  25.608  0.00  0.00    +0.085 A 
ATOM     14  C   UNL     1       5.690   1.459  24.905  0.00  0.00    +0.049 A 
ATOM     15  C   UNL     1       4.660   0.939  25.640  0.00  0.00    +0.116 A 
ATOM     16  N   UNL     1       4.758   0.710  26.958  0.00  0.00    -0.223 NA
ATOM     17  C   UNL     1       5.924   1.006  27.536  0.00  0.00    +0.213 A 
ATOM     18  N   UNL     1       6.020   0.797  28.894  0.00  0.00    -0.327 N 
ATOM     19  H   UNL     1       5.093   0.832  29.297  0.00  0.00    +0.145 HD
ATOM     20  H   UNL     1       6.712   1.425  29.279  0.00  0.00    +0.145 HD
ATOM     21  N   UNL     1       6.975   1.556  26.923  0.00  0.00    -0.214 NA
ENDBRANCH  10  13
BRANCH   8  23
ATOM     22  C   UNL     1      11.341   5.920  23.785  0.00  0.00    +0.017 C 
ATOM     23  C   UNL     1       9.894   5.874  24.299  0.00  0.00    +0.011 C 
ATOM     24  C   UNL     1       9.010   6.682  23.319  0.00  0.00    +0.017 C 
ATOM     25  C   UNL     1       9.854   6.574  25.679  0.00  0.00    +0.017 C 
ENDBRANCH   8  23
ENDBRANCH   1  11
BRANCH   5  26
ATOM     26  N   UNL     1       9.698  -2.680  24.342  0.00  0.00    -0.213 N 
ATOM     27  H   UNL     1      10.642  -3.061  24.435  0.00  0.00    +0.174 HD
BRANCH  26  28
ATOM     28  S   UNL     1       8.537  -3.902  24.202  0.00  0.00    +0.078 S 
ATOM     29  O   UNL     1       9.220  -5.177  24.274  0.00  0.00    -0.150 OA
ATOM     30  O   UNL     1       7.732  -3.568  23.045  0.00  0.00    -0.150 OA
BRANCH  28  31
ATOM     31  C   UNL     1       7.481  -3.722  25.587  0.00  0.00    +0.178 A 
ATOM     32  C   UNL     1       7.422  -4.690  26.579  0.00  0.00    +0.153 A 
ATOM     33  F   UNL     1       8.275  -5.720  26.615  0.00  0.00    -0.203 F 
ATOM     34  C   UNL     1       6.425  -4.642  27.556  0.00  0.00    +0.040 A 
ATOM     35  C   UNL     1       5.482  -3.614  27.545  0.00  0.00    +0.006 A 
ATOM     36  C   UNL     1       5.557  -2.624  26.567  0.00  0.00    +0.040 A 
ATOM     37  C   UNL     1       6.552  -2.688  25.591  0.00  0.00    +0.153 A 
ATOM     38  F   UNL     1       6.575  -1.740  24.642  0.00  0.00    -0.203 F 
ENDBRANCH  28  31
ENDBRANCH  26  28
ENDBRANCH   5  26
TORSDOF 6
ENDMDL
MODEL 9
REMARK VINA RESULT:      -7.9      3.807      7.477
REMARK  Name = 
REMARK  9 active torsions:
REMARK  status: ('A' for Active; 'I' for Inactive)
REMARK    1  A    between atoms: C_1  and  C_2
REMARK    2  A    between atoms: C_2  and  C_3
REMARK    3  A    between atoms: C_2  and  C_4
REMARK    4  A    between atoms: C_2  and  C_5
REMARK    5  A    between atoms: C_7  and  C_17
REMARK    6  A    between atoms: C_8  and  C_10
REMARK    7  A    between atoms: C_20  and  N_21
REMARK    8  A    between atoms: N_21  and  S_22
REMARK    9  A    between atoms: S_22  and  C_25
REMARK                            x       y       z     vdW  Elec       q    Type
REMARK                         _______ _______ _______ _____ _____    ______ ____
ROOT
ATOM      1  C   UNL     1       7.847  -2.712  25.777  0.00  0.00    +0.039 A 
ATOM      2  C   UNL     1       9.041  -3.248  25.260  0.00  0.00    +0.013 A 
ATOM      3  C   UNL     1       9.187  -4.615  25.001  0.00  0.00    +0.003 A 
ATOM      4  C   UNL     1       8.150  -5.498  25.281  0.00  0.00    +0.027 A 
ATOM      5  C   UNL     1       6.954  -5.001  25.800  0.00  0.00    +0.084 A 
ATOM      6  C   UNL     1       6.810  -3.626  26.048  0.00  0.00    +0.155 A 
ATOM      7  F   UNL     1       5.626  -3.196  26.524  0.00  0.00    -0.203 F 
ENDROOT
BRANCH   1  11
ATOM      8  C   UNL     1       7.107   0.529  27.270  0.00  0.00    +0.085 A 
ATOM      9  S   UNL     1       7.392   1.252  25.748  0.00  0.00    -0.069 S 
ATOM     10  C   UNL     1       7.917  -0.245  25.083  0.00  0.00    +0.065 A 
ATOM     11  C   UNL     1       7.668  -1.262  26.007  0.00  0.00    +0.090 A 
ATOM     12  N   UNL     1       7.248  -0.785  27.274  0.00  0.00    -0.243 NA
BRANCH  10  13
ATOM     13  C   UNL     1       8.416  -0.156  23.708  0.00  0.00    +0.085 A 
ATOM     14  C   UNL     1       8.435  -1.267  22.876  0.00  0.00    +0.049 A 
ATOM     15  C   UNL     1       9.091  -1.120  21.685  0.00  0.00    +0.116 A 
ATOM     16  N   UNL     1       9.651   0.040  21.308  0.00  0.00    -0.223 NA
ATOM     17  C   UNL     1       9.535   1.066  22.153  0.00  0.00    +0.213 A 
ATOM     18  N   UNL     1      10.131   2.252  21.783  0.00  0.00    -0.327 N 
ATOM     19  H   UNL     1      10.883   2.052  21.137  0.00  0.00    +0.145 HD
ATOM     20  H   UNL     1      10.365   2.780  22.612  0.00  0.00    +0.145 HD
ATOM     21  N   UNL     1       8.957   1.020  23.355  0.00  0.00    -0.214 NA
ENDBRANCH  10  13
BRANCH   8  23
ATOM     22  C   UNL     1       6.877   2.939  28.052  0.00  0.00    +0.017 C 
ATOM     23  C   UNL     1       6.749   1.458  28.438  0.00  0.00    +0.011 C 
ATOM     24  C   UNL     1       5.289   1.201  28.881  0.00  0.00    +0.017 C 
ATOM     25  C   UNL     1       7.677   1.198  29.650  0.00  0.00    +0.017 C 
ENDBRANCH   8  23
ENDBRANCH   1  11
BRANCH   5  26
ATOM     26  N   UNL     1       5.891  -5.926  26.053  0.00  0.00    -0.213 N 
ATOM     27  H   UNL     1       6.159  -6.849  26.400  0.00  0.00    +0.174 HD
BRANCH  26  28
ATOM     28  S   UNL     1       4.590  -6.011  24.975  0.00  0.00    +0.078 S 
ATOM     29  O   UNL     1       3.491  -5.258  25.543  0.00  0.00    -0.150 OA
ATOM     30  O   UNL     1       4.424  -7.412  24.647  0.00  0.00    -0.150 OA
BRANCH  28  31
ATOM     31  C   UNL     1       5.135  -5.235  23.502  0.00  0.00    +0.178 A 
ATOM     32  C   UNL     1       5.984  -5.884  22.619  0.00  0.00    +0.153 A 
ATOM     33  F   UNL     1       6.300  -7.176  22.759  0.00  0.00    -0.203 F 
ATOM     34  C   UNL     1       6.583  -5.183  21.569  0.00  0.00    +0.040 A 
ATOM     35  C   UNL     1       6.324  -3.823  21.398  0.00  0.00    +0.006 A 
ATOM     36  C   UNL     1       5.447  -3.175  22.267  0.00  0.00    +0.040 A 
ATOM     37  C   UNL     1       4.863  -3.886  23.317  0.00  0.00    +0.153 A 
ATOM     38  F   UNL     1       4.052  -3.226  24.158  0.00  0.00    -0.203 F 
ENDBRANCH  28  31
ENDBRANCH  26  28
ENDBRANCH   5  26
TORSDOF 6
ENDMDL
