MODEL 1
REMARK VINA RESULT:      -3.9      0.000      0.000
REMARK  Name = 
REMARK  4 active torsions:
REMARK  status: ('A' for Active; 'I' for Inactive)
REMARK    1  A    between atoms: C_1  and  C_2
REMARK    2  A    between atoms: C_3  and  C_4
REMARK    3  A    between atoms: C_4  and  C_5
REMARK    4  A    between atoms: C_5  and  O_6
REMARK                            x       y       z     vdW  Elec       q    Type
REMARK                         _______ _______ _______ _____ _____    ______ ____
ROOT
ATOM      1  C   UNL     1      10.562   0.317  24.803  0.00  0.00    +0.066 C 
ATOM      2  C   UNL     1       9.662  -0.735  24.255  0.00  0.00    +0.049 A 
ATOM      3  N   UNL     1       9.066  -1.599  25.160  0.00  0.00    -0.252 NA
ATOM      4  C   UNL     1       8.317  -2.468  24.520  0.00  0.00    +0.156 A 
ATOM      5  S   UNL     1       8.257  -2.302  22.819  0.00  0.00    -0.080 S 
ATOM      6  C   UNL     1       9.331  -0.963  22.927  0.00  0.00    +0.014 A 
ENDROOT
BRANCH   6   7
ATOM      7  C   UNL     1       9.774  -0.237  21.691  0.00  0.00    +0.072 C 
BRANCH   7   8
ATOM      8  C   UNL     1       9.074   1.111  21.524  0.00  0.00    +0.161 C 
BRANCH   8   9
ATOM      9  O   UNL     1      10.000   2.193  21.553  0.00  0.00    -0.395 OA
ATOM     10  H   UNL     1       9.869   2.658  22.399  0.00  0.00    +0.209 HD
ENDBRANCH   8   9
ENDBRANCH   7   8
ENDBRANCH   6   7
TORSDOF 3
ENDMDL
MODEL 2
REMARK VINA RESULT:      -3.8      4.332      5.819
REMARK  Name = 
REMARK  4 active torsions:
REMARK  status: ('A' for Active; 'I' for Inactive)
REMARK    1  A    between atoms: C_1  and  C_2
REMARK    2  A    between atoms: C_3  and  C_4
REMARK    3  A    between atoms: C_4  and  C_5
REMARK    4  A    between atoms: C_5  and  O_6
REMARK                            x       y       z     vdW  Elec       q    Type
REMARK                         _______ _______ _______ _____ _____    ______ ____
ROOT
ATOM      1  C   UNL     1       6.731  -5.474  22.991  0.00  0.00    +0.066 C 
ATOM      2  C   UNL     1       7.670  -4.343  23.222  0.00  0.00    +0.049 A 
ATOM      3  N   UNL     1       7.599  -3.267  22.352  0.00  0.00    -0.252 NA
ATOM      4  C   UNL     1       8.495  -2.365  22.682  0.00  0.00    +0.156 A 
ATOM      5  S   UNL     1       9.457  -2.726  24.049  0.00  0.00    -0.080 S 
ATOM      6  C   UNL     1       8.626  -4.221  24.221  0.00  0.00    +0.014 A 
ENDROOT
BRANCH   6   7
ATOM      7  C   UNL     1       8.981  -5.170  25.328  0.00  0.00    +0.072 C 
BRANCH   7   8
ATOM      8  C   UNL     1       8.397  -4.741  26.673  0.00  0.00    +0.161 C 
BRANCH   8   9
ATOM      9  O   UNL     1       7.953  -5.858  27.436  0.00  0.00    -0.395 OA
ATOM     10  H   UNL     1       8.282  -6.659  26.988  0.00  0.00    +0.209 HD
ENDBRANCH   8   9
ENDBRANCH   7   8
ENDBRANCH   6   7
TORSDOF 3
ENDMDL
MODEL 3
REMARK VINA RESULT:      -3.7      4.285      5.384
REMARK  Name = 
REMARK  4 active torsions:
REMARK  status: ('A' for Active; 'I' for Inactive)
REMARK    1  A    between atoms: C_1  and  C_2
REMARK    2  A    between atoms: C_3  and  C_4
REMARK    3  A    between atoms: C_4  and  C_5
REMARK    4  A    between atoms: C_5  and  O_6
REMARK                            x       y       z     vdW  Elec       q    Type
REMARK                         _______ _______ _______ _____ _____    ______ ____
ROOT
ATOM      1  C   UNL     1       9.775  -2.265  23.891  0.00  0.00    +0.066 C 
ATOM      2  C   UNL     1       8.679  -3.214  23.553  0.00  0.00    +0.049 A 
ATOM      3  N   UNL     1       7.873  -2.897  22.471  0.00  0.00    -0.252 NA
ATOM      4  C   UNL     1       6.954  -3.823  22.313  0.00  0.00    +0.156 A 
ATOM      5  S   UNL     1       7.002  -5.127  23.418  0.00  0.00    -0.080 S 
ATOM      6  C   UNL     1       8.356  -4.403  24.191  0.00  0.00    +0.014 A 
ENDROOT
BRANCH   6   7
ATOM      7  C   UNL     1       9.000  -5.059  25.377  0.00  0.00    +0.072 C 
BRANCH   7   8
ATOM      8  C   UNL     1       8.311  -4.692  26.691  0.00  0.00    +0.161 C 
BRANCH   8   9
ATOM      9  O   UNL     1       7.937  -5.850  27.432  0.00  0.00    -0.395 OA
ATOM     10  H   UNL     1       8.477  -6.590  27.097  0.00  0.00    +0.209 HD
ENDBRANCH   8   9
ENDBRANCH   7   8
ENDBRANCH   6   7
TORSDOF 3
ENDMDL
MODEL 4
REMARK VINA RESULT:      -3.7      1.461      1.671
REMARK  Name = 
REMARK  4 active torsions:
REMARK  status: ('A' for Active; 'I' for Inactive)
REMARK    1  A    between atoms: C_1  and  C_2
REMARK    2  A    between atoms: C_3  and  C_4
REMARK    3  A    between atoms: C_4  and  C_5
REMARK    4  A    between atoms: C_5  and  O_6
REMARK                            x       y       z     vdW  Elec       q    Type
REMARK                         _______ _______ _______ _____ _____    ______ ____
ROOT
ATOM      1  C   UNL     1       8.869  -0.373  26.249  0.00  0.00    +0.066 C 
ATOM      2  C   UNL     1       9.297  -0.954  24.947  0.00  0.00    +0.049 A 
ATOM      3  N   UNL     1       8.996  -2.286  24.713  0.00  0.00    -0.252 NA
ATOM      4  C   UNL     1       9.448  -2.646  23.534  0.00  0.00    +0.156 A 
ATOM      5  S   UNL     1      10.236  -1.428  22.627  0.00  0.00    -0.080 S 
ATOM      6  C   UNL     1       9.969  -0.319  23.912  0.00  0.00    +0.014 A 
ENDROOT
BRANCH   6   7
ATOM      7  C   UNL     1      10.448   1.100  23.810  0.00  0.00    +0.072 C 
BRANCH   7   8
ATOM      8  C   UNL     1       9.576   1.943  22.881  0.00  0.00    +0.161 C 
BRANCH   8   9
ATOM      9  O   UNL     1      10.212   2.178  21.628  0.00  0.00    -0.395 OA
ATOM     10  H   UNL     1       9.669   2.830  21.150  0.00  0.00    +0.209 HD
ENDBRANCH   8   9
ENDBRANCH   7   8
ENDBRANCH   6   7
TORSDOF 3
ENDMDL
MODEL 5
REMARK VINA RESULT:      -3.6      4.645      5.458
REMARK  Name = 
REMARK  4 active torsions:
REMARK  status: ('A' for Active; 'I' for Inactive)
REMARK    1  A    between atoms: C_1  and  C_2
REMARK    2  A    between atoms: C_3  and  C_4
REMARK    3  A    between atoms: C_4  and  C_5
REMARK    4  A    between atoms: C_5  and  O_6
REMARK                            x       y       z     vdW  Elec       q    Type
REMARK                         _______ _______ _______ _____ _____    ______ ____
ROOT
ATOM      1  C   UNL     1       6.447  -1.850  22.900  0.00  0.00    +0.066 C 
ATOM      2  C   UNL     1       6.626  -3.281  22.531  0.00  0.00    +0.049 A 
ATOM      3  N   UNL     1       5.795  -3.795  21.549  0.00  0.00    -0.252 NA
ATOM      4  C   UNL     1       6.071  -5.064  21.349  0.00  0.00    +0.156 A 
ATOM      5  S   UNL     1       7.339  -5.715  22.295  0.00  0.00    -0.080 S 
ATOM      6  C   UNL     1       7.541  -4.185  23.051  0.00  0.00    +0.014 A 
ENDROOT
BRANCH   6   7
ATOM      7  C   UNL     1       8.587  -3.988  24.110  0.00  0.00    +0.072 C 
BRANCH   7   8
ATOM      8  C   UNL     1       8.747  -5.216  25.006  0.00  0.00    +0.161 C 
BRANCH   8   9
ATOM      9  O   UNL     1      10.106  -5.636  25.087  0.00  0.00    -0.395 OA
ATOM     10  H   UNL     1      10.594  -5.159  24.391  0.00  0.00    +0.209 HD
ENDBRANCH   8   9
ENDBRANCH   7   8
ENDBRANCH   6   7
TORSDOF 3
ENDMDL
MODEL 6
REMARK VINA RESULT:      -3.6      4.012      5.198
REMARK  Name = 
REMARK  4 active torsions:
REMARK  status: ('A' for Active; 'I' for Inactive)
REMARK    1  A    between atoms: C_1  and  C_2
REMARK    2  A    between atoms: C_3  and  C_4
REMARK    3  A    between atoms: C_4  and  C_5
REMARK    4  A    between atoms: C_5  and  O_6
REMARK                            x       y       z     vdW  Elec       q    Type
REMARK                         _______ _______ _______ _____ _____    ______ ____
ROOT
ATOM      1  C   UNL     1       9.017  -5.292  25.165  0.00  0.00    +0.066 C 
ATOM      2  C   UNL     1       8.861  -4.149  24.226  0.00  0.00    +0.049 A 
ATOM      3  N   UNL     1       9.853  -3.181  24.227  0.00  0.00    -0.252 NA
ATOM      4  C   UNL     1       9.562  -2.241  23.357  0.00  0.00    +0.156 A 
ATOM      5  S   UNL     1       8.114  -2.456  22.473  0.00  0.00    -0.080 S 
ATOM      6  C   UNL     1       7.830  -3.923  23.324  0.00  0.00    +0.014 A 
ENDROOT
BRANCH   6   7
ATOM      7  C   UNL     1       6.605  -4.745  23.044  0.00  0.00    +0.072 C 
BRANCH   7   8
ATOM      8  C   UNL     1       6.865  -5.847  22.018  0.00  0.00    +0.161 C 
BRANCH   8   9
ATOM      9  O   UNL     1       5.651  -6.407  21.526  0.00  0.00    -0.395 OA
ATOM     10  H   UNL     1       4.922  -5.870  21.888  0.00  0.00    +0.209 HD
ENDBRANCH   8   9
ENDBRANCH   7   8
ENDBRANCH   6   7
TORSDOF 3
ENDMDL
MODEL 7
REMARK VINA RESULT:      -3.6      2.884      3.745
REMARK  Name = 
REMARK  4 active torsions:
REMARK  status: ('A' for Active; 'I' for Inactive)
REMARK    1  A    between atoms: C_1  and  C_2
REMARK    2  A    between atoms: C_3  and  C_4
REMARK    3  A    between atoms: C_4  and  C_5
REMARK    4  A    between atoms: C_5  and  O_6
REMARK                            x       y       z     vdW  Elec       q    Type
REMARK                         _______ _______ _______ _____ _____    ______ ____
ROOT
ATOM      1  C   UNL     1       9.790   2.311  22.877  0.00  0.00    +0.066 C 
ATOM      2  C   UNL     1       9.744   0.828  22.761  0.00  0.00    +0.049 A 
ATOM      3  N   UNL     1       9.560   0.293  21.496  0.00  0.00    -0.252 NA
ATOM      4  C   UNL     1       9.531  -1.019  21.565  0.00  0.00    +0.156 A 
ATOM      5  S   UNL     1       9.741  -1.695  23.122  0.00  0.00    -0.080 S 
ATOM      6  C   UNL     1       9.871  -0.110  23.776  0.00  0.00    +0.014 A 
ENDROOT
BRANCH   6   7
ATOM      7  C   UNL     1      10.082   0.095  25.248  0.00  0.00    +0.072 C 
BRANCH   7   8
ATOM      8  C   UNL     1       8.993  -0.567  26.091  0.00  0.00    +0.161 C 
BRANCH   8   9
ATOM      9  O   UNL     1       9.268  -0.464  27.484  0.00  0.00    -0.395 OA
ATOM     10  H   UNL     1       8.410  -0.393  27.940  0.00  0.00    +0.209 HD
ENDBRANCH   8   9
ENDBRANCH   7   8
ENDBRANCH   6   7
TORSDOF 3
ENDMDL
MODEL 8
REMARK VINA RESULT:      -3.5      1.641      2.162
REMARK  Name = 
REMARK  4 active torsions:
REMARK  status: ('A' for Active; 'I' for Inactive)
REMARK    1  A    between atoms: C_1  and  C_2
REMARK    2  A    between atoms: C_3  and  C_4
REMARK    3  A    between atoms: C_4  and  C_5
REMARK    4  A    between atoms: C_5  and  O_6
REMARK                            x       y       z     vdW  Elec       q    Type
REMARK                         _______ _______ _______ _____ _____    ______ ____
ROOT
ATOM      1  C   UNL     1      10.133  -1.416  22.103  0.00  0.00    +0.066 C 
ATOM      2  C   UNL     1       9.674  -1.186  23.499  0.00  0.00    +0.049 A 
ATOM      3  N   UNL     1       9.000  -2.221  24.128  0.00  0.00    -0.252 NA
ATOM      4  C   UNL     1       8.654  -1.858  25.342  0.00  0.00    +0.156 A 
ATOM      5  S   UNL     1       9.123  -0.283  25.817  0.00  0.00    -0.080 S 
ATOM      6  C   UNL     1       9.841  -0.046  24.273  0.00  0.00    +0.014 A 
ENDROOT
BRANCH   6   7
ATOM      7  C   UNL     1      10.514   1.252  23.934  0.00  0.00    +0.072 C 
BRANCH   7   8
ATOM      8  C   UNL     1       9.665   2.124  23.011  0.00  0.00    +0.161 C 
BRANCH   8   9
ATOM      9  O   UNL     1      10.213   2.193  21.698  0.00  0.00    -0.395 OA
ATOM     10  H   UNL     1       9.467   2.322  21.084  0.00  0.00    +0.209 HD
ENDBRANCH   8   9
ENDBRANCH   7   8
ENDBRANCH   6   7
TORSDOF 3
ENDMDL
MODEL 9
REMARK VINA RESULT:      -3.5      1.520      2.162
REMARK  Name = 
REMARK  4 active torsions:
REMARK  status: ('A' for Active; 'I' for Inactive)
REMARK    1  A    between atoms: C_1  and  C_2
REMARK    2  A    between atoms: C_3  and  C_4
REMARK    3  A    between atoms: C_4  and  C_5
REMARK    4  A    between atoms: C_5  and  O_6
REMARK                            x       y       z     vdW  Elec       q    Type
REMARK                         _______ _______ _______ _____ _____    ______ ____
ROOT
ATOM      1  C   UNL     1       7.553  -2.686  22.252  0.00  0.00    +0.066 C 
ATOM      2  C   UNL     1       8.330  -1.863  23.218  0.00  0.00    +0.049 A 
ATOM      3  N   UNL     1       8.254  -2.209  24.557  0.00  0.00    -0.252 NA
ATOM      4  C   UNL     1       8.982  -1.383  25.275  0.00  0.00    +0.156 A 
ATOM      5  S   UNL     1       9.814  -0.166  24.407  0.00  0.00    -0.080 S 
ATOM      6  C   UNL     1       9.144  -0.772  22.944  0.00  0.00    +0.014 A 
ENDROOT
BRANCH   6   7
ATOM      7  C   UNL     1       9.466  -0.124  21.629  0.00  0.00    +0.072 C 
BRANCH   7   8
ATOM      8  C   UNL     1       9.077   1.353  21.598  0.00  0.00    +0.161 C 
BRANCH   8   9
ATOM      9  O   UNL     1      10.221   2.200  21.560  0.00  0.00    -0.395 OA
ATOM     10  H   UNL     1      10.678   2.025  20.717  0.00  0.00    +0.209 HD
ENDBRANCH   8   9
ENDBRANCH   7   8
ENDBRANCH   6   7
TORSDOF 3
ENDMDL
