MODEL 1
REMARK VINA RESULT:      -5.6      0.000      0.000
REMARK  Name = 
REMARK  1 active torsions:
REMARK  status: ('A' for Active; 'I' for Inactive)
REMARK    1  A    between atoms: C_7  and  C_8
REMARK                            x       y       z     vdW  Elec       q    Type
REMARK                         _______ _______ _______ _____ _____    ______ ____
ROOT
ATOM      1  N   UNL     1      10.653   3.832  22.985  0.00  0.00    -0.329 N 
ATOM      2  H   UNL     1      10.594   4.373  23.835  0.00  0.00    +0.145 HD
ATOM      3  H   UNL     1      10.311   4.305  22.155  0.00  0.00    +0.145 HD
ATOM      4  C   UNL     1      10.388   2.504  23.012  0.00  0.00    +0.195 A 
ATOM      5  N   UNL     1      10.549   1.872  24.229  0.00  0.00    -0.295 N 
ATOM      6  H   UNL     1      10.861   2.392  25.031  0.00  0.00    +0.172 HD
ATOM      7  C   UNL     1      10.372   0.516  24.435  0.00  0.00    +0.263 A 
ATOM      8  O   UNL     1      10.549  -0.016  25.524  0.00  0.00    -0.267 OA
ATOM      9  C   UNL     1       9.971  -0.180  23.242  0.00  0.00    +0.100 A 
ATOM     10  C   UNL     1       9.813   0.562  22.093  0.00  0.00    +0.148 A 
ATOM     11  N   UNL     1       9.443  -0.285  21.087  0.00  0.00    -0.344 N 
ATOM     12  H   UNL     1       9.269   0.003  20.133  0.00  0.00    +0.167 HD
ATOM     13  C   UNL     1       9.371  -1.567  21.582  0.00  0.00    +0.104 A 
ATOM     14  C   UNL     1       9.696  -1.527  22.928  0.00  0.00    +0.083 A 
ATOM     15  N   UNL     1      10.004   1.889  21.926  0.00  0.00    -0.198 NA
ENDROOT
BRANCH  14  16
ATOM     16  C   UNL     1       9.747  -2.658  23.799  0.00  0.00    +0.101 C 
ATOM     17  N   UNL     1       9.818  -3.593  24.485  0.00  0.00    -0.191 NA
ENDBRANCH  14  16
TORSDOF 1
ENDMDL
MODEL 2
REMARK VINA RESULT:      -5.5      2.267      2.716
REMARK  Name = 
REMARK  1 active torsions:
REMARK  status: ('A' for Active; 'I' for Inactive)
REMARK    1  A    between atoms: C_7  and  C_8
REMARK                            x       y       z     vdW  Elec       q    Type
REMARK                         _______ _______ _______ _____ _____    ______ ____
ROOT
ATOM      1  N   UNL     1       9.750   2.106  21.543  0.00  0.00    -0.329 N 
ATOM      2  H   UNL     1      10.731   2.322  21.647  0.00  0.00    +0.145 HD
ATOM      3  H   UNL     1       9.126   2.896  21.666  0.00  0.00    +0.145 HD
ATOM      4  C   UNL     1       9.264   0.937  22.025  0.00  0.00    +0.195 A 
ATOM      5  N   UNL     1      10.172  -0.092  22.165  0.00  0.00    -0.295 N 
ATOM      6  H   UNL     1      11.133   0.042  21.903  0.00  0.00    +0.172 HD
ATOM      7  C   UNL     1       9.848  -1.367  22.594  0.00  0.00    +0.263 A 
ATOM      8  O   UNL     1      10.676  -2.266  22.682  0.00  0.00    -0.267 OA
ATOM      9  C   UNL     1       8.452  -1.510  22.908  0.00  0.00    +0.100 A 
ATOM     10  C   UNL     1       7.647  -0.403  22.757  0.00  0.00    +0.148 A 
ATOM     11  N   UNL     1       6.372  -0.755  23.097  0.00  0.00    -0.344 N 
ATOM     12  H   UNL     1       5.579  -0.127  23.067  0.00  0.00    +0.167 HD
ATOM     13  C   UNL     1       6.351  -2.083  23.456  0.00  0.00    +0.104 A 
ATOM     14  C   UNL     1       7.641  -2.577  23.348  0.00  0.00    +0.083 A 
ATOM     15  N   UNL     1       7.998   0.829  22.326  0.00  0.00    -0.198 NA
ENDROOT
BRANCH  14  16
ATOM     16  C   UNL     1       8.035  -3.922  23.623  0.00  0.00    +0.101 C 
ATOM     17  N   UNL     1       8.391  -5.009  23.829  0.00  0.00    -0.191 NA
ENDBRANCH  14  16
TORSDOF 1
ENDMDL
MODEL 3
REMARK VINA RESULT:      -5.4      1.935      2.673
REMARK  Name = 
REMARK  1 active torsions:
REMARK  status: ('A' for Active; 'I' for Inactive)
REMARK    1  A    between atoms: C_7  and  C_8
REMARK                            x       y       z     vdW  Elec       q    Type
REMARK                         _______ _______ _______ _____ _____    ______ ____
ROOT
ATOM      1  N   UNL     1      11.171   4.029  22.890  0.00  0.00    -0.329 N 
ATOM      2  H   UNL     1      11.515   4.314  21.985  0.00  0.00    +0.145 HD
ATOM      3  H   UNL     1      11.715   4.365  23.678  0.00  0.00    +0.145 HD
ATOM      4  C   UNL     1      10.672   2.781  23.057  0.00  0.00    +0.195 A 
ATOM      5  N   UNL     1      10.194   2.156  21.923  0.00  0.00    -0.295 N 
ATOM      6  H   UNL     1      10.215   2.632  21.037  0.00  0.00    +0.172 HD
ATOM      7  C   UNL     1       9.605   0.905  21.909  0.00  0.00    +0.263 A 
ATOM      8  O   UNL     1       9.167   0.391  20.887  0.00  0.00    -0.267 OA
ATOM      9  C   UNL     1       9.562   0.296  23.211  0.00  0.00    +0.100 A 
ATOM     10  C   UNL     1      10.098   1.003  24.264  0.00  0.00    +0.148 A 
ATOM     11  N   UNL     1       9.947   0.258  25.398  0.00  0.00    -0.344 N 
ATOM     12  H   UNL     1      10.250   0.550  26.318  0.00  0.00    +0.167 HD
ATOM     13  C   UNL     1       9.310  -0.921  25.081  0.00  0.00    +0.104 A 
ATOM     14  C   UNL     1       9.060  -0.920  23.719  0.00  0.00    +0.083 A 
ATOM     15  N   UNL     1      10.659   2.233  24.242  0.00  0.00    -0.198 NA
ENDROOT
BRANCH  14  16
ATOM     16  C   UNL     1       8.403  -1.965  23.000  0.00  0.00    +0.101 C 
ATOM     17  N   UNL     1       7.834  -2.805  22.433  0.00  0.00    -0.191 NA
ENDBRANCH  14  16
TORSDOF 1
ENDMDL
MODEL 4
REMARK VINA RESULT:      -5.2      2.901      3.175
REMARK  Name = 
REMARK  1 active torsions:
REMARK  status: ('A' for Active; 'I' for Inactive)
REMARK    1  A    between atoms: C_7  and  C_8
REMARK                            x       y       z     vdW  Elec       q    Type
REMARK                         _______ _______ _______ _____ _____    ______ ____
ROOT
ATOM      1  N   UNL     1       6.544   4.535  22.010  0.00  0.00    -0.329 N 
ATOM      2  H   UNL     1       7.146   5.341  22.090  0.00  0.00    +0.145 HD
ATOM      3  H   UNL     1       5.610   4.663  22.385  0.00  0.00    +0.145 HD
ATOM      4  C   UNL     1       7.052   3.294  22.205  0.00  0.00    +0.195 A 
ATOM      5  N   UNL     1       8.408   3.148  22.000  0.00  0.00    -0.295 N 
ATOM      6  H   UNL     1       8.963   3.935  21.708  0.00  0.00    +0.172 HD
ATOM      7  C   UNL     1       9.090   1.949  22.104  0.00  0.00    +0.263 A 
ATOM      8  O   UNL     1      10.292   1.851  21.888  0.00  0.00    -0.267 OA
ATOM      9  C   UNL     1       8.236   0.854  22.478  0.00  0.00    +0.100 A 
ATOM     10  C   UNL     1       6.903   1.127  22.686  0.00  0.00    +0.148 A 
ATOM     11  N   UNL     1       6.276  -0.039  23.020  0.00  0.00    -0.344 N 
ATOM     12  H   UNL     1       5.288  -0.120  23.218  0.00  0.00    +0.167 HD
ATOM     13  C   UNL     1       7.198  -1.061  23.019  0.00  0.00    +0.104 A 
ATOM     14  C   UNL     1       8.432  -0.527  22.685  0.00  0.00    +0.083 A 
ATOM     15  N   UNL     1       6.267   2.314  22.566  0.00  0.00    -0.198 NA
ENDROOT
BRANCH  14  16
ATOM     16  C   UNL     1       9.647  -1.268  22.567  0.00  0.00    +0.101 C 
ATOM     17  N   UNL     1      10.631  -1.872  22.431  0.00  0.00    -0.191 NA
ENDBRANCH  14  16
TORSDOF 1
ENDMDL
MODEL 5
REMARK VINA RESULT:      -5.2      3.490      6.383
REMARK  Name = 
REMARK  1 active torsions:
REMARK  status: ('A' for Active; 'I' for Inactive)
REMARK    1  A    between atoms: C_7  and  C_8
REMARK                            x       y       z     vdW  Elec       q    Type
REMARK                         _______ _______ _______ _____ _____    ______ ____
ROOT
ATOM      1  N   UNL     1       7.023  -6.186  28.038  0.00  0.00    -0.329 N 
ATOM      2  H   UNL     1       7.282  -7.158  27.949  0.00  0.00    +0.145 HD
ATOM      3  H   UNL     1       6.079  -6.027  28.373  0.00  0.00    +0.145 HD
ATOM      4  C   UNL     1       7.438  -5.291  27.110  0.00  0.00    +0.195 A 
ATOM      5  N   UNL     1       8.574  -5.626  26.402  0.00  0.00    -0.295 N 
ATOM      6  H   UNL     1       9.054  -6.488  26.595  0.00  0.00    +0.172 HD
ATOM      7  C   UNL     1       9.170  -4.816  25.452  0.00  0.00    +0.263 A 
ATOM      8  O   UNL     1      10.194  -5.135  24.860  0.00  0.00    -0.267 OA
ATOM      9  C   UNL     1       8.464  -3.580  25.253  0.00  0.00    +0.100 A 
ATOM     10  C   UNL     1       7.325  -3.369  25.997  0.00  0.00    +0.148 A 
ATOM     11  N   UNL     1       6.820  -2.144  25.665  0.00  0.00    -0.344 N 
ATOM     12  H   UNL     1       5.987  -1.740  26.073  0.00  0.00    +0.167 HD
ATOM     13  C   UNL     1       7.633  -1.563  24.719  0.00  0.00    +0.104 A 
ATOM     14  C   UNL     1       8.668  -2.443  24.444  0.00  0.00    +0.083 A 
ATOM     15  N   UNL     1       6.774  -4.182  26.926  0.00  0.00    -0.198 NA
ENDROOT
BRANCH  14  16
ATOM     16  C   UNL     1       9.731  -2.204  23.520  0.00  0.00    +0.101 C 
ATOM     17  N   UNL     1      10.569  -2.011  22.738  0.00  0.00    -0.191 NA
ENDBRANCH  14  16
TORSDOF 1
ENDMDL
MODEL 6
REMARK VINA RESULT:      -5.1      1.867      2.818
REMARK  Name = 
REMARK  1 active torsions:
REMARK  status: ('A' for Active; 'I' for Inactive)
REMARK    1  A    between atoms: C_7  and  C_8
REMARK                            x       y       z     vdW  Elec       q    Type
REMARK                         _______ _______ _______ _____ _____    ______ ____
ROOT
ATOM      1  N   UNL     1      10.209   2.393  21.734  0.00  0.00    -0.329 N 
ATOM      2  H   UNL     1      10.734   2.267  20.882  0.00  0.00    +0.145 HD
ATOM      3  H   UNL     1      10.417   3.249  22.239  0.00  0.00    +0.145 HD
ATOM      4  C   UNL     1       9.957   1.329  22.533  0.00  0.00    +0.195 A 
ATOM      5  N   UNL     1       9.972   0.090  21.925  0.00  0.00    -0.295 N 
ATOM      6  H   UNL     1      10.150   0.013  20.938  0.00  0.00    +0.172 HD
ATOM      7  C   UNL     1       9.690  -1.101  22.570  0.00  0.00    +0.263 A 
ATOM      8  O   UNL     1       9.687  -2.181  21.993  0.00  0.00    -0.267 OA
ATOM      9  C   UNL     1       9.398  -0.921  23.967  0.00  0.00    +0.100 A 
ATOM     10  C   UNL     1       9.443   0.360  24.468  0.00  0.00    +0.148 A 
ATOM     11  N   UNL     1       9.129   0.309  25.796  0.00  0.00    -0.344 N 
ATOM     12  H   UNL     1       9.081   1.116  26.404  0.00  0.00    +0.167 HD
ATOM     13  C   UNL     1       8.874  -0.997  26.149  0.00  0.00    +0.104 A 
ATOM     14  C   UNL     1       9.038  -1.786  25.021  0.00  0.00    +0.083 A 
ATOM     15  N   UNL     1       9.715   1.505  23.804  0.00  0.00    -0.198 NA
ENDROOT
BRANCH  14  16
ATOM     16  C   UNL     1       8.853  -3.201  24.970  0.00  0.00    +0.101 C 
ATOM     17  N   UNL     1       8.730  -4.354  24.900  0.00  0.00    -0.191 NA
ENDBRANCH  14  16
TORSDOF 1
ENDMDL
MODEL 7
REMARK VINA RESULT:      -5.0      4.888      7.871
REMARK  Name = 
REMARK  1 active torsions:
REMARK  status: ('A' for Active; 'I' for Inactive)
REMARK    1  A    between atoms: C_7  and  C_8
REMARK                            x       y       z     vdW  Elec       q    Type
REMARK                         _______ _______ _______ _____ _____    ______ ____
ROOT
ATOM      1  N   UNL     1       5.143  -7.352  28.528  0.00  0.00    -0.329 N 
ATOM      2  H   UNL     1       5.711  -7.677  29.297  0.00  0.00    +0.145 HD
ATOM      3  H   UNL     1       4.398  -7.983  28.254  0.00  0.00    +0.145 HD
ATOM      4  C   UNL     1       5.724  -6.700  27.493  0.00  0.00    +0.195 A 
ATOM      5  N   UNL     1       6.925  -6.074  27.759  0.00  0.00    -0.295 N 
ATOM      6  H   UNL     1       7.317  -6.106  28.685  0.00  0.00    +0.172 HD
ATOM      7  C   UNL     1       7.635  -5.322  26.841  0.00  0.00    +0.263 A 
ATOM      8  O   UNL     1       8.686  -4.758  27.120  0.00  0.00    -0.267 OA
ATOM      9  C   UNL     1       7.001  -5.275  25.551  0.00  0.00    +0.100 A 
ATOM     10  C   UNL     1       5.819  -5.964  25.396  0.00  0.00    +0.148 A 
ATOM     11  N   UNL     1       5.386  -5.783  24.114  0.00  0.00    -0.344 N 
ATOM     12  H   UNL     1       4.534  -6.177  23.738  0.00  0.00    +0.167 HD
ATOM     13  C   UNL     1       6.278  -4.974  23.447  0.00  0.00    +0.104 A 
ATOM     14  C   UNL     1       7.298  -4.645  24.325  0.00  0.00    +0.083 A 
ATOM     15  N   UNL     1       5.147  -6.684  26.322  0.00  0.00    -0.198 NA
ENDROOT
BRANCH  14  16
ATOM     16  C   UNL     1       8.416  -3.811  24.017  0.00  0.00    +0.101 C 
ATOM     17  N   UNL     1       9.344  -3.164  23.750  0.00  0.00    -0.191 NA
ENDBRANCH  14  16
TORSDOF 1
ENDMDL
MODEL 8
REMARK VINA RESULT:      -5.0      6.310      7.151
REMARK  Name = 
REMARK  1 active torsions:
REMARK  status: ('A' for Active; 'I' for Inactive)
REMARK    1  A    between atoms: C_7  and  C_8
REMARK                            x       y       z     vdW  Elec       q    Type
REMARK                         _______ _______ _______ _____ _____    ______ ____
ROOT
ATOM      1  N   UNL     1       9.706  -5.252  26.164  0.00  0.00    -0.329 N 
ATOM      2  H   UNL     1       9.644  -4.930  27.118  0.00  0.00    +0.145 HD
ATOM      3  H   UNL     1      10.556  -4.984  25.679  0.00  0.00    +0.145 HD
ATOM      4  C   UNL     1       8.601  -5.252  25.380  0.00  0.00    +0.195 A 
ATOM      5  N   UNL     1       7.387  -5.305  26.034  0.00  0.00    -0.295 N 
ATOM      6  H   UNL     1       7.355  -5.353  27.038  0.00  0.00    +0.172 HD
ATOM      7  C   UNL     1       6.159  -5.362  25.400  0.00  0.00    +0.263 A 
ATOM      8  O   UNL     1       5.101  -5.434  26.012  0.00  0.00    -0.267 OA
ATOM      9  C   UNL     1       6.272  -5.336  23.966  0.00  0.00    +0.100 A 
ATOM     10  C   UNL     1       7.536  -5.252  23.427  0.00  0.00    +0.148 A 
ATOM     11  N   UNL     1       7.420  -5.250  22.066  0.00  0.00    -0.344 N 
ATOM     12  H   UNL     1       8.202  -5.203  21.426  0.00  0.00    +0.167 HD
ATOM     13  C   UNL     1       6.089  -5.341  21.728  0.00  0.00    +0.104 A 
ATOM     14  C   UNL     1       5.351  -5.394  22.900  0.00  0.00    +0.083 A 
ATOM     15  N   UNL     1       8.719  -5.206  24.080  0.00  0.00    -0.198 NA
ENDROOT
BRANCH  14  16
ATOM     16  C   UNL     1       3.929  -5.503  22.975  0.00  0.00    +0.101 C 
ATOM     17  N   UNL     1       2.769  -5.555  23.020  0.00  0.00    -0.191 NA
ENDBRANCH  14  16
TORSDOF 1
ENDMDL
MODEL 9
REMARK VINA RESULT:      -5.0      4.461      7.657
REMARK  Name = 
REMARK  1 active torsions:
REMARK  status: ('A' for Active; 'I' for Inactive)
REMARK    1  A    between atoms: C_7  and  C_8
REMARK                            x       y       z     vdW  Elec       q    Type
REMARK                         _______ _______ _______ _____ _____    ______ ____
ROOT
ATOM      1  N   UNL     1       3.957  -7.015  25.582  0.00  0.00    -0.329 N 
ATOM      2  H   UNL     1       3.143  -6.731  25.058  0.00  0.00    +0.145 HD
ATOM      3  H   UNL     1       3.762  -7.368  26.513  0.00  0.00    +0.145 HD
ATOM      4  C   UNL     1       5.100  -6.293  25.494  0.00  0.00    +0.195 A 
ATOM      5  N   UNL     1       5.262  -5.541  24.349  0.00  0.00    -0.295 N 
ATOM      6  H   UNL     1       4.559  -5.557  23.630  0.00  0.00    +0.172 HD
ATOM      7  C   UNL     1       6.382  -4.782  24.064  0.00  0.00    +0.263 A 
ATOM      8  O   UNL     1       6.504  -4.145  23.024  0.00  0.00    -0.267 OA
ATOM      9  C   UNL     1       7.370  -4.835  25.108  0.00  0.00    +0.100 A 
ATOM     10  C   UNL     1       7.084  -5.597  26.219  0.00  0.00    +0.148 A 
ATOM     11  N   UNL     1       8.146  -5.518  27.074  0.00  0.00    -0.344 N 
ATOM     12  H   UNL     1       8.197  -5.993  27.966  0.00  0.00    +0.167 HD
ATOM     13  C   UNL     1       9.116  -4.717  26.515  0.00  0.00    +0.104 A 
ATOM     14  C   UNL     1       8.653  -4.277  25.286  0.00  0.00    +0.083 A 
ATOM     15  N   UNL     1       5.978  -6.335  26.460  0.00  0.00    -0.198 NA
ENDROOT
BRANCH  14  16
ATOM     16  C   UNL     1       9.372  -3.430  24.389  0.00  0.00    +0.101 C 
ATOM     17  N   UNL     1       9.989  -2.766  23.661  0.00  0.00    -0.191 NA
ENDBRANCH  14  16
TORSDOF 1
ENDMDL
