MODEL 1
REMARK VINA RESULT:      -5.2      0.000      0.000
REMARK  Name = 
REMARK  8 active torsions:
REMARK  status: ('A' for Active; 'I' for Inactive)
REMARK    1  A    between atoms: N_1  and  CA_2
REMARK    2  A    between atoms: CA_2  and  C_4
REMARK    3  A    between atoms: CA_2  and  C_12
REMARK    4  A    between atoms: C_4  and  C_5
REMARK    5  A    between atoms: C_5  and  C_6
REMARK    6  A    between atoms: C_6  and  N_7
REMARK    7  A    between atoms: N_10  and  O_11
REMARK    8  A    between atoms: C_12  and  O_13
REMARK                            x       y       z     vdW  Elec       q    Type
REMARK                         _______ _______ _______ _____ _____    ______ ____
ROOT
ATOM      1  C   UNL     1       8.756   4.480  24.140  0.00  0.00    +0.039 C 
ENDROOT
BRANCH   1   2
ATOM      2  C   UNL     1       9.447   3.115  24.125  0.00  0.00    +0.033 C 
BRANCH   2   3
ATOM      3  CA  UNL     1       8.801   2.091  23.186  0.00  0.00    +0.161 C 
BRANCH   3   4
ATOM      4  N   UNL     1       8.325   0.879  23.915  0.00  0.00    -0.318 NA
ATOM      5  H1  UNL     1       8.905   0.079  23.642  0.00  0.00    +0.119 HD
ATOM      6  H2  UNL     1       8.527   1.009  24.911  0.00  0.00    +0.119 HD
ENDBRANCH   3   4
BRANCH   3   7
ATOM      7  C   UNL     1       9.831   1.648  22.126  0.00  0.00    +0.322 C 
ATOM      8  OXT UNL     1       9.873   0.548  21.599  0.00  0.00    -0.249 OA
BRANCH   7   9
ATOM      9  O   UNL     1      10.704   2.649  21.841  0.00  0.00    -0.480 OA
ATOM     10  H   UNL     1      10.229   3.245  21.208  0.00  0.00    +0.295 HD
ENDBRANCH   7   9
ENDBRANCH   3   7
ENDBRANCH   2   3
ENDBRANCH   1   2
BRANCH   1  11
ATOM     11  C   UNL     1       9.798   5.597  24.228  0.00  0.00    +0.196 C 
BRANCH  11  12
ATOM     12  N   UNL     1      10.900   5.342  23.326  0.00  0.00    -0.274 N 
ATOM     13  H   UNL     1      10.684   5.367  22.335  0.00  0.00    +0.258 HD
ATOM     14  C   UNL     1      12.203   5.592  23.606  0.00  0.00    +0.406 C 
ATOM     15  N   UNL     1      13.051   5.004  22.704  0.00  0.00    -0.142 N 
ATOM     16  H   UNL     1      12.771   4.058  22.457  0.00  0.00    +0.299 HD
ATOM     17  N   UNL     1      12.664   6.287  24.591  0.00  0.00    -0.128 NA
ATOM     18  H   UNL     1      11.891   6.658  25.143  0.00  0.00    +0.306 HD
BRANCH  15  19
ATOM     19  O   UNL     1      14.390   5.056  23.133  0.00  0.00    -0.233 OA
ATOM     20  H   UNL     1      14.346   4.597  24.005  0.00  0.00    +0.262 HD
ENDBRANCH  15  19
ENDBRANCH  11  12
ENDBRANCH   1  11
TORSDOF 8
ENDMDL
MODEL 2
REMARK VINA RESULT:      -5.1      1.453      1.637
REMARK  Name = 
REMARK  8 active torsions:
REMARK  status: ('A' for Active; 'I' for Inactive)
REMARK    1  A    between atoms: N_1  and  CA_2
REMARK    2  A    between atoms: CA_2  and  C_4
REMARK    3  A    between atoms: CA_2  and  C_12
REMARK    4  A    between atoms: C_4  and  C_5
REMARK    5  A    between atoms: C_5  and  C_6
REMARK    6  A    between atoms: C_6  and  N_7
REMARK    7  A    between atoms: N_10  and  O_11
REMARK    8  A    between atoms: C_12  and  O_13
REMARK                            x       y       z     vdW  Elec       q    Type
REMARK                         _______ _______ _______ _____ _____    ______ ____
ROOT
ATOM      1  C   UNL     1       9.228   3.478  23.823  0.00  0.00    +0.039 C 
ENDROOT
BRANCH   1   2
ATOM      2  C   UNL     1      10.213   2.327  23.609  0.00  0.00    +0.033 C 
BRANCH   2   3
ATOM      3  CA  UNL     1      10.130   1.674  22.226  0.00  0.00    +0.161 C 
BRANCH   3   4
ATOM      4  N   UNL     1       8.955   2.157  21.444  0.00  0.00    -0.318 NA
ATOM      5  H1  UNL     1       8.237   2.488  22.096  0.00  0.00    +0.119 HD
ATOM      6  H2  UNL     1       9.239   2.997  20.932  0.00  0.00    +0.119 HD
ENDBRANCH   3   4
BRANCH   3   7
ATOM      7  C   UNL     1      10.013   0.144  22.388  0.00  0.00    +0.322 C 
ATOM      8  OXT UNL     1      10.166  -0.469  23.432  0.00  0.00    -0.249 OA
BRANCH   7   9
ATOM      9  O   UNL     1       9.711  -0.453  21.206  0.00  0.00    -0.480 OA
ATOM     10  H   UNL     1      10.565  -0.824  20.869  0.00  0.00    +0.295 HD
ENDBRANCH   7   9
ENDBRANCH   3   7
ENDBRANCH   2   3
ENDBRANCH   1   2
BRANCH   1  11
ATOM     11  C   UNL     1       9.988   4.771  24.128  0.00  0.00    +0.196 C 
BRANCH  11  12
ATOM     12  N   UNL     1      10.891   5.102  23.049  0.00  0.00    -0.274 N 
ATOM     13  H   UNL     1      10.462   5.402  22.180  0.00  0.00    +0.258 HD
ATOM     14  C   UNL     1      12.161   5.549  23.212  0.00  0.00    +0.406 C 
ATOM     15  N   UNL     1      12.878   5.516  22.044  0.00  0.00    -0.142 N 
ATOM     16  H   UNL     1      12.718   4.668  21.506  0.00  0.00    +0.299 HD
ATOM     17  N   UNL     1      12.701   5.967  24.307  0.00  0.00    -0.128 NA
ATOM     18  H   UNL     1      12.016   5.936  25.062  0.00  0.00    +0.306 HD
BRANCH  15  19
ATOM     19  O   UNL     1      14.249   5.741  22.264  0.00  0.00    -0.233 OA
ATOM     20  H   UNL     1      14.259   6.064  23.196  0.00  0.00    +0.262 HD
ENDBRANCH  15  19
ENDBRANCH  11  12
ENDBRANCH   1  11
TORSDOF 8
ENDMDL
MODEL 3
REMARK VINA RESULT:      -5.0      8.910     10.037
REMARK  Name = 
REMARK  8 active torsions:
REMARK  status: ('A' for Active; 'I' for Inactive)
REMARK    1  A    between atoms: N_1  and  CA_2
REMARK    2  A    between atoms: CA_2  and  C_4
REMARK    3  A    between atoms: CA_2  and  C_12
REMARK    4  A    between atoms: C_4  and  C_5
REMARK    5  A    between atoms: C_5  and  C_6
REMARK    6  A    between atoms: C_6  and  N_7
REMARK    7  A    between atoms: N_10  and  O_11
REMARK    8  A    between atoms: C_12  and  O_13
REMARK                            x       y       z     vdW  Elec       q    Type
REMARK                         _______ _______ _______ _____ _____    ______ ____
ROOT
ATOM      1  C   UNL     1       9.384  -3.085  24.189  0.00  0.00    +0.039 C 
ENDROOT
BRANCH   1   2
ATOM      2  C   UNL     1       8.798  -3.300  25.586  0.00  0.00    +0.033 C 
BRANCH   2   3
ATOM      3  CA  UNL     1       9.087  -4.679  26.186  0.00  0.00    +0.161 C 
BRANCH   3   4
ATOM      4  N   UNL     1       9.911  -5.529  25.277  0.00  0.00    -0.318 NA
ATOM      5  H1  UNL     1      10.411  -4.922  24.619  0.00  0.00    +0.119 HD
ATOM      6  H2  UNL     1      10.652  -5.963  25.835  0.00  0.00    +0.119 HD
ENDBRANCH   3   4
BRANCH   3   7
ATOM      7  C   UNL     1       7.755  -5.407  26.460  0.00  0.00    +0.322 C 
ATOM      8  OXT UNL     1       6.821  -5.489  25.679  0.00  0.00    -0.249 OA
BRANCH   7   9
ATOM      9  O   UNL     1       7.743  -5.960  27.701  0.00  0.00    -0.480 OA
ATOM     10  H   UNL     1       8.461  -6.642  27.696  0.00  0.00    +0.295 HD
ENDBRANCH   7   9
ENDBRANCH   3   7
ENDBRANCH   2   3
ENDBRANCH   1   2
BRANCH   1  11
ATOM     11  C   UNL     1       8.265  -3.054  23.147  0.00  0.00    +0.196 C 
BRANCH  11  12
ATOM     12  N   UNL     1       7.685  -4.368  22.977  0.00  0.00    -0.274 N 
ATOM     13  H   UNL     1       7.813  -5.018  23.746  0.00  0.00    +0.258 HD
ATOM     14  C   UNL     1       6.605  -4.644  22.205  0.00  0.00    +0.406 C 
ATOM     15  N   UNL     1       6.443  -5.990  22.001  0.00  0.00    -0.142 N 
ATOM     16  H   UNL     1       7.319  -6.471  21.815  0.00  0.00    +0.299 HD
ATOM     17  N   UNL     1       5.787  -3.793  21.684  0.00  0.00    -0.128 NA
ATOM     18  H   UNL     1       6.055  -2.847  21.956  0.00  0.00    +0.306 HD
BRANCH  15  19
ATOM     19  O   UNL     1       5.482  -6.257  21.008  0.00  0.00    -0.233 OA
ATOM     20  H   UNL     1       4.919  -6.941  21.444  0.00  0.00    +0.262 HD
ENDBRANCH  15  19
ENDBRANCH  11  12
ENDBRANCH   1  11
TORSDOF 8
ENDMDL
MODEL 4
REMARK VINA RESULT:      -4.9      5.534      7.130
REMARK  Name = 
REMARK  8 active torsions:
REMARK  status: ('A' for Active; 'I' for Inactive)
REMARK    1  A    between atoms: N_1  and  CA_2
REMARK    2  A    between atoms: CA_2  and  C_4
REMARK    3  A    between atoms: CA_2  and  C_12
REMARK    4  A    between atoms: C_4  and  C_5
REMARK    5  A    between atoms: C_5  and  C_6
REMARK    6  A    between atoms: C_6  and  N_7
REMARK    7  A    between atoms: N_10  and  O_11
REMARK    8  A    between atoms: C_12  and  O_13
REMARK                            x       y       z     vdW  Elec       q    Type
REMARK                         _______ _______ _______ _____ _____    ______ ____
ROOT
ATOM      1  C   UNL     1       9.053  -2.380  24.345  0.00  0.00    +0.039 C 
ENDROOT
BRANCH   1   2
ATOM      2  C   UNL     1       8.728  -3.876  24.316  0.00  0.00    +0.033 C 
BRANCH   2   3
ATOM      3  CA  UNL     1       9.103  -4.628  25.596  0.00  0.00    +0.161 C 
BRANCH   3   4
ATOM      4  N   UNL     1      10.159  -5.656  25.358  0.00  0.00    -0.318 NA
ATOM      5  H1  UNL     1       9.727  -6.585  25.380  0.00  0.00    +0.119 HD
ATOM      6  H2  UNL     1      10.489  -5.553  24.394  0.00  0.00    +0.119 HD
ENDBRANCH   3   4
BRANCH   3   7
ATOM      7  C   UNL     1       7.853  -5.337  26.158  0.00  0.00    +0.322 C 
ATOM      8  OXT UNL     1       6.797  -5.481  25.565  0.00  0.00    -0.249 OA
BRANCH   7   9
ATOM      9  O   UNL     1       8.071  -5.790  27.420  0.00  0.00    -0.480 OA
ATOM     10  H   UNL     1       7.899  -5.018  28.015  0.00  0.00    +0.295 HD
ENDBRANCH   7   9
ENDBRANCH   3   7
ENDBRANCH   2   3
ENDBRANCH   1   2
BRANCH   1  11
ATOM     11  C   UNL     1      10.093  -2.046  23.275  0.00  0.00    +0.196 C 
BRANCH  11  12
ATOM     12  N   UNL     1       9.633  -0.962  22.434  0.00  0.00    -0.274 N 
ATOM     13  H   UNL     1       8.735  -1.094  21.982  0.00  0.00    +0.258 HD
ATOM     14  C   UNL     1       9.976   0.341  22.594  0.00  0.00    +0.406 C 
ATOM     15  N   UNL     1       9.634   1.105  21.509  0.00  0.00    -0.142 N 
ATOM     16  H   UNL     1       9.834   0.646  20.623  0.00  0.00    +0.299 HD
ATOM     17  N   UNL     1      10.561   0.868  23.616  0.00  0.00    -0.128 NA
ATOM     18  H   UNL     1      10.721   0.155  24.327  0.00  0.00    +0.306 HD
BRANCH  15  19
ATOM     19  O   UNL     1      10.206   2.389  21.571  0.00  0.00    -0.233 OA
ATOM     20  H   UNL     1      10.784   2.396  20.771  0.00  0.00    +0.262 HD
ENDBRANCH  15  19
ENDBRANCH  11  12
ENDBRANCH   1  11
TORSDOF 8
ENDMDL
MODEL 5
REMARK VINA RESULT:      -4.8      1.719      1.986
REMARK  Name = 
REMARK  8 active torsions:
REMARK  status: ('A' for Active; 'I' for Inactive)
REMARK    1  A    between atoms: N_1  and  CA_2
REMARK    2  A    between atoms: CA_2  and  C_4
REMARK    3  A    between atoms: CA_2  and  C_12
REMARK    4  A    between atoms: C_4  and  C_5
REMARK    5  A    between atoms: C_5  and  C_6
REMARK    6  A    between atoms: C_6  and  N_7
REMARK    7  A    between atoms: N_10  and  O_11
REMARK    8  A    between atoms: C_12  and  O_13
REMARK                            x       y       z     vdW  Elec       q    Type
REMARK                         _______ _______ _______ _____ _____    ______ ____
ROOT
ATOM      1  C   UNL     1       8.740   5.253  24.783  0.00  0.00    +0.039 C 
ENDROOT
BRANCH   1   2
ATOM      2  C   UNL     1       7.832   4.172  24.193  0.00  0.00    +0.033 C 
BRANCH   2   3
ATOM      3  CA  UNL     1       7.972   3.986  22.679  0.00  0.00    +0.161 C 
BRANCH   3   4
ATOM      4  N   UNL     1       6.718   4.336  21.949  0.00  0.00    -0.318 NA
ATOM      5  H1  UNL     1       6.814   5.280  21.561  0.00  0.00    +0.119 HD
ATOM      6  H2  UNL     1       6.652   3.730  21.126  0.00  0.00    +0.119 HD
ENDBRANCH   3   4
BRANCH   3   7
ATOM      7  C   UNL     1       8.318   2.513  22.374  0.00  0.00    +0.322 C 
ATOM      8  OXT UNL     1       7.649   1.548  22.706  0.00  0.00    -0.249 OA
BRANCH   7   9
ATOM      9  O   UNL     1       9.479   2.416  21.677  0.00  0.00    -0.480 OA
ATOM     10  H   UNL     1       9.252   1.922  20.849  0.00  0.00    +0.295 HD
ENDBRANCH   7   9
ENDBRANCH   3   7
ENDBRANCH   2   3
ENDBRANCH   1   2
BRANCH   1  11
ATOM     11  C   UNL     1       9.453   6.011  23.662  0.00  0.00    +0.196 C 
BRANCH  11  12
ATOM     12  N   UNL     1      10.859   6.166  23.960  0.00  0.00    -0.274 N 
ATOM     13  H   UNL     1      11.085   6.660  24.817  0.00  0.00    +0.258 HD
ATOM     14  C   UNL     1      11.836   5.321  23.546  0.00  0.00    +0.406 C 
ATOM     15  N   UNL     1      13.089   5.847  23.726  0.00  0.00    -0.142 N 
ATOM     16  H   UNL     1      13.146   6.829  23.472  0.00  0.00    +0.299 HD
ATOM     17  N   UNL     1      11.679   4.148  23.029  0.00  0.00    -0.128 NA
ATOM     18  H   UNL     1      10.686   3.920  22.990  0.00  0.00    +0.306 HD
BRANCH  15  19
ATOM     19  O   UNL     1      14.076   5.083  23.075  0.00  0.00    -0.233 OA
ATOM     20  H   UNL     1      14.452   4.555  23.818  0.00  0.00    +0.262 HD
ENDBRANCH  15  19
ENDBRANCH  11  12
ENDBRANCH   1  11
TORSDOF 8
ENDMDL
MODEL 6
REMARK VINA RESULT:      -4.8      4.670      7.803
REMARK  Name = 
REMARK  8 active torsions:
REMARK  status: ('A' for Active; 'I' for Inactive)
REMARK    1  A    between atoms: N_1  and  CA_2
REMARK    2  A    between atoms: CA_2  and  C_4
REMARK    3  A    between atoms: CA_2  and  C_12
REMARK    4  A    between atoms: C_4  and  C_5
REMARK    5  A    between atoms: C_5  and  C_6
REMARK    6  A    between atoms: C_6  and  N_7
REMARK    7  A    between atoms: N_10  and  O_11
REMARK    8  A    between atoms: C_12  and  O_13
REMARK                            x       y       z     vdW  Elec       q    Type
REMARK                         _______ _______ _______ _____ _____    ______ ____
ROOT
ATOM      1  C   UNL     1       9.208  -1.632  22.623  0.00  0.00    +0.039 C 
ENDROOT
BRANCH   1   2
ATOM      2  C   UNL     1      10.145  -0.479  22.253  0.00  0.00    +0.033 C 
BRANCH   2   3
ATOM      3  CA  UNL     1       9.668   0.898  22.726  0.00  0.00    +0.161 C 
BRANCH   3   4
ATOM      4  N   UNL     1      10.063   1.986  21.783  0.00  0.00    -0.318 NA
ATOM      5  H1  UNL     1      10.236   1.577  20.860  0.00  0.00    +0.119 HD
ATOM      6  H2  UNL     1       9.250   2.592  21.643  0.00  0.00    +0.119 HD
ENDBRANCH   3   4
BRANCH   3   7
ATOM      7  C   UNL     1      10.282   1.205  24.108  0.00  0.00    +0.322 C 
ATOM      8  OXT UNL     1      11.371   0.817  24.499  0.00  0.00    -0.249 OA
BRANCH   7   9
ATOM      9  O   UNL     1       9.449   1.974  24.855  0.00  0.00    -0.480 OA
ATOM     10  H   UNL     1       8.556   1.555  24.776  0.00  0.00    +0.295 HD
ENDBRANCH   7   9
ENDBRANCH   3   7
ENDBRANCH   2   3
ENDBRANCH   1   2
BRANCH   1  11
ATOM     11  C   UNL     1       9.848  -2.504  23.704  0.00  0.00    +0.196 C 
BRANCH  11  12
ATOM     12  N   UNL     1       8.853  -3.329  24.353  0.00  0.00    -0.274 N 
ATOM     13  H   UNL     1       7.917  -3.294  23.963  0.00  0.00    +0.258 HD
ATOM     14  C   UNL     1       9.118  -4.474  25.030  0.00  0.00    +0.406 C 
ATOM     15  N   UNL     1       8.047  -4.898  25.773  0.00  0.00    -0.142 N 
ATOM     16  H   UNL     1       7.575  -4.137  26.255  0.00  0.00    +0.299 HD
ATOM     17  N   UNL     1      10.225  -5.138  25.026  0.00  0.00    -0.128 NA
ATOM     18  H   UNL     1      10.896  -4.684  24.407  0.00  0.00    +0.306 HD
BRANCH  15  19
ATOM     19  O   UNL     1       8.401  -5.934  26.658  0.00  0.00    -0.233 OA
ATOM     20  H   UNL     1       8.375  -5.477  27.532  0.00  0.00    +0.262 HD
ENDBRANCH  15  19
ENDBRANCH  11  12
ENDBRANCH   1  11
TORSDOF 8
ENDMDL
MODEL 7
REMARK VINA RESULT:      -4.7      5.207      8.325
REMARK  Name = 
REMARK  8 active torsions:
REMARK  status: ('A' for Active; 'I' for Inactive)
REMARK    1  A    between atoms: N_1  and  CA_2
REMARK    2  A    between atoms: CA_2  and  C_4
REMARK    3  A    between atoms: CA_2  and  C_12
REMARK    4  A    between atoms: C_4  and  C_5
REMARK    5  A    between atoms: C_5  and  C_6
REMARK    6  A    between atoms: C_6  and  N_7
REMARK    7  A    between atoms: N_10  and  O_11
REMARK    8  A    between atoms: C_12  and  O_13
REMARK                            x       y       z     vdW  Elec       q    Type
REMARK                         _______ _______ _______ _____ _____    ______ ____
ROOT
ATOM      1  C   UNL     1       8.194  -2.507  23.213  0.00  0.00    +0.039 C 
ENDROOT
BRANCH   1   2
ATOM      2  C   UNL     1       8.431  -0.996  23.249  0.00  0.00    +0.033 C 
BRANCH   2   3
ATOM      3  CA  UNL     1       9.146  -0.439  22.015  0.00  0.00    +0.161 C 
BRANCH   3   4
ATOM      4  N   UNL     1      10.148  -1.399  21.463  0.00  0.00    -0.318 NA
ATOM      5  H1  UNL     1      10.909  -1.508  22.140  0.00  0.00    +0.119 HD
ATOM      6  H2  UNL     1       9.711  -2.324  21.422  0.00  0.00    +0.119 HD
ENDBRANCH   3   4
BRANCH   3   7
ATOM      7  C   UNL     1       9.879   0.865  22.392  0.00  0.00    +0.322 C 
ATOM      8  OXT UNL     1      10.508   1.049  23.421  0.00  0.00    -0.249 OA
BRANCH   7   9
ATOM      9  O   UNL     1       9.737   1.806  21.422  0.00  0.00    -0.480 OA
ATOM     10  H   UNL     1       9.726   1.307  20.567  0.00  0.00    +0.295 HD
ENDBRANCH   7   9
ENDBRANCH   3   7
ENDBRANCH   2   3
ENDBRANCH   1   2
BRANCH   1  11
ATOM     11  C   UNL     1       8.944  -3.185  24.362  0.00  0.00    +0.196 C 
BRANCH  11  12
ATOM     12  N   UNL     1       8.155  -4.256  24.928  0.00  0.00    -0.274 N 
ATOM     13  H   UNL     1       7.608  -4.806  24.273  0.00  0.00    +0.258 HD
ATOM     14  C   UNL     1       8.453  -4.915  26.076  0.00  0.00    +0.406 C 
ATOM     15  N   UNL     1       7.405  -5.676  26.525  0.00  0.00    -0.142 N 
ATOM     16  H   UNL     1       6.509  -5.203  26.445  0.00  0.00    +0.299 HD
ATOM     17  N   UNL     1       9.567  -4.872  26.727  0.00  0.00    -0.128 NA
ATOM     18  H   UNL     1      10.229  -4.272  26.236  0.00  0.00    +0.306 HD
BRANCH  15  19
ATOM     19  O   UNL     1       7.627  -6.155  27.829  0.00  0.00    -0.233 OA
ATOM     20  H   UNL     1       6.714  -6.387  28.123  0.00  0.00    +0.262 HD
ENDBRANCH  15  19
ENDBRANCH  11  12
ENDBRANCH   1  11
TORSDOF 8
ENDMDL
MODEL 8
REMARK VINA RESULT:      -4.5      8.315     10.757
REMARK  Name = 
REMARK  8 active torsions:
REMARK  status: ('A' for Active; 'I' for Inactive)
REMARK    1  A    between atoms: N_1  and  CA_2
REMARK    2  A    between atoms: CA_2  and  C_4
REMARK    3  A    between atoms: CA_2  and  C_12
REMARK    4  A    between atoms: C_4  and  C_5
REMARK    5  A    between atoms: C_5  and  C_6
REMARK    6  A    between atoms: C_6  and  N_7
REMARK    7  A    between atoms: N_10  and  O_11
REMARK    8  A    between atoms: C_12  and  O_13
REMARK                            x       y       z     vdW  Elec       q    Type
REMARK                         _______ _______ _______ _____ _____    ______ ____
ROOT
ATOM      1  C   UNL     1       6.320  -3.934  24.022  0.00  0.00    +0.039 C 
ENDROOT
BRANCH   1   2
ATOM      2  C   UNL     1       7.754  -4.443  23.864  0.00  0.00    +0.033 C 
BRANCH   2   3
ATOM      3  CA  UNL     1       8.787  -3.692  24.710  0.00  0.00    +0.161 C 
BRANCH   3   4
ATOM      4  N   UNL     1       9.877  -3.103  23.879  0.00  0.00    -0.318 NA
ATOM      5  H1  UNL     1      10.117  -2.179  24.253  0.00  0.00    +0.119 HD
ATOM      6  H2  UNL     1      10.723  -3.662  24.024  0.00  0.00    +0.119 HD
ENDBRANCH   3   4
BRANCH   3   7
ATOM      7  C   UNL     1       9.421  -4.665  25.726  0.00  0.00    +0.322 C 
ATOM      8  OXT UNL     1       9.222  -4.657  26.930  0.00  0.00    -0.249 OA
BRANCH   7   9
ATOM      9  O   UNL     1      10.244  -5.552  25.109  0.00  0.00    -0.480 OA
ATOM     10  H   UNL     1       9.659  -6.097  24.524  0.00  0.00    +0.295 HD
ENDBRANCH   7   9
ENDBRANCH   3   7
ENDBRANCH   2   3
ENDBRANCH   1   2
BRANCH   1  11
ATOM     11  C   UNL     1       5.891  -4.014  25.488  0.00  0.00    +0.196 C 
BRANCH  11  12
ATOM     12  N   UNL     1       5.618  -5.382  25.869  0.00  0.00    -0.274 N 
ATOM     13  H   UNL     1       5.603  -6.063  25.118  0.00  0.00    +0.258 HD
ATOM     14  C   UNL     1       5.896  -5.917  27.084  0.00  0.00    +0.406 C 
ATOM     15  N   UNL     1       5.286  -7.131  27.269  0.00  0.00    -0.142 N 
ATOM     16  H   UNL     1       4.328  -7.148  26.929  0.00  0.00    +0.299 HD
ATOM     17  N   UNL     1       6.633  -5.400  28.009  0.00  0.00    -0.128 NA
ATOM     18  H   UNL     1       7.013  -4.510  27.688  0.00  0.00    +0.306 HD
BRANCH  15  19
ATOM     19  O   UNL     1       5.372  -7.562  28.606  0.00  0.00    -0.233 OA
ATOM     20  H   UNL     1       4.440  -7.465  28.915  0.00  0.00    +0.262 HD
ENDBRANCH  15  19
ENDBRANCH  11  12
ENDBRANCH   1  11
TORSDOF 8
ENDMDL
MODEL 9
REMARK VINA RESULT:      -4.4      3.677      6.591
REMARK  Name = 
REMARK  8 active torsions:
REMARK  status: ('A' for Active; 'I' for Inactive)
REMARK    1  A    between atoms: N_1  and  CA_2
REMARK    2  A    between atoms: CA_2  and  C_4
REMARK    3  A    between atoms: CA_2  and  C_12
REMARK    4  A    between atoms: C_4  and  C_5
REMARK    5  A    between atoms: C_5  and  C_6
REMARK    6  A    between atoms: C_6  and  N_7
REMARK    7  A    between atoms: N_10  and  O_11
REMARK    8  A    between atoms: C_12  and  O_13
REMARK                            x       y       z     vdW  Elec       q    Type
REMARK                         _______ _______ _______ _____ _____    ______ ____
ROOT
ATOM      1  C   UNL     1       9.564  -0.250  25.550  0.00  0.00    +0.039 C 
ENDROOT
BRANCH   1   2
ATOM      2  C   UNL     1      10.522   0.486  24.611  0.00  0.00    +0.033 C 
BRANCH   2   3
ATOM      3  CA  UNL     1       9.859   1.568  23.754  0.00  0.00    +0.161 C 
BRANCH   3   4
ATOM      4  N   UNL     1       8.414   1.742  24.084  0.00  0.00    -0.318 NA
ATOM      5  H1  UNL     1       8.306   2.578  24.667  0.00  0.00    +0.119 HD
ATOM      6  H2  UNL     1       7.918   1.972  23.218  0.00  0.00    +0.119 HD
ENDBRANCH   3   4
BRANCH   3   7
ATOM      7  C   UNL     1       9.976   1.185  22.265  0.00  0.00    +0.322 C 
ATOM      8  OXT UNL     1       9.952   0.047  21.825  0.00  0.00    -0.249 OA
BRANCH   7   9
ATOM      9  O   UNL     1      10.111   2.287  21.482  0.00  0.00    -0.480 OA
ATOM     10  H   UNL     1      10.778   2.044  20.792  0.00  0.00    +0.295 HD
ENDBRANCH   7   9
ENDBRANCH   3   7
ENDBRANCH   2   3
ENDBRANCH   1   2
BRANCH   1  11
ATOM     11  C   UNL     1       9.098  -1.558  24.908  0.00  0.00    +0.196 C 
BRANCH  11  12
ATOM     12  N   UNL     1       7.757  -1.421  24.383  0.00  0.00    -0.274 N 
ATOM     13  H   UNL     1       7.235  -0.608  24.690  0.00  0.00    +0.258 HD
ATOM     14  C   UNL     1       7.338  -1.921  23.194  0.00  0.00    +0.406 C 
ATOM     15  N   UNL     1       5.973  -1.894  23.072  0.00  0.00    -0.142 N 
ATOM     16  H   UNL     1       5.494  -2.177  23.923  0.00  0.00    +0.299 HD
ATOM     17  N   UNL     1       8.078  -2.388  22.245  0.00  0.00    -0.128 NA
ATOM     18  H   UNL     1       9.060  -2.311  22.505  0.00  0.00    +0.306 HD
BRANCH  15  19
ATOM     19  O   UNL     1       5.532  -2.632  21.957  0.00  0.00    -0.233 OA
ATOM     20  H   UNL     1       5.032  -3.369  22.381  0.00  0.00    +0.262 HD
ENDBRANCH  15  19
ENDBRANCH  11  12
ENDBRANCH   1  11
TORSDOF 8
ENDMDL
