MODEL 1
REMARK VINA RESULT:      -4.5      0.000      0.000
REMARK  Name = 
REMARK  4 active torsions:
REMARK  status: ('A' for Active; 'I' for Inactive)
REMARK    1  A    between atoms: C_2  and  O_3
REMARK    2  A    between atoms: C_2  and  C_4
REMARK    3  A    between atoms: C_2  and  C_7
REMARK    4  A    between atoms: C_4  and  C_5
REMARK                            x       y       z     vdW  Elec       q    Type
REMARK                         _______ _______ _______ _____ _____    ______ ____
ROOT
ATOM      1  C   UNL     1      10.432  -1.572  22.647  0.00  0.00    +0.146 C 
ENDROOT
BRANCH   1   2
ATOM      2  C   UNL     1      10.238  -0.090  22.906  0.00  0.00    -0.019 A 
ATOM      3  C   UNL     1       9.795   0.744  21.867  0.00  0.00    +0.006 A 
ATOM      4  C   UNL     1       9.580   2.106  22.088  0.00  0.00    +0.000 A 
ATOM      5  C   UNL     1       9.806   2.653  23.349  0.00  0.00    +0.000 A 
ATOM      6  C   UNL     1      10.261   1.842  24.384  0.00  0.00    +0.000 A 
ATOM      7  C   UNL     1      10.481   0.480  24.164  0.00  0.00    +0.006 A 
ENDBRANCH   1   2
BRANCH   1   8
ATOM      8  O   UNL     1       9.803  -1.937  21.418  0.00  0.00    -0.387 OA
ATOM      9  H   UNL     1       8.863  -2.090  21.617  0.00  0.00    +0.210 HD
ENDBRANCH   1   8
BRANCH   1  10
ATOM     10  C   UNL     1       9.854  -2.429  23.780  0.00  0.00    +0.052 C 
BRANCH  10  11
ATOM     11  C   UNL     1       8.456  -2.965  23.485  0.00  0.00    +0.111 C 
ATOM     12 CL   UNL     1       7.197  -1.740  23.777  0.00  0.00    -0.125 Cl
ENDBRANCH  10  11
ENDBRANCH   1  10
TORSDOF 4
ENDMDL
MODEL 2
REMARK VINA RESULT:      -4.3      1.562      2.134
REMARK  Name = 
REMARK  4 active torsions:
REMARK  status: ('A' for Active; 'I' for Inactive)
REMARK    1  A    between atoms: C_2  and  O_3
REMARK    2  A    between atoms: C_2  and  C_4
REMARK    3  A    between atoms: C_2  and  C_7
REMARK    4  A    between atoms: C_4  and  C_5
REMARK                            x       y       z     vdW  Elec       q    Type
REMARK                         _______ _______ _______ _____ _____    ______ ____
ROOT
ATOM      1  C   UNL     1       9.760  -1.960  23.008  0.00  0.00    +0.146 C 
ENDROOT
BRANCH   1   2
ATOM      2  C   UNL     1       9.963  -0.458  23.029  0.00  0.00    -0.019 A 
ATOM      3  C   UNL     1      10.411   0.166  24.205  0.00  0.00    +0.006 A 
ATOM      4  C   UNL     1      10.635   1.544  24.242  0.00  0.00    +0.000 A 
ATOM      5  C   UNL     1      10.412   2.318  23.105  0.00  0.00    +0.000 A 
ATOM      6  C   UNL     1       9.951   1.716  21.937  0.00  0.00    +0.000 A 
ATOM      7  C   UNL     1       9.723   0.339  21.900  0.00  0.00    +0.006 A 
ENDBRANCH   1   2
BRANCH   1   8
ATOM      8  O   UNL     1       8.734  -2.299  22.073  0.00  0.00    -0.387 OA
ATOM      9  H   UNL     1       8.976  -3.159  21.689  0.00  0.00    +0.210 HD
ENDBRANCH   1   8
BRANCH   1  10
ATOM     10  C   UNL     1       9.376  -2.503  24.390  0.00  0.00    +0.052 C 
BRANCH  10  11
ATOM     11  C   UNL     1       8.867  -3.941  24.359  0.00  0.00    +0.111 C 
ATOM     12 CL   UNL     1       9.839  -5.015  25.394  0.00  0.00    -0.125 Cl
ENDBRANCH  10  11
ENDBRANCH   1  10
TORSDOF 4
ENDMDL
MODEL 3
REMARK VINA RESULT:      -4.3      1.967      2.738
REMARK  Name = 
REMARK  4 active torsions:
REMARK  status: ('A' for Active; 'I' for Inactive)
REMARK    1  A    between atoms: C_2  and  O_3
REMARK    2  A    between atoms: C_2  and  C_4
REMARK    3  A    between atoms: C_2  and  C_7
REMARK    4  A    between atoms: C_4  and  C_5
REMARK                            x       y       z     vdW  Elec       q    Type
REMARK                         _______ _______ _______ _____ _____    ______ ____
ROOT
ATOM      1  C   UNL     1       8.970  -2.669  23.939  0.00  0.00    +0.146 C 
ENDROOT
BRANCH   1   2
ATOM      2  C   UNL     1       9.326  -1.332  23.318  0.00  0.00    -0.019 A 
ATOM      3  C   UNL     1      10.017  -0.375  24.079  0.00  0.00    +0.006 A 
ATOM      4  C   UNL     1      10.383   0.852  23.521  0.00  0.00    +0.000 A 
ATOM      5  C   UNL     1      10.061   1.140  22.197  0.00  0.00    +0.000 A 
ATOM      6  C   UNL     1       9.361   0.208  21.436  0.00  0.00    +0.000 A 
ATOM      7  C   UNL     1       8.991  -1.018  21.993  0.00  0.00    +0.006 A 
ENDBRANCH   1   2
BRANCH   1   8
ATOM      8  O   UNL     1      10.151  -3.455  24.112  0.00  0.00    -0.387 OA
ATOM      9  H   UNL     1      10.882  -2.833  24.267  0.00  0.00    +0.210 HD
ENDBRANCH   1   8
BRANCH   1  10
ATOM     10  C   UNL     1       7.970  -3.450  23.077  0.00  0.00    +0.052 C 
BRANCH  10  11
ATOM     11  C   UNL     1       7.787  -4.899  23.519  0.00  0.00    +0.111 C 
ATOM     12 CL   UNL     1       7.357  -5.961  22.157  0.00  0.00    -0.125 Cl
ENDBRANCH  10  11
ENDBRANCH   1  10
TORSDOF 4
ENDMDL
MODEL 4
REMARK VINA RESULT:      -4.2      1.917      4.674
REMARK  Name = 
REMARK  4 active torsions:
REMARK  status: ('A' for Active; 'I' for Inactive)
REMARK    1  A    between atoms: C_2  and  O_3
REMARK    2  A    between atoms: C_2  and  C_4
REMARK    3  A    between atoms: C_2  and  C_7
REMARK    4  A    between atoms: C_4  and  C_5
REMARK                            x       y       z     vdW  Elec       q    Type
REMARK                         _______ _______ _______ _____ _____    ______ ____
ROOT
ATOM      1  C   UNL     1       8.922  -1.431  22.092  0.00  0.00    +0.146 C 
ENDROOT
BRANCH   1   2
ATOM      2  C   UNL     1       8.714  -2.645  22.976  0.00  0.00    -0.019 A 
ATOM      3  C   UNL     1       7.677  -3.547  22.686  0.00  0.00    +0.006 A 
ATOM      4  C   UNL     1       7.484  -4.688  23.467  0.00  0.00    +0.000 A 
ATOM      5  C   UNL     1       8.322  -4.942  24.551  0.00  0.00    +0.000 A 
ATOM      6  C   UNL     1       9.342  -4.048  24.862  0.00  0.00    +0.000 A 
ATOM      7  C   UNL     1       9.535  -2.905  24.083  0.00  0.00    +0.006 A 
ENDBRANCH   1   2
BRANCH   1   8
ATOM      8  O   UNL     1      10.203  -1.501  21.464  0.00  0.00    -0.387 OA
ATOM      9  H   UNL     1      10.083  -1.990  20.632  0.00  0.00    +0.210 HD
ENDBRANCH   1   8
BRANCH   1  10
ATOM     10  C   UNL     1       8.824  -0.123  22.886  0.00  0.00    +0.052 C 
BRANCH  10  11
ATOM     11  C   UNL     1      10.134   0.658  22.936  0.00  0.00    +0.111 C 
ATOM     12 CL   UNL     1      10.912   0.552  24.534  0.00  0.00    -0.125 Cl
ENDBRANCH  10  11
ENDBRANCH   1  10
TORSDOF 4
ENDMDL
MODEL 5
REMARK VINA RESULT:      -4.2      2.970      4.638
REMARK  Name = 
REMARK  4 active torsions:
REMARK  status: ('A' for Active; 'I' for Inactive)
REMARK    1  A    between atoms: C_2  and  O_3
REMARK    2  A    between atoms: C_2  and  C_4
REMARK    3  A    between atoms: C_2  and  C_7
REMARK    4  A    between atoms: C_4  and  C_5
REMARK                            x       y       z     vdW  Elec       q    Type
REMARK                         _______ _______ _______ _____ _____    ______ ____
ROOT
ATOM      1  C   UNL     1       9.473   2.119  22.728  0.00  0.00    +0.146 C 
ENDROOT
BRANCH   1   2
ATOM      2  C   UNL     1       9.595   0.655  23.105  0.00  0.00    -0.019 A 
ATOM      3  C   UNL     1       9.920  -0.292  22.120  0.00  0.00    +0.006 A 
ATOM      4  C   UNL     1      10.068  -1.641  22.447  0.00  0.00    +0.000 A 
ATOM      5  C   UNL     1       9.889  -2.064  23.763  0.00  0.00    +0.000 A 
ATOM      6  C   UNL     1       9.549  -1.140  24.747  0.00  0.00    +0.000 A 
ATOM      7  C   UNL     1       9.398   0.210  24.421  0.00  0.00    +0.006 A 
ENDBRANCH   1   2
BRANCH   1   8
ATOM      8  O   UNL     1       9.941   2.317  21.393  0.00  0.00    -0.387 OA
ATOM      9  H   UNL     1       9.251   2.817  20.924  0.00  0.00    +0.210 HD
ENDBRANCH   1   8
BRANCH   1  10
ATOM     10  C   UNL     1      10.272   3.020  23.678  0.00  0.00    +0.052 C 
BRANCH  10  11
ATOM     11  C   UNL     1       9.636   4.390  23.895  0.00  0.00    +0.111 C 
ATOM     12 CL   UNL     1      10.807   5.711  23.665  0.00  0.00    -0.125 Cl
ENDBRANCH  10  11
ENDBRANCH   1  10
TORSDOF 4
ENDMDL
MODEL 6
REMARK VINA RESULT:      -4.1      2.078      4.926
REMARK  Name = 
REMARK  4 active torsions:
REMARK  status: ('A' for Active; 'I' for Inactive)
REMARK    1  A    between atoms: C_2  and  O_3
REMARK    2  A    between atoms: C_2  and  C_4
REMARK    3  A    between atoms: C_2  and  C_7
REMARK    4  A    between atoms: C_4  and  C_5
REMARK                            x       y       z     vdW  Elec       q    Type
REMARK                         _______ _______ _______ _____ _____    ______ ____
ROOT
ATOM      1  C   UNL     1       8.888  -1.481  22.110  0.00  0.00    +0.146 C 
ENDROOT
BRANCH   1   2
ATOM      2  C   UNL     1       8.665  -2.723  22.951  0.00  0.00    -0.019 A 
ATOM      3  C   UNL     1       9.496  -2.971  24.057  0.00  0.00    +0.006 A 
ATOM      4  C   UNL     1       9.292  -4.091  24.865  0.00  0.00    +0.000 A 
ATOM      5  C   UNL     1       8.258  -4.980  24.579  0.00  0.00    +0.000 A 
ATOM      6  C   UNL     1       7.438  -4.757  23.476  0.00  0.00    +0.000 A 
ATOM      7  C   UNL     1       7.642  -3.638  22.665  0.00  0.00    +0.006 A 
ENDBRANCH   1   2
BRANCH   1   8
ATOM      8  O   UNL     1      10.187  -1.521  21.518  0.00  0.00    -0.387 OA
ATOM      9  H   UNL     1      10.830  -1.499  22.247  0.00  0.00    +0.210 HD
ENDBRANCH   1   8
BRANCH   1  10
ATOM     10  C   UNL     1       8.756  -0.198  22.941  0.00  0.00    +0.052 C 
BRANCH  10  11
ATOM     11  C   UNL     1      10.066   0.571  23.085  0.00  0.00    +0.111 C 
ATOM     12 CL   UNL     1      10.172   1.927  21.937  0.00  0.00    -0.125 Cl
ENDBRANCH  10  11
ENDBRANCH   1  10
TORSDOF 4
ENDMDL
MODEL 7
REMARK VINA RESULT:      -4.1      2.364      4.268
REMARK  Name = 
REMARK  4 active torsions:
REMARK  status: ('A' for Active; 'I' for Inactive)
REMARK    1  A    between atoms: C_2  and  O_3
REMARK    2  A    between atoms: C_2  and  C_4
REMARK    3  A    between atoms: C_2  and  C_7
REMARK    4  A    between atoms: C_4  and  C_5
REMARK                            x       y       z     vdW  Elec       q    Type
REMARK                         _______ _______ _______ _____ _____    ______ ____
ROOT
ATOM      1  C   UNL     1       8.713   1.528  21.506  0.00  0.00    +0.146 C 
ENDROOT
BRANCH   1   2
ATOM      2  C   UNL     1       8.863   0.180  22.183  0.00  0.00    -0.019 A 
ATOM      3  C   UNL     1       7.760  -0.399  22.832  0.00  0.00    +0.006 A 
ATOM      4  C   UNL     1       7.864  -1.653  23.437  0.00  0.00    +0.000 A 
ATOM      5  C   UNL     1       9.073  -2.345  23.405  0.00  0.00    +0.000 A 
ATOM      6  C   UNL     1      10.180  -1.776  22.782  0.00  0.00    +0.000 A 
ATOM      7  C   UNL     1      10.079  -0.521  22.179  0.00  0.00    +0.006 A 
ENDBRANCH   1   2
BRANCH   1   8
ATOM      8  O   UNL     1       9.976   2.195  21.464  0.00  0.00    -0.387 OA
ATOM      9  H   UNL     1      10.134   2.440  20.537  0.00  0.00    +0.210 HD
ENDBRANCH   1   8
BRANCH   1  10
ATOM     10  C   UNL     1       7.699   2.421  22.231  0.00  0.00    +0.052 C 
BRANCH  10  11
ATOM     11  C   UNL     1       8.344   3.449  23.155  0.00  0.00    +0.111 C 
ATOM     12 CL   UNL     1       8.851   2.729  24.702  0.00  0.00    -0.125 Cl
ENDBRANCH  10  11
ENDBRANCH   1  10
TORSDOF 4
ENDMDL
MODEL 8
REMARK VINA RESULT:      -3.9      4.153      5.397
REMARK  Name = 
REMARK  4 active torsions:
REMARK  status: ('A' for Active; 'I' for Inactive)
REMARK    1  A    between atoms: C_2  and  O_3
REMARK    2  A    between atoms: C_2  and  C_4
REMARK    3  A    between atoms: C_2  and  C_7
REMARK    4  A    between atoms: C_4  and  C_5
REMARK                            x       y       z     vdW  Elec       q    Type
REMARK                         _______ _______ _______ _____ _____    ______ ____
ROOT
ATOM      1  C   UNL     1       9.165  -4.702  25.568  0.00  0.00    +0.146 C 
ENDROOT
BRANCH   1   2
ATOM      2  C   UNL     1       8.453  -4.320  24.285  0.00  0.00    -0.019 A 
ATOM      3  C   UNL     1       7.799  -5.310  23.533  0.00  0.00    +0.006 A 
ATOM      4  C   UNL     1       7.110  -4.979  22.364  0.00  0.00    +0.000 A 
ATOM      5  C   UNL     1       7.068  -3.656  21.929  0.00  0.00    +0.000 A 
ATOM      6  C   UNL     1       7.727  -2.667  22.655  0.00  0.00    +0.000 A 
ATOM      7  C   UNL     1       8.419  -2.997  23.822  0.00  0.00    +0.006 A 
ENDBRANCH   1   2
BRANCH   1   8
ATOM      8  O   UNL     1      10.168  -5.682  25.295  0.00  0.00    -0.387 OA
ATOM      9  H   UNL     1      10.353  -5.637  24.341  0.00  0.00    +0.210 HD
ENDBRANCH   1   8
BRANCH   1  10
ATOM     10  C   UNL     1       8.193  -5.259  26.616  0.00  0.00    +0.052 C 
BRANCH  10  11
ATOM     11  C   UNL     1       7.102  -4.272  27.019  0.00  0.00    +0.111 C 
ATOM     12 CL   UNL     1       5.519  -4.711  26.332  0.00  0.00    -0.125 Cl
ENDBRANCH  10  11
ENDBRANCH   1  10
TORSDOF 4
ENDMDL
MODEL 9
REMARK VINA RESULT:      -3.9      4.669      6.475
REMARK  Name = 
REMARK  4 active torsions:
REMARK  status: ('A' for Active; 'I' for Inactive)
REMARK    1  A    between atoms: C_2  and  O_3
REMARK    2  A    between atoms: C_2  and  C_4
REMARK    3  A    between atoms: C_2  and  C_7
REMARK    4  A    between atoms: C_4  and  C_5
REMARK                            x       y       z     vdW  Elec       q    Type
REMARK                         _______ _______ _______ _____ _____    ______ ____
ROOT
ATOM      1  C   UNL     1       8.883  -4.722  24.930  0.00  0.00    +0.146 C 
ENDROOT
BRANCH   1   2
ATOM      2  C   UNL     1       7.638  -5.163  24.187  0.00  0.00    -0.019 A 
ATOM      3  C   UNL     1       6.418  -5.267  24.876  0.00  0.00    +0.006 A 
ATOM      4  C   UNL     1       5.250  -5.642  24.208  0.00  0.00    +0.000 A 
ATOM      5  C   UNL     1       5.286  -5.921  22.844  0.00  0.00    +0.000 A 
ATOM      6  C   UNL     1       6.491  -5.840  22.151  0.00  0.00    +0.000 A 
ATOM      7  C   UNL     1       7.660  -5.468  22.818  0.00  0.00    +0.006 A 
ENDBRANCH   1   2
BRANCH   1   8
ATOM      8  O   UNL     1       9.759  -5.835  25.116  0.00  0.00    -0.387 OA
ATOM      9  H   UNL     1      10.599  -5.608  24.681  0.00  0.00    +0.210 HD
ENDBRANCH   1   8
BRANCH   1  10
ATOM     10  C   UNL     1       8.547  -4.116  26.298  0.00  0.00    +0.052 C 
BRANCH  10  11
ATOM     11  C   UNL     1       8.500  -2.591  26.294  0.00  0.00    +0.111 C 
ATOM     12 CL   UNL     1       9.015  -1.913  24.730  0.00  0.00    -0.125 Cl
ENDBRANCH  10  11
ENDBRANCH   1  10
TORSDOF 4
ENDMDL
