MODEL 1
REMARK VINA RESULT:      -6.7      0.000      0.000
REMARK  Name = 
REMARK  4 active torsions:
REMARK  status: ('A' for Active; 'I' for Inactive)
REMARK    1  A    between atoms: C_1  and  O_2
REMARK    2  A    between atoms: O_2  and  C_3
REMARK    3  A    between atoms: C_6  and  N_9
REMARK    4  A    between atoms: C_15  and  C_18
REMARK                            x       y       z     vdW  Elec       q    Type
REMARK                         _______ _______ _______ _____ _____    ______ ____
ROOT
ATOM      1  N   UNL     1       6.967  -3.298  23.163  0.00  0.00    -0.299 N 
ATOM      2  C   UNL     1       6.247  -4.297  23.818  0.00  0.00    +0.074 A 
ATOM      3  C   UNL     1       6.135  -4.702  25.161  0.00  0.00    +0.041 A 
ATOM      4  C   UNL     1       5.310  -5.796  25.468  0.00  0.00    +0.041 A 
ATOM      5  C   UNL     1       4.570  -6.430  24.468  0.00  0.00    +0.015 A 
ATOM      6  C   UNL     1       4.640  -5.977  23.141  0.00  0.00    +0.030 A 
ATOM      7  C   UNL     1       5.484  -4.899  22.819  0.00  0.00    +0.089 A 
ATOM      8  N   UNL     1       5.676  -4.285  21.613  0.00  0.00    -0.235 NA
ATOM      9  C   UNL     1       6.537  -3.324  21.853  0.00  0.00    +0.205 A 
ENDROOT
BRANCH   4  10
ATOM     10  C   UNL     1       5.279  -6.243  26.867  0.00  0.00    +0.247 A 
ATOM     11  O   UNL     1       4.059  -6.424  27.436  0.00  0.00    -0.412 OA
ATOM     12  C   UNL     1       4.362  -6.843  28.690  0.00  0.00    +0.264 A 
ATOM     13  S   UNL     1       3.209  -7.211  29.798  0.00  0.00    +0.011 S 
ATOM     14  N   UNL     1       5.719  -6.885  28.796  0.00  0.00    -0.237 N 
ATOM     15  H   UNL     1       6.260  -7.165  29.606  0.00  0.00    +0.193 HD
ATOM     16  N   UNL     1       6.301  -6.502  27.630  0.00  0.00    -0.132 NA
ENDBRANCH   4  10
BRANCH   1  20
ATOM     17  C   UNL     1       9.764  -0.477  24.623  0.00  0.00    +0.120 A 
ATOM     18  C   UNL     1       8.445  -0.449  25.063  0.00  0.00    +0.047 A 
ATOM     19  C   UNL     1       7.539  -1.414  24.620  0.00  0.00    +0.030 A 
ATOM     20  C   UNL     1       7.932  -2.404  23.717  0.00  0.00    +0.048 A 
ATOM     21  C   UNL     1       9.284  -2.494  23.356  0.00  0.00    +0.030 A 
ATOM     22  C   UNL     1      10.192  -1.530  23.813  0.00  0.00    +0.047 A 
BRANCH  17  24
ATOM     23  C   UNL     1      10.614   1.674  24.219  0.00  0.00    +0.277 C 
ATOM     24  O   UNL     1      10.704   0.457  24.962  0.00  0.00    -0.495 OA
ENDBRANCH  17  24
ENDBRANCH   1  20
TORSDOF 3
ENDMDL
MODEL 2
REMARK VINA RESULT:      -6.7      2.830      4.191
REMARK  Name = 
REMARK  4 active torsions:
REMARK  status: ('A' for Active; 'I' for Inactive)
REMARK    1  A    between atoms: C_1  and  O_2
REMARK    2  A    between atoms: O_2  and  C_3
REMARK    3  A    between atoms: C_6  and  N_9
REMARK    4  A    between atoms: C_15  and  C_18
REMARK                            x       y       z     vdW  Elec       q    Type
REMARK                         _______ _______ _______ _____ _____    ______ ____
ROOT
ATOM      1  N   UNL     1       7.633  -4.526  25.453  0.00  0.00    -0.299 N 
ATOM      2  C   UNL     1       6.399  -5.174  25.506  0.00  0.00    +0.074 A 
ATOM      3  C   UNL     1       5.337  -5.335  24.598  0.00  0.00    +0.041 A 
ATOM      4  C   UNL     1       4.202  -6.051  25.008  0.00  0.00    +0.041 A 
ATOM      5  C   UNL     1       4.154  -6.643  26.272  0.00  0.00    +0.015 A 
ATOM      6  C   UNL     1       5.245  -6.531  27.147  0.00  0.00    +0.030 A 
ATOM      7  C   UNL     1       6.377  -5.793  26.755  0.00  0.00    +0.089 A 
ATOM      8  N   UNL     1       7.547  -5.585  27.431  0.00  0.00    -0.235 NA
ATOM      9  C   UNL     1       8.282  -4.856  26.624  0.00  0.00    +0.205 A 
ENDROOT
BRANCH   4  10
ATOM     10  C   UNL     1       3.079  -6.131  24.064  0.00  0.00    +0.247 A 
ATOM     11  O   UNL     1       2.665  -7.370  23.691  0.00  0.00    -0.412 OA
ATOM     12  C   UNL     1       1.631  -7.110  22.851  0.00  0.00    +0.264 A 
ATOM     13  S   UNL     1       0.770  -8.301  22.122  0.00  0.00    +0.011 S 
ATOM     14  N   UNL     1       1.493  -5.758  22.770  0.00  0.00    -0.237 N 
ATOM     15  H   UNL     1       0.805  -5.246  22.230  0.00  0.00    +0.193 HD
ATOM     16  N   UNL     1       2.418  -5.136  23.547  0.00  0.00    -0.132 NA
ENDBRANCH   4  10
BRANCH   1  20
ATOM     17  C   UNL     1       9.102  -1.894  22.481  0.00  0.00    +0.120 A 
ATOM     18  C   UNL     1       9.924  -2.298  23.528  0.00  0.00    +0.047 A 
ATOM     19  C   UNL     1       9.453  -3.208  24.476  0.00  0.00    +0.030 A 
ATOM     20  C   UNL     1       8.150  -3.709  24.404  0.00  0.00    +0.048 A 
ATOM     21  C   UNL     1       7.361  -3.383  23.292  0.00  0.00    +0.030 A 
ATOM     22  C   UNL     1       7.843  -2.477  22.336  0.00  0.00    +0.047 A 
BRANCH  17  24
ATOM     23  C   UNL     1       9.929   0.267  22.084  0.00  0.00    +0.277 C 
ATOM     24  O   UNL     1       9.460  -0.968  21.540  0.00  0.00    -0.495 OA
ENDBRANCH  17  24
ENDBRANCH   1  20
TORSDOF 3
ENDMDL
MODEL 3
REMARK VINA RESULT:      -6.6      4.603      8.297
REMARK  Name = 
REMARK  4 active torsions:
REMARK  status: ('A' for Active; 'I' for Inactive)
REMARK    1  A    between atoms: C_1  and  O_2
REMARK    2  A    between atoms: O_2  and  C_3
REMARK    3  A    between atoms: C_6  and  N_9
REMARK    4  A    between atoms: C_15  and  C_18
REMARK                            x       y       z     vdW  Elec       q    Type
REMARK                         _______ _______ _______ _____ _____    ______ ____
ROOT
ATOM      1  N   UNL     1       8.290  -1.763  22.769  0.00  0.00    -0.299 N 
ATOM      2  C   UNL     1       8.329  -0.377  22.616  0.00  0.00    +0.074 A 
ATOM      3  C   UNL     1       7.356   0.639  22.645  0.00  0.00    +0.041 A 
ATOM      4  C   UNL     1       7.759   1.965  22.421  0.00  0.00    +0.041 A 
ATOM      5  C   UNL     1       9.107   2.275  22.233  0.00  0.00    +0.015 A 
ATOM      6  C   UNL     1      10.078   1.262  22.269  0.00  0.00    +0.030 A 
ATOM      7  C   UNL     1       9.681  -0.073  22.466  0.00  0.00    +0.089 A 
ATOM      8  N   UNL     1      10.454  -1.196  22.566  0.00  0.00    -0.235 NA
ATOM      9  C   UNL     1       9.606  -2.177  22.773  0.00  0.00    +0.205 A 
ENDROOT
BRANCH   4  10
ATOM     10  C   UNL     1       6.707   2.990  22.379  0.00  0.00    +0.247 A 
ATOM     11  O   UNL     1       5.432   2.583  22.607  0.00  0.00    -0.412 OA
ATOM     12  C   UNL     1       4.720   3.735  22.518  0.00  0.00    +0.264 A 
ATOM     13  S   UNL     1       3.094   3.783  22.728  0.00  0.00    +0.011 S 
ATOM     14  N   UNL     1       5.594   4.742  22.244  0.00  0.00    -0.237 N 
ATOM     15  H   UNL     1       5.376   5.725  22.125  0.00  0.00    +0.193 HD
ATOM     16  N   UNL     1       6.863   4.263  22.156  0.00  0.00    -0.132 NA
ENDBRANCH   4  10
BRANCH   1  20
ATOM     17  C   UNL     1       4.777  -4.110  23.020  0.00  0.00    +0.120 A 
ATOM     18  C   UNL     1       5.804  -4.475  22.157  0.00  0.00    +0.047 A 
ATOM     19  C   UNL     1       6.983  -3.729  22.116  0.00  0.00    +0.030 A 
ATOM     20  C   UNL     1       7.143  -2.598  22.920  0.00  0.00    +0.048 A 
ATOM     21  C   UNL     1       6.152  -2.292  23.864  0.00  0.00    +0.030 A 
ATOM     22  C   UNL     1       4.975  -3.052  23.909  0.00  0.00    +0.047 A 
BRANCH  17  24
ATOM     23  C   UNL     1       3.665  -6.155  23.324  0.00  0.00    +0.277 C 
ATOM     24  O   UNL     1       3.570  -4.749  23.088  0.00  0.00    -0.495 OA
ENDBRANCH  17  24
ENDBRANCH   1  20
TORSDOF 3
ENDMDL
MODEL 4
REMARK VINA RESULT:      -6.6      0.586      1.153
REMARK  Name = 
REMARK  4 active torsions:
REMARK  status: ('A' for Active; 'I' for Inactive)
REMARK    1  A    between atoms: C_1  and  O_2
REMARK    2  A    between atoms: O_2  and  C_3
REMARK    3  A    between atoms: C_6  and  N_9
REMARK    4  A    between atoms: C_15  and  C_18
REMARK                            x       y       z     vdW  Elec       q    Type
REMARK                         _______ _______ _______ _____ _____    ______ ____
ROOT
ATOM      1  N   UNL     1       6.845  -3.379  22.836  0.00  0.00    -0.299 N 
ATOM      2  C   UNL     1       6.255  -4.330  23.670  0.00  0.00    +0.074 A 
ATOM      3  C   UNL     1       6.331  -4.607  25.047  0.00  0.00    +0.041 A 
ATOM      4  C   UNL     1       5.597  -5.689  25.558  0.00  0.00    +0.041 A 
ATOM      5  C   UNL     1       4.762  -6.437  24.726  0.00  0.00    +0.015 A 
ATOM      6  C   UNL     1       4.644  -6.113  23.365  0.00  0.00    +0.030 A 
ATOM      7  C   UNL     1       5.397  -5.047  22.838  0.00  0.00    +0.089 A 
ATOM      8  N   UNL     1       5.410  -4.548  21.566  0.00  0.00    -0.235 NA
ATOM      9  C   UNL     1       6.254  -3.544  21.601  0.00  0.00    +0.205 A 
ENDROOT
BRANCH   4  10
ATOM     10  C   UNL     1       5.761  -5.999  26.985  0.00  0.00    +0.247 A 
ATOM     11  O   UNL     1       4.634  -6.081  27.738  0.00  0.00    -0.412 OA
ATOM     12  C   UNL     1       5.109  -6.389  28.972  0.00  0.00    +0.264 A 
ATOM     13  S   UNL     1       4.124  -6.607  30.265  0.00  0.00    +0.011 S 
ATOM     14  N   UNL     1       6.466  -6.470  28.885  0.00  0.00    -0.237 N 
ATOM     15  H   UNL     1       7.113  -6.691  29.632  0.00  0.00    +0.193 HD
ATOM     16  N   UNL     1       6.878  -6.221  27.614  0.00  0.00    -0.132 NA
ENDBRANCH   4  10
BRANCH   1  20
ATOM     17  C   UNL     1       9.826  -0.635  24.060  0.00  0.00    +0.120 A 
ATOM     18  C   UNL     1      10.175  -1.777  23.346  0.00  0.00    +0.047 A 
ATOM     19  C   UNL     1       9.183  -2.652  22.898  0.00  0.00    +0.030 A 
ATOM     20  C   UNL     1       7.835  -2.410  23.175  0.00  0.00    +0.048 A 
ATOM     21  C   UNL     1       7.478  -1.207  23.801  0.00  0.00    +0.030 A 
ATOM     22  C   UNL     1       8.477  -0.326  24.239  0.00  0.00    +0.047 A 
BRANCH  17  24
ATOM     23  C   UNL     1      10.563   1.593  24.132  0.00  0.00    +0.277 C 
ATOM     24  O   UNL     1      10.731   0.248  24.582  0.00  0.00    -0.495 OA
ENDBRANCH  17  24
ENDBRANCH   1  20
TORSDOF 3
ENDMDL
MODEL 5
REMARK VINA RESULT:      -6.6      4.675      8.570
REMARK  Name = 
REMARK  4 active torsions:
REMARK  status: ('A' for Active; 'I' for Inactive)
REMARK    1  A    between atoms: C_1  and  O_2
REMARK    2  A    between atoms: O_2  and  C_3
REMARK    3  A    between atoms: C_6  and  N_9
REMARK    4  A    between atoms: C_15  and  C_18
REMARK                            x       y       z     vdW  Elec       q    Type
REMARK                         _______ _______ _______ _____ _____    ______ ____
ROOT
ATOM      1  N   UNL     1       8.275  -2.037  23.351  0.00  0.00    -0.299 N 
ATOM      2  C   UNL     1       8.539  -0.673  23.219  0.00  0.00    +0.074 A 
ATOM      3  C   UNL     1       7.739   0.460  22.981  0.00  0.00    +0.041 A 
ATOM      4  C   UNL     1       8.361   1.715  22.882  0.00  0.00    +0.041 A 
ATOM      5  C   UNL     1       9.738   1.842  23.075  0.00  0.00    +0.015 A 
ATOM      6  C   UNL     1      10.518   0.715  23.376  0.00  0.00    +0.030 A 
ATOM      7  C   UNL     1       9.908  -0.551  23.451  0.00  0.00    +0.089 A 
ATOM      8  N   UNL     1      10.467  -1.760  23.757  0.00  0.00    -0.235 NA
ATOM      9  C   UNL     1       9.472  -2.616  23.718  0.00  0.00    +0.205 A 
ENDROOT
BRANCH   4  10
ATOM     10  C   UNL     1       7.507   2.865  22.553  0.00  0.00    +0.247 A 
ATOM     11  O   UNL     1       8.068   4.099  22.634  0.00  0.00    -0.412 OA
ATOM     12  C   UNL     1       7.054   4.922  22.262  0.00  0.00    +0.264 A 
ATOM     13  S   UNL     1       7.228   6.552  22.188  0.00  0.00    +0.011 S 
ATOM     14  N   UNL     1       5.969   4.147  21.989  0.00  0.00    -0.237 N 
ATOM     15  H   UNL     1       5.057   4.461  21.679  0.00  0.00    +0.193 HD
ATOM     16  N   UNL     1       6.263   2.833  22.175  0.00  0.00    -0.132 NA
ENDBRANCH   4  10
BRANCH   1  20
ATOM     17  C   UNL     1       4.665  -4.217  22.997  0.00  0.00    +0.120 A 
ATOM     18  C   UNL     1       4.815  -3.267  24.002  0.00  0.00    +0.047 A 
ATOM     19  C   UNL     1       5.987  -2.513  24.083  0.00  0.00    +0.030 A 
ATOM     20  C   UNL     1       7.031  -2.711  23.176  0.00  0.00    +0.048 A 
ATOM     21  C   UNL     1       6.836  -3.591  22.102  0.00  0.00    +0.030 A 
ATOM     22  C   UNL     1       5.653  -4.338  22.019  0.00  0.00    +0.047 A 
BRANCH  17  24
ATOM     23  C   UNL     1       3.666  -6.245  23.631  0.00  0.00    +0.277 C 
ATOM     24  O   UNL     1       3.577  -5.036  22.875  0.00  0.00    -0.495 OA
ENDBRANCH  17  24
ENDBRANCH   1  20
TORSDOF 3
ENDMDL
MODEL 6
REMARK VINA RESULT:      -6.6      6.582      9.569
REMARK  Name = 
REMARK  4 active torsions:
REMARK  status: ('A' for Active; 'I' for Inactive)
REMARK    1  A    between atoms: C_1  and  O_2
REMARK    2  A    between atoms: O_2  and  C_3
REMARK    3  A    between atoms: C_6  and  N_9
REMARK    4  A    between atoms: C_15  and  C_18
REMARK                            x       y       z     vdW  Elec       q    Type
REMARK                         _______ _______ _______ _____ _____    ______ ____
ROOT
ATOM      1  N   UNL     1      10.543   3.562  23.467  0.00  0.00    -0.299 N 
ATOM      2  C   UNL     1       9.530   4.454  23.818  0.00  0.00    +0.074 A 
ATOM      3  C   UNL     1       8.164   4.313  24.128  0.00  0.00    +0.041 A 
ATOM      4  C   UNL     1       7.418   5.465  24.421  0.00  0.00    +0.041 A 
ATOM      5  C   UNL     1       8.032   6.718  24.463  0.00  0.00    +0.015 A 
ATOM      6  C   UNL     1       9.408   6.840  24.216  0.00  0.00    +0.030 A 
ATOM      7  C   UNL     1      10.160   5.695  23.895  0.00  0.00    +0.089 A 
ATOM      8  N   UNL     1      11.501   5.585  23.652  0.00  0.00    -0.235 NA
ATOM      9  C   UNL     1      11.703   4.307  23.430  0.00  0.00    +0.205 A 
ENDROOT
BRANCH   4  10
ATOM     10  C   UNL     1       5.978   5.291  24.660  0.00  0.00    +0.247 A 
ATOM     11  O   UNL     1       5.321   4.396  23.878  0.00  0.00    -0.412 OA
ATOM     12  C   UNL     1       4.049   4.454  24.347  0.00  0.00    +0.264 A 
ATOM     13  S   UNL     1       2.840   3.535  23.724  0.00  0.00    +0.011 S 
ATOM     14  N   UNL     1       4.021   5.363  25.360  0.00  0.00    -0.237 N 
ATOM     15  H   UNL     1       3.219   5.628  25.920  0.00  0.00    +0.193 HD
ATOM     16  N   UNL     1       5.255   5.895  25.558  0.00  0.00    -0.132 NA
ENDBRANCH   4  10
BRANCH   1  20
ATOM     17  C   UNL     1       9.962  -0.576  22.796  0.00  0.00    +0.120 A 
ATOM     18  C   UNL     1       9.739   0.338  21.772  0.00  0.00    +0.047 A 
ATOM     19  C   UNL     1       9.983   1.697  21.981  0.00  0.00    +0.030 A 
ATOM     20  C   UNL     1      10.432   2.161  23.221  0.00  0.00    +0.048 A 
ATOM     21  C   UNL     1      10.756   1.228  24.216  0.00  0.00    +0.030 A 
ATOM     22  C   UNL     1      10.520  -0.136  23.996  0.00  0.00    +0.047 A 
BRANCH  17  24
ATOM     23  C   UNL     1       9.692  -2.604  23.949  0.00  0.00    +0.277 C 
ATOM     24  O   UNL     1       9.700  -1.915  22.697  0.00  0.00    -0.495 OA
ENDBRANCH  17  24
ENDBRANCH   1  20
TORSDOF 3
ENDMDL
MODEL 7
REMARK VINA RESULT:      -6.6      3.219      4.202
REMARK  Name = 
REMARK  4 active torsions:
REMARK  status: ('A' for Active; 'I' for Inactive)
REMARK    1  A    between atoms: C_1  and  O_2
REMARK    2  A    between atoms: O_2  and  C_3
REMARK    3  A    between atoms: C_6  and  N_9
REMARK    4  A    between atoms: C_15  and  C_18
REMARK                            x       y       z     vdW  Elec       q    Type
REMARK                         _______ _______ _______ _____ _____    ______ ____
ROOT
ATOM      1  N   UNL     1       8.612  -1.691  23.335  0.00  0.00    -0.299 N 
ATOM      2  C   UNL     1       7.803  -2.791  23.623  0.00  0.00    +0.074 A 
ATOM      3  C   UNL     1       6.429  -3.060  23.479  0.00  0.00    +0.041 A 
ATOM      4  C   UNL     1       5.938  -4.303  23.908  0.00  0.00    +0.041 A 
ATOM      5  C   UNL     1       6.806  -5.274  24.412  0.00  0.00    +0.015 A 
ATOM      6  C   UNL     1       8.183  -5.019  24.493  0.00  0.00    +0.030 A 
ATOM      7  C   UNL     1       8.682  -3.766  24.089  0.00  0.00    +0.089 A 
ATOM      8  N   UNL     1       9.975  -3.324  24.054  0.00  0.00    -0.235 NA
ATOM      9  C   UNL     1       9.906  -2.104  23.577  0.00  0.00    +0.205 A 
ENDROOT
BRANCH   4  10
ATOM     10  C   UNL     1       4.488  -4.521  23.818  0.00  0.00    +0.247 A 
ATOM     11  O   UNL     1       3.714  -3.966  24.786  0.00  0.00    -0.412 OA
ATOM     12  C   UNL     1       2.457  -4.324  24.419  0.00  0.00    +0.264 A 
ATOM     13  S   UNL     1       1.131  -3.885  25.279  0.00  0.00    +0.011 S 
ATOM     14  N   UNL     1       2.553  -5.060  23.278  0.00  0.00    -0.237 N 
ATOM     15  H   UNL     1       1.791  -5.469  22.749  0.00  0.00    +0.193 HD
ATOM     16  N   UNL     1       3.851  -5.183  22.896  0.00  0.00    -0.132 NA
ENDBRANCH   4  10
BRANCH   1  20
ATOM     17  C   UNL     1       7.603   2.224  22.084  0.00  0.00    +0.120 A 
ATOM     18  C   UNL     1       8.612   1.520  21.437  0.00  0.00    +0.047 A 
ATOM     19  C   UNL     1       8.906   0.209  21.818  0.00  0.00    +0.030 A 
ATOM     20  C   UNL     1       8.211  -0.407  22.862  0.00  0.00    +0.048 A 
ATOM     21  C   UNL     1       7.126   0.265  23.441  0.00  0.00    +0.030 A 
ATOM     22  C   UNL     1       6.827   1.577  23.047  0.00  0.00    +0.047 A 
BRANCH  17  24
ATOM     23  C   UNL     1       6.182   4.028  22.573  0.00  0.00    +0.277 C 
ATOM     24  O   UNL     1       7.284   3.527  21.814  0.00  0.00    -0.495 OA
ENDBRANCH  17  24
ENDBRANCH   1  20
TORSDOF 3
ENDMDL
MODEL 8
REMARK VINA RESULT:      -6.4      4.577      7.605
REMARK  Name = 
REMARK  4 active torsions:
REMARK  status: ('A' for Active; 'I' for Inactive)
REMARK    1  A    between atoms: C_1  and  O_2
REMARK    2  A    between atoms: O_2  and  C_3
REMARK    3  A    between atoms: C_6  and  N_9
REMARK    4  A    between atoms: C_15  and  C_18
REMARK                            x       y       z     vdW  Elec       q    Type
REMARK                         _______ _______ _______ _____ _____    ______ ____
ROOT
ATOM      1  N   UNL     1       8.691  -1.778  23.287  0.00  0.00    -0.299 N 
ATOM      2  C   UNL     1       8.171  -0.527  22.954  0.00  0.00    +0.074 A 
ATOM      3  C   UNL     1       7.051   0.212  23.379  0.00  0.00    +0.041 A 
ATOM      4  C   UNL     1       6.811   1.466  22.795  0.00  0.00    +0.041 A 
ATOM      5  C   UNL     1       7.699   1.995  21.857  0.00  0.00    +0.015 A 
ATOM      6  C   UNL     1       8.848   1.277  21.487  0.00  0.00    +0.030 A 
ATOM      7  C   UNL     1       9.083   0.008  22.047  0.00  0.00    +0.089 A 
ATOM      8  N   UNL     1      10.141  -0.836  21.854  0.00  0.00    -0.235 NA
ATOM      9  C   UNL     1       9.896  -1.872  22.622  0.00  0.00    +0.205 A 
ENDROOT
BRANCH   4  10
ATOM     10  C   UNL     1       5.590   2.175  23.202  0.00  0.00    +0.247 A 
ATOM     11  O   UNL     1       5.077   3.082  22.331  0.00  0.00    -0.412 OA
ATOM     12  C   UNL     1       3.972   3.537  22.975  0.00  0.00    +0.264 A 
ATOM     13  S   UNL     1       2.979   4.669  22.324  0.00  0.00    +0.011 S 
ATOM     14  N   UNL     1       3.893   2.890  24.170  0.00  0.00    -0.237 N 
ATOM     15  H   UNL     1       3.178   3.002  24.879  0.00  0.00    +0.193 HD
ATOM     16  N   UNL     1       4.927   2.020  24.311  0.00  0.00    -0.132 NA
ENDBRANCH   4  10
BRANCH   1  20
ATOM     17  C   UNL     1       7.218  -4.847  25.802  0.00  0.00    +0.120 A 
ATOM     18  C   UNL     1       8.125  -3.914  26.292  0.00  0.00    +0.047 A 
ATOM     19  C   UNL     1       8.568  -2.872  25.475  0.00  0.00    +0.030 A 
ATOM     20  C   UNL     1       8.127  -2.761  24.154  0.00  0.00    +0.048 A 
ATOM     21  C   UNL     1       7.135  -3.638  23.695  0.00  0.00    +0.030 A 
ATOM     22  C   UNL     1       6.685  -4.676  24.523  0.00  0.00    +0.047 A 
BRANCH  17  24
ATOM     23  C   UNL     1       5.414  -6.283  26.246  0.00  0.00    +0.277 C 
ATOM     24  O   UNL     1       6.773  -5.928  26.511  0.00  0.00    -0.495 OA
ENDBRANCH  17  24
ENDBRANCH   1  20
TORSDOF 3
ENDMDL
MODEL 9
REMARK VINA RESULT:      -6.1      4.023      6.971
REMARK  Name = 
REMARK  4 active torsions:
REMARK  status: ('A' for Active; 'I' for Inactive)
REMARK    1  A    between atoms: C_1  and  O_2
REMARK    2  A    between atoms: O_2  and  C_3
REMARK    3  A    between atoms: C_6  and  N_9
REMARK    4  A    between atoms: C_15  and  C_18
REMARK                            x       y       z     vdW  Elec       q    Type
REMARK                         _______ _______ _______ _____ _____    ______ ____
ROOT
ATOM      1  N   UNL     1       8.727  -1.612  23.061  0.00  0.00    -0.299 N 
ATOM      2  C   UNL     1       8.059  -0.388  23.003  0.00  0.00    +0.074 A 
ATOM      3  C   UNL     1       7.000   0.185  23.731  0.00  0.00    +0.041 A 
ATOM      4  C   UNL     1       6.555   1.468  23.376  0.00  0.00    +0.041 A 
ATOM      5  C   UNL     1       7.190   2.185  22.360  0.00  0.00    +0.015 A 
ATOM      6  C   UNL     1       8.287   1.630  21.683  0.00  0.00    +0.030 A 
ATOM      7  C   UNL     1       8.724   0.334  22.013  0.00  0.00    +0.089 A 
ATOM      8  N   UNL     1       9.778  -0.376  21.509  0.00  0.00    -0.235 NA
ATOM      9  C   UNL     1       9.772  -1.511  22.167  0.00  0.00    +0.205 A 
ENDROOT
BRANCH   4  10
ATOM     10  C   UNL     1       5.395   2.003  24.103  0.00  0.00    +0.247 A 
ATOM     11  O   UNL     1       5.112   1.455  25.312  0.00  0.00    -0.412 OA
ATOM     12  C   UNL     1       4.026   2.159  25.723  0.00  0.00    +0.264 A 
ATOM     13  S   UNL     1       3.288   1.878  27.161  0.00  0.00    +0.011 S 
ATOM     14  N   UNL     1       3.729   3.066  24.752  0.00  0.00    -0.237 N 
ATOM     15  H   UNL     1       2.977   3.746  24.761  0.00  0.00    +0.193 HD
ATOM     16  N   UNL     1       4.606   2.964  23.719  0.00  0.00    -0.132 NA
ENDBRANCH   4  10
BRANCH   1  20
ATOM     17  C   UNL     1       7.596  -4.854  25.535  0.00  0.00    +0.120 A 
ATOM     18  C   UNL     1       7.355  -4.900  24.166  0.00  0.00    +0.047 A 
ATOM     19  C   UNL     1       7.777  -3.852  23.346  0.00  0.00    +0.030 A 
ATOM     20  C   UNL     1       8.426  -2.737  23.884  0.00  0.00    +0.048 A 
ATOM     21  C   UNL     1       8.761  -2.741  25.245  0.00  0.00    +0.030 A 
ATOM     22  C   UNL     1       8.345  -3.802  26.063  0.00  0.00    +0.047 A 
BRANCH  17  24
ATOM     23  C   UNL     1       5.762  -6.041  26.396  0.00  0.00    +0.277 C 
ATOM     24  O   UNL     1       7.172  -5.808  26.419  0.00  0.00    -0.495 OA
ENDBRANCH  17  24
ENDBRANCH   1  20
TORSDOF 3
ENDMDL
