MODEL 1
REMARK VINA RESULT:      -7.0      0.000      0.000
REMARK  Name = 
REMARK  2 active torsions:
REMARK  status: ('A' for Active; 'I' for Inactive)
REMARK    1  A    between atoms: C_3  and  C_15
REMARK    2  A    between atoms: C_6  and  N_7
REMARK                            x       y       z     vdW  Elec       q    Type
REMARK                         _______ _______ _______ _____ _____    ______ ____
ROOT
ATOM      1 CL   UNL     1      11.259   0.755  24.727  0.00  0.00    -0.080 Cl
ATOM      2  C   UNL     1       9.867   1.306  23.873  0.00  0.00    +0.078 A 
ATOM      3  C   UNL     1       8.803   0.401  23.536  0.00  0.00    +0.079 A 
ATOM      4  C   UNL     1       7.844   1.015  22.766  0.00  0.00    +0.072 A 
ATOM      5  S   UNL     1       8.156   2.668  22.537  0.00  0.00    -0.093 S 
ATOM      6  C   UNL     1       9.627   2.609  23.447  0.00  0.00    +0.040 A 
ENDROOT
BRANCH   3   7
ATOM      7  N   UNL     1       8.698  -0.933  23.947  0.00  0.00    -0.180 N 
ATOM      8  S   UNL     1       9.223  -2.212  22.989  0.00  0.00    +0.129 S 
ATOM      9  O   UNL     1      10.541  -1.943  22.473  0.00  0.00    -0.135 OA
ATOM     10  O   UNL     1       8.133  -2.688  22.177  0.00  0.00    -0.135 OA
ATOM     11  N   UNL     1       9.352  -3.233  24.284  0.00  0.00    -0.171 N 
ATOM     12  H   UNL     1       9.620  -4.197  24.145  0.00  0.00    +0.178 HD
ATOM     13  C   UNL     1       8.608  -2.805  25.390  0.00  0.00    +0.252 C 
ATOM     14  O   UNL     1       8.425  -3.512  26.366  0.00  0.00    -0.272 OA
ATOM     15  C   UNL     1       8.045  -1.393  25.185  0.00  0.00    +0.230 C 
ENDBRANCH   3   7
BRANCH   6  16
ATOM     16  C   UNL     1      10.375   3.871  23.670  0.00  0.00    -0.010 A 
ATOM     17  C   UNL     1       9.739   5.002  24.207  0.00  0.00    +0.009 A 
ATOM     18  C   UNL     1      10.432   6.201  24.407  0.00  0.00    +0.001 A 
ATOM     19  C   UNL     1      11.771   6.304  24.049  0.00  0.00    +0.000 A 
ATOM     20  C   UNL     1      12.420   5.205  23.497  0.00  0.00    +0.001 A 
ATOM     21  C   UNL     1      11.732   4.000  23.318  0.00  0.00    +0.009 A 
ENDBRANCH   6  16
TORSDOF 2
ENDMDL
MODEL 2
REMARK VINA RESULT:      -6.9      3.751      5.157
REMARK  Name = 
REMARK  2 active torsions:
REMARK  status: ('A' for Active; 'I' for Inactive)
REMARK    1  A    between atoms: C_3  and  C_15
REMARK    2  A    between atoms: C_6  and  N_7
REMARK                            x       y       z     vdW  Elec       q    Type
REMARK                         _______ _______ _______ _____ _____    ______ ____
ROOT
ATOM      1 CL   UNL     1       6.050  -1.871  23.269  0.00  0.00    -0.080 Cl
ATOM      2  C   UNL     1       7.509  -2.654  23.742  0.00  0.00    +0.078 A 
ATOM      3  C   UNL     1       7.524  -4.055  24.064  0.00  0.00    +0.079 A 
ATOM      4  C   UNL     1       8.758  -4.455  24.519  0.00  0.00    +0.072 A 
ATOM      5  S   UNL     1       9.906  -3.206  24.465  0.00  0.00    -0.093 S 
ATOM      6  C   UNL     1       8.763  -2.059  23.853  0.00  0.00    +0.040 A 
ENDROOT
BRANCH   3   7
ATOM      7  N   UNL     1       6.452  -4.943  23.915  0.00  0.00    -0.180 N 
ATOM      8  S   UNL     1       5.982  -5.536  22.412  0.00  0.00    +0.129 S 
ATOM      9  O   UNL     1       7.129  -5.998  21.675  0.00  0.00    -0.135 OA
ATOM     10  O   UNL     1       4.966  -4.683  21.851  0.00  0.00    -0.135 OA
ATOM     11  N   UNL     1       5.213  -6.840  23.080  0.00  0.00    -0.171 N 
ATOM     12  H   UNL     1       4.715  -7.492  22.490  0.00  0.00    +0.178 HD
ATOM     13  C   UNL     1       4.906  -6.656  24.434  0.00  0.00    +0.252 C 
ATOM     14  O   UNL     1       4.178  -7.418  25.047  0.00  0.00    -0.272 OA
ATOM     15  C   UNL     1       5.555  -5.385  24.996  0.00  0.00    +0.230 C 
ENDBRANCH   3   7
BRANCH   6  16
ATOM     16  C   UNL     1       9.237  -0.695  23.515  0.00  0.00    -0.010 A 
ATOM     17  C   UNL     1       9.272  -0.252  22.183  0.00  0.00    +0.009 A 
ATOM     18  C   UNL     1       9.731   1.029  21.853  0.00  0.00    +0.001 A 
ATOM     19  C   UNL     1      10.193   1.884  22.846  0.00  0.00    +0.000 A 
ATOM     20  C   UNL     1      10.188   1.464  24.172  0.00  0.00    +0.001 A 
ATOM     21  C   UNL     1       9.707   0.193  24.502  0.00  0.00    +0.009 A 
ENDBRANCH   6  16
TORSDOF 2
ENDMDL
MODEL 3
REMARK VINA RESULT:      -6.8      2.268      3.089
REMARK  Name = 
REMARK  2 active torsions:
REMARK  status: ('A' for Active; 'I' for Inactive)
REMARK    1  A    between atoms: C_3  and  C_15
REMARK    2  A    between atoms: C_6  and  N_7
REMARK                            x       y       z     vdW  Elec       q    Type
REMARK                         _______ _______ _______ _____ _____    ______ ____
ROOT
ATOM      1 CL   UNL     1       9.084  -0.883  26.635  0.00  0.00    -0.080 Cl
ATOM      2  C   UNL     1       8.903  -1.099  24.935  0.00  0.00    +0.078 A 
ATOM      3  C   UNL     1       8.579  -2.387  24.386  0.00  0.00    +0.079 A 
ATOM      4  C   UNL     1       8.587  -2.366  23.012  0.00  0.00    +0.072 A 
ATOM      5  S   UNL     1       8.873  -0.813  22.388  0.00  0.00    -0.093 S 
ATOM      6  C   UNL     1       9.033  -0.112  23.962  0.00  0.00    +0.040 A 
ENDROOT
BRANCH   3   7
ATOM      7  N   UNL     1       8.255  -3.534  25.120  0.00  0.00    -0.180 N 
ATOM      8  S   UNL     1       9.058  -4.997  24.901  0.00  0.00    +0.129 S 
ATOM      9  O   UNL     1      10.483  -4.788  24.890  0.00  0.00    -0.135 OA
ATOM     10  O   UNL     1       8.362  -5.789  23.920  0.00  0.00    -0.135 OA
ATOM     11  N   UNL     1       8.609  -5.556  26.391  0.00  0.00    -0.171 N 
ATOM     12  H   UNL     1       8.864  -6.491  26.680  0.00  0.00    +0.178 HD
ATOM     13  C   UNL     1       7.506  -4.874  26.920  0.00  0.00    +0.252 C 
ATOM     14  O   UNL     1       6.914  -5.262  27.912  0.00  0.00    -0.272 OA
ATOM     15  C   UNL     1       7.140  -3.647  26.076  0.00  0.00    +0.230 C 
ENDBRANCH   3   7
BRANCH   6  16
ATOM     16  C   UNL     1       9.240   1.353  24.070  0.00  0.00    -0.010 A 
ATOM     17  C   UNL     1       8.345   2.157  24.794  0.00  0.00    +0.009 A 
ATOM     18  C   UNL     1       8.523   3.543  24.888  0.00  0.00    +0.001 A 
ATOM     19  C   UNL     1       9.585   4.158  24.237  0.00  0.00    +0.000 A 
ATOM     20  C   UNL     1      10.475   3.388  23.495  0.00  0.00    +0.001 A 
ATOM     21  C   UNL     1      10.309   2.001  23.421  0.00  0.00    +0.009 A 
ENDBRANCH   6  16
TORSDOF 2
ENDMDL
MODEL 4
REMARK VINA RESULT:      -6.6      1.758      2.537
REMARK  Name = 
REMARK  2 active torsions:
REMARK  status: ('A' for Active; 'I' for Inactive)
REMARK    1  A    between atoms: C_3  and  C_15
REMARK    2  A    between atoms: C_6  and  N_7
REMARK                            x       y       z     vdW  Elec       q    Type
REMARK                         _______ _______ _______ _____ _____    ______ ____
ROOT
ATOM      1 CL   UNL     1      10.060   0.309  22.022  0.00  0.00    -0.080 Cl
ATOM      2  C   UNL     1       9.028   0.631  23.363  0.00  0.00    +0.078 A 
ATOM      3  C   UNL     1       8.180  -0.396  23.905  0.00  0.00    +0.079 A 
ATOM      4  C   UNL     1       7.363   0.095  24.895  0.00  0.00    +0.072 A 
ATOM      5  S   UNL     1       7.674   1.727  25.244  0.00  0.00    -0.093 S 
ATOM      6  C   UNL     1       8.910   1.843  24.038  0.00  0.00    +0.040 A 
ENDROOT
BRANCH   3   7
ATOM      7  N   UNL     1       8.180  -1.744  23.527  0.00  0.00    -0.180 N 
ATOM      8  S   UNL     1       9.017  -2.919  24.394  0.00  0.00    +0.129 S 
ATOM      9  O   UNL     1       8.748  -2.787  25.803  0.00  0.00    -0.135 OA
ATOM     10  O   UNL     1      10.340  -3.074  23.847  0.00  0.00    -0.135 OA
ATOM     11  N   UNL     1       8.088  -4.143  23.783  0.00  0.00    -0.171 N 
ATOM     12  H   UNL     1       8.288  -5.103  24.029  0.00  0.00    +0.178 HD
ATOM     13  C   UNL     1       7.422  -3.785  22.604  0.00  0.00    +0.252 C 
ATOM     14  O   UNL     1       6.846  -4.602  21.907  0.00  0.00    -0.272 OA
ATOM     15  C   UNL     1       7.558  -2.287  22.307  0.00  0.00    +0.230 C 
ENDBRANCH   3   7
BRANCH   6  16
ATOM     16  C   UNL     1       9.657   3.118  23.907  0.00  0.00    -0.010 A 
ATOM     17  C   UNL     1      10.969   3.137  23.408  0.00  0.00    +0.009 A 
ATOM     18  C   UNL     1      11.689   4.333  23.295  0.00  0.00    +0.001 A 
ATOM     19  C   UNL     1      11.120   5.533  23.705  0.00  0.00    +0.000 A 
ATOM     20  C   UNL     1       9.829   5.540  24.222  0.00  0.00    +0.001 A 
ATOM     21  C   UNL     1       9.104   4.347  24.313  0.00  0.00    +0.009 A 
ENDBRANCH   6  16
TORSDOF 2
ENDMDL
MODEL 5
REMARK VINA RESULT:      -6.5      2.895      3.890
REMARK  Name = 
REMARK  2 active torsions:
REMARK  status: ('A' for Active; 'I' for Inactive)
REMARK    1  A    between atoms: C_3  and  C_15
REMARK    2  A    between atoms: C_6  and  N_7
REMARK                            x       y       z     vdW  Elec       q    Type
REMARK                         _______ _______ _______ _____ _____    ______ ____
ROOT
ATOM      1 CL   UNL     1       6.186  -0.565  24.165  0.00  0.00    -0.080 Cl
ATOM      2  C   UNL     1       7.581  -0.724  23.166  0.00  0.00    +0.078 A 
ATOM      3  C   UNL     1       8.008  -2.013  22.696  0.00  0.00    +0.079 A 
ATOM      4  C   UNL     1       9.195  -1.930  22.008  0.00  0.00    +0.072 A 
ATOM      5  S   UNL     1       9.738  -0.331  21.839  0.00  0.00    -0.093 S 
ATOM      6  C   UNL     1       8.397   0.313  22.724  0.00  0.00    +0.040 A 
ENDROOT
BRANCH   3   7
ATOM      7  N   UNL     1       7.316  -3.218  22.861  0.00  0.00    -0.180 N 
ATOM      8  S   UNL     1       7.610  -4.252  24.156  0.00  0.00    +0.129 S 
ATOM      9  O   UNL     1       7.640  -3.511  25.390  0.00  0.00    -0.135 OA
ATOM     10  O   UNL     1       8.608  -5.221  23.784  0.00  0.00    -0.135 OA
ATOM     11  N   UNL     1       6.135  -4.986  24.006  0.00  0.00    -0.171 N 
ATOM     12  H   UNL     1       5.891  -5.759  24.610  0.00  0.00    +0.178 HD
ATOM     13  C   UNL     1       5.558  -4.797  22.745  0.00  0.00    +0.252 C 
ATOM     14  O   UNL     1       4.571  -5.412  22.380  0.00  0.00    -0.272 OA
ATOM     15  C   UNL     1       6.343  -3.780  21.907  0.00  0.00    +0.230 C 
ENDBRANCH   3   7
BRANCH   6  16
ATOM     16  C   UNL     1       8.277   1.786  22.860  0.00  0.00    -0.010 A 
ATOM     17  C   UNL     1       9.047   2.489  23.800  0.00  0.00    +0.009 A 
ATOM     18  C   UNL     1       8.929   3.876  23.947  0.00  0.00    +0.001 A 
ATOM     19  C   UNL     1       8.018   4.587  23.175  0.00  0.00    +0.000 A 
ATOM     20  C   UNL     1       7.228   3.912  22.250  0.00  0.00    +0.001 A 
ATOM     21  C   UNL     1       7.363   2.529  22.089  0.00  0.00    +0.009 A 
ENDBRANCH   6  16
TORSDOF 2
ENDMDL
MODEL 6
REMARK VINA RESULT:      -6.5      2.884      3.850
REMARK  Name = 
REMARK  2 active torsions:
REMARK  status: ('A' for Active; 'I' for Inactive)
REMARK    1  A    between atoms: C_3  and  C_15
REMARK    2  A    between atoms: C_6  and  N_7
REMARK                            x       y       z     vdW  Elec       q    Type
REMARK                         _______ _______ _______ _____ _____    ______ ____
ROOT
ATOM      1 CL   UNL     1       6.177  -0.658  24.215  0.00  0.00    -0.080 Cl
ATOM      2  C   UNL     1       7.594  -0.759  23.241  0.00  0.00    +0.078 A 
ATOM      3  C   UNL     1       8.054  -2.023  22.737  0.00  0.00    +0.079 A 
ATOM      4  C   UNL     1       9.253  -1.897  22.077  0.00  0.00    +0.072 A 
ATOM      5  S   UNL     1       9.769  -0.283  21.971  0.00  0.00    -0.093 S 
ATOM      6  C   UNL     1       8.400   0.307  22.849  0.00  0.00    +0.040 A 
ENDROOT
BRANCH   3   7
ATOM      7  N   UNL     1       7.381  -3.246  22.848  0.00  0.00    -0.180 N 
ATOM      8  S   UNL     1       7.666  -4.315  24.116  0.00  0.00    +0.129 S 
ATOM      9  O   UNL     1       7.655  -3.613  25.374  0.00  0.00    -0.135 OA
ATOM     10  O   UNL     1       8.690  -5.253  23.737  0.00  0.00    -0.135 OA
ATOM     11  N   UNL     1       6.209  -5.070  23.910  0.00  0.00    -0.171 N 
ATOM     12  H   UNL     1       5.965  -5.866  24.483  0.00  0.00    +0.178 HD
ATOM     13  C   UNL     1       5.656  -4.851  22.642  0.00  0.00    +0.252 C 
ATOM     14  O   UNL     1       4.689  -5.472  22.236  0.00  0.00    -0.272 OA
ATOM     15  C   UNL     1       6.440  -3.794  21.855  0.00  0.00    +0.230 C 
ENDBRANCH   3   7
BRANCH   6  16
ATOM     16  C   UNL     1       8.250   1.771  23.031  0.00  0.00    -0.010 A 
ATOM     17  C   UNL     1       7.478   2.534  22.140  0.00  0.00    +0.009 A 
ATOM     18  C   UNL     1       7.342   3.919  22.295  0.00  0.00    +0.001 A 
ATOM     19  C   UNL     1       8.000   4.575  23.329  0.00  0.00    +0.000 A 
ATOM     20  C   UNL     1       8.788   3.847  24.213  0.00  0.00    +0.001 A 
ATOM     21  C   UNL     1       8.904   2.460  24.071  0.00  0.00    +0.009 A 
ENDBRANCH   6  16
TORSDOF 2
ENDMDL
MODEL 7
REMARK VINA RESULT:      -6.5      3.588      5.026
REMARK  Name = 
REMARK  2 active torsions:
REMARK  status: ('A' for Active; 'I' for Inactive)
REMARK    1  A    between atoms: C_3  and  C_15
REMARK    2  A    between atoms: C_6  and  N_7
REMARK                            x       y       z     vdW  Elec       q    Type
REMARK                         _______ _______ _______ _____ _____    ______ ____
ROOT
ATOM      1 CL   UNL     1       8.528  -3.503  23.428  0.00  0.00    -0.080 Cl
ATOM      2  C   UNL     1       7.393  -2.496  24.243  0.00  0.00    +0.078 A 
ATOM      3  C   UNL     1       6.297  -3.065  24.979  0.00  0.00    +0.079 A 
ATOM      4  C   UNL     1       5.453  -2.092  25.460  0.00  0.00    +0.072 A 
ATOM      5  S   UNL     1       6.014  -0.524  25.127  0.00  0.00    -0.093 S 
ATOM      6  C   UNL     1       7.410  -1.104  24.285  0.00  0.00    +0.040 A 
ENDROOT
BRANCH   3   7
ATOM      7  N   UNL     1       6.096  -4.427  25.230  0.00  0.00    -0.180 N 
ATOM      8  S   UNL     1       6.828  -5.219  26.521  0.00  0.00    +0.129 S 
ATOM      9  O   UNL     1       6.673  -4.453  27.731  0.00  0.00    -0.135 OA
ATOM     10  O   UNL     1       8.080  -5.787  26.094  0.00  0.00    -0.135 OA
ATOM     11  N   UNL     1       5.708  -6.437  26.511  0.00  0.00    -0.171 N 
ATOM     12  H   UNL     1       5.798  -7.214  27.151  0.00  0.00    +0.178 HD
ATOM     13  C   UNL     1       5.019  -6.532  25.296  0.00  0.00    +0.252 C 
ATOM     14  O   UNL     1       4.296  -7.476  25.028  0.00  0.00    -0.272 OA
ATOM     15  C   UNL     1       5.329  -5.347  24.372  0.00  0.00    +0.230 C 
ENDBRANCH   3   7
BRANCH   6  16
ATOM     16  C   UNL     1       8.396  -0.118  23.780  0.00  0.00    -0.010 A 
ATOM     17  C   UNL     1       9.113   0.704  24.665  0.00  0.00    +0.009 A 
ATOM     18  C   UNL     1      10.034   1.648  24.198  0.00  0.00    +0.001 A 
ATOM     19  C   UNL     1      10.239   1.811  22.833  0.00  0.00    +0.000 A 
ATOM     20  C   UNL     1       9.527   1.024  21.933  0.00  0.00    +0.001 A 
ATOM     21  C   UNL     1       8.624   0.065  22.403  0.00  0.00    +0.009 A 
ENDBRANCH   6  16
TORSDOF 2
ENDMDL
MODEL 8
REMARK VINA RESULT:      -6.3      3.943      7.068
REMARK  Name = 
REMARK  2 active torsions:
REMARK  status: ('A' for Active; 'I' for Inactive)
REMARK    1  A    between atoms: C_3  and  C_15
REMARK    2  A    between atoms: C_6  and  N_7
REMARK                            x       y       z     vdW  Elec       q    Type
REMARK                         _______ _______ _______ _____ _____    ______ ____
ROOT
ATOM      1 CL   UNL     1       6.921   0.402  24.711  0.00  0.00    -0.080 Cl
ATOM      2  C   UNL     1       8.005   0.099  23.408  0.00  0.00    +0.078 A 
ATOM      3  C   UNL     1       8.479   1.172  22.577  0.00  0.00    +0.079 A 
ATOM      4  C   UNL     1       9.243   0.703  21.535  0.00  0.00    +0.072 A 
ATOM      5  S   UNL     1       9.477  -0.977  21.605  0.00  0.00    -0.093 S 
ATOM      6  C   UNL     1       8.518  -1.141  23.037  0.00  0.00    +0.040 A 
ENDROOT
BRANCH   3   7
ATOM      7  N   UNL     1       8.247   2.536  22.787  0.00  0.00    -0.180 N 
ATOM      8  S   UNL     1       9.190   3.456  23.833  0.00  0.00    +0.129 S 
ATOM      9  O   UNL     1      10.588   3.211  23.592  0.00  0.00    -0.135 OA
ATOM     10  O   UNL     1       8.597   3.458  25.145  0.00  0.00    -0.135 OA
ATOM     11  N   UNL     1       8.759   4.875  23.099  0.00  0.00    -0.171 N 
ATOM     12  H   UNL     1       9.095   5.756  23.463  0.00  0.00    +0.178 HD
ATOM     13  C   UNL     1       7.584   4.763  22.346  0.00  0.00    +0.252 C 
ATOM     14  O   UNL     1       7.007   5.736  21.890  0.00  0.00    -0.272 OA
ATOM     15  C   UNL     1       7.124   3.306  22.223  0.00  0.00    +0.230 C 
ENDBRANCH   3   7
BRANCH   6  16
ATOM     16  C   UNL     1       8.401  -2.481  23.664  0.00  0.00    -0.010 A 
ATOM     17  C   UNL     1       7.178  -3.169  23.673  0.00  0.00    +0.009 A 
ATOM     18  C   UNL     1       7.053  -4.426  24.276  0.00  0.00    +0.001 A 
ATOM     19  C   UNL     1       8.145  -5.011  24.907  0.00  0.00    +0.000 A 
ATOM     20  C   UNL     1       9.364  -4.342  24.931  0.00  0.00    +0.001 A 
ATOM     21  C   UNL     1       9.492  -3.096  24.308  0.00  0.00    +0.009 A 
ENDBRANCH   6  16
TORSDOF 2
ENDMDL
MODEL 9
REMARK VINA RESULT:      -6.3      3.819      8.129
REMARK  Name = 
REMARK  2 active torsions:
REMARK  status: ('A' for Active; 'I' for Inactive)
REMARK    1  A    between atoms: C_3  and  C_15
REMARK    2  A    between atoms: C_6  and  N_7
REMARK                            x       y       z     vdW  Elec       q    Type
REMARK                         _______ _______ _______ _____ _____    ______ ____
ROOT
ATOM      1 CL   UNL     1       6.672  -3.003  22.259  0.00  0.00    -0.080 Cl
ATOM      2  C   UNL     1       7.293  -2.928  23.864  0.00  0.00    +0.078 A 
ATOM      3  C   UNL     1       8.198  -1.883  24.256  0.00  0.00    +0.079 A 
ATOM      4  C   UNL     1       8.656  -2.067  25.539  0.00  0.00    +0.072 A 
ATOM      5  S   UNL     1       7.938  -3.406  26.298  0.00  0.00    -0.093 S 
ATOM      6  C   UNL     1       7.001  -3.810  24.901  0.00  0.00    +0.040 A 
ENDROOT
BRANCH   3   7
ATOM      7  N   UNL     1       8.567  -0.780  23.476  0.00  0.00    -0.180 N 
ATOM      8  S   UNL     1      10.131  -0.578  22.890  0.00  0.00    +0.129 S 
ATOM      9  O   UNL     1      10.604  -1.800  22.294  0.00  0.00    -0.135 OA
ATOM     10  O   UNL     1      10.900   0.202  23.824  0.00  0.00    -0.135 OA
ATOM     11  N   UNL     1       9.632   0.446  21.690  0.00  0.00    -0.171 N 
ATOM     12  H   UNL     1      10.311   0.874  21.075  0.00  0.00    +0.178 HD
ATOM     13  C   UNL     1       8.376   1.010  21.943  0.00  0.00    +0.252 C 
ATOM     14  O   UNL     1       7.927   1.926  21.276  0.00  0.00    -0.272 OA
ATOM     15  C   UNL     1       7.697   0.366  23.158  0.00  0.00    +0.230 C 
ENDBRANCH   3   7
BRANCH   6  16
ATOM     16  C   UNL     1       6.048  -4.944  24.988  0.00  0.00    -0.010 A 
ATOM     17  C   UNL     1       5.817  -5.600  26.207  0.00  0.00    +0.009 A 
ATOM     18  C   UNL     1       4.931  -6.680  26.297  0.00  0.00    +0.001 A 
ATOM     19  C   UNL     1       4.278  -7.146  25.162  0.00  0.00    +0.000 A 
ATOM     20  C   UNL     1       4.504  -6.527  23.937  0.00  0.00    +0.001 A 
ATOM     21  C   UNL     1       5.372  -5.433  23.854  0.00  0.00    +0.009 A 
ENDBRANCH   6  16
TORSDOF 2
ENDMDL
