MODEL 1
REMARK VINA RESULT:      -8.3      0.000      0.000
REMARK  Name = 
REMARK  11 active torsions:
REMARK  status: ('A' for Active; 'I' for Inactive)
REMARK    1  A    between atoms: C_10  and  C_12
REMARK    2  A    between atoms: C_12  and  N_13
REMARK    3  A    between atoms: N_13  and  C_14
REMARK    4  A    between atoms: C_17  and  C_20
REMARK    5  A    between atoms: N_22  and  CA_23
REMARK    6  A    between atoms: CA_23  and  CB_25
REMARK    7  A    between atoms: CA_23  and  C_30
REMARK    8  A    between atoms: CB_25  and  CG_26
REMARK    9  A    between atoms: CG_26  and  CD_27
REMARK   10  A    between atoms: CD_27  and  OE1_28
REMARK   11  A    between atoms: C_30  and  O_31
REMARK                            x       y       z     vdW  Elec       q    Type
REMARK                         _______ _______ _______ _____ _____    ______ ____
ROOT
ATOM      1  N   UNK A   0      10.049  -2.372  23.730  0.00  0.00    -0.342 N 
ATOM      2  H   UNK A   0      10.072  -2.814  22.810  0.00  0.00    +0.146 HD
ENDROOT
BRANCH   1   3
ATOM      3  C   UNK A   0      10.040  -0.969  23.582  0.00  0.00    +0.027 A 
ATOM      4  C   UNK A   0      10.154  -0.155  24.721  0.00  0.00    +0.023 A 
ATOM      5  C   UNK A   0      10.178   1.247  24.622  0.00  0.00    +0.015 A 
ATOM      6  C   UNK A   0      10.063   1.860  23.372  0.00  0.00    +0.037 A 
ATOM      7  C   UNK A   0       9.823   1.068  22.248  0.00  0.00    +0.015 A 
ATOM      8  C   UNK A   0       9.794  -0.327  22.361  0.00  0.00    +0.023 A 
BRANCH   6   9
ATOM      9  C   UNK A   0      10.212   3.338  23.241  0.00  0.00    +0.245 C 
ATOM     10  N   GLU A   1      11.510   3.810  23.266  0.00  0.00    -0.298 N 
ATOM     11  H   GLU A   1      12.283   3.160  23.353  0.00  0.00    +0.150 HD
ATOM     12  O   UNK A   0       9.249   4.090  23.142  0.00  0.00    -0.270 OA
BRANCH  10  13
ATOM     13  CA  GLU A   1      11.800   5.237  23.175  0.00  0.00    +0.182 C 
BRANCH  13  14
ATOM     14  C   GLU A   1      13.195   5.422  22.560  0.00  0.00    +0.325 C 
ATOM     15  OXT GLU A   1      13.401   5.953  21.475  0.00  0.00    -0.249 OA
BRANCH  14  16
ATOM     16  O   GLU A   1      14.192   4.948  23.341  0.00  0.00    -0.479 OA
ATOM     17  H   GLU A   1      14.066   4.001  23.581  0.00  0.00    +0.295 HD
ENDBRANCH  14  16
ENDBRANCH  13  14
BRANCH  13  18
ATOM     18  CB  GLU A   1      11.734   5.911  24.552  0.00  0.00    +0.045 C 
BRANCH  18  19
ATOM     19  CG  GLU A   1      10.505   6.811  24.687  0.00  0.00    +0.123 C 
BRANCH  19  20
ATOM     20  CD  GLU A   1       9.663   6.405  25.866  0.00  0.00    +0.305 C 
ATOM     21  OE2 GLU A   1       9.909   6.735  27.015  0.00  0.00    -0.251 OA
BRANCH  20  22
ATOM     22  OE1 GLU A   1       8.583   5.668  25.531  0.00  0.00    -0.481 OA
ATOM     23  HE1 GLU A   1       8.731   5.035  24.802  0.00  0.00    +0.295 HD
ENDBRANCH  20  22
ENDBRANCH  19  20
ENDBRANCH  18  19
ENDBRANCH  13  18
ENDBRANCH  10  13
ENDBRANCH   6   9
ENDBRANCH   1   3
BRANCH   1  24
ATOM     24  C   UNK A   0       8.994  -2.954  24.583  0.00  0.00    +0.126 C 
BRANCH  24  35
ATOM     25  N   UNK A   0       4.874  -4.766  29.220  0.00  0.00    -0.329 N 
ATOM     26  H   UNK A   0       5.271  -5.435  29.865  0.00  0.00    +0.145 HD
ATOM     27  H   UNK A   0       3.857  -4.786  29.236  0.00  0.00    +0.145 HD
ATOM     28  C   UNK A   0       5.349  -4.796  27.953  0.00  0.00    +0.195 A 
ATOM     29  N   UNK A   0       6.680  -4.992  27.866  0.00  0.00    -0.315 N 
ATOM     30  H   UNK A   0       7.239  -5.108  28.696  0.00  0.00    +0.170 HD
ATOM     31  C   UNK A   0       7.331  -5.043  26.670  0.00  0.00    +0.126 A 
ATOM     32  N   UNK A   0       8.696  -5.283  26.656  0.00  0.00    -0.327 N 
ATOM     33  H   UNK A   0       9.208  -4.897  27.443  0.00  0.00    +0.148 HD
ATOM     34  C   UNK A   0       9.438  -5.344  25.398  0.00  0.00    +0.127 C 
ATOM     35  C   UNK A   0       8.763  -4.466  24.329  0.00  0.00    +0.115 C 
ATOM     36  N   UNK A   0       7.300  -4.767  24.284  0.00  0.00    -0.261 N 
ATOM     37  C   UNK A   0       6.692  -4.829  23.042  0.00  0.00    +0.333 C 
ATOM     38  O   UNK A   0       7.271  -4.634  21.977  0.00  0.00    -0.279 OA
ATOM     39  C   UNK A   0       6.628  -4.852  25.523  0.00  0.00    +0.142 A 
ATOM     40  C   UNK A   0       5.127  -4.611  25.671  0.00  0.00    +0.298 A 
ATOM     41  O   UNK A   0       4.434  -4.357  24.693  0.00  0.00    -0.264 OA
ATOM     42  N   UNK A   0       4.568  -4.623  26.940  0.00  0.00    -0.176 NA
ENDBRANCH  24  35
ENDBRANCH   1  24
TORSDOF 11
ENDMDL
MODEL 2
REMARK VINA RESULT:      -8.3      1.899      2.725
REMARK  Name = 
REMARK  11 active torsions:
REMARK  status: ('A' for Active; 'I' for Inactive)
REMARK    1  A    between atoms: C_10  and  C_12
REMARK    2  A    between atoms: C_12  and  N_13
REMARK    3  A    between atoms: N_13  and  C_14
REMARK    4  A    between atoms: C_17  and  C_20
REMARK    5  A    between atoms: N_22  and  CA_23
REMARK    6  A    between atoms: CA_23  and  CB_25
REMARK    7  A    between atoms: CA_23  and  C_30
REMARK    8  A    between atoms: CB_25  and  CG_26
REMARK    9  A    between atoms: CG_26  and  CD_27
REMARK   10  A    between atoms: CD_27  and  OE1_28
REMARK   11  A    between atoms: C_30  and  O_31
REMARK                            x       y       z     vdW  Elec       q    Type
REMARK                         _______ _______ _______ _____ _____    ______ ____
ROOT
ATOM      1  N   UNK A   0      10.076  -2.070  23.157  0.00  0.00    -0.342 N 
ATOM      2  H   UNK A   0      10.691  -2.425  22.423  0.00  0.00    +0.146 HD
ENDROOT
BRANCH   1   3
ATOM      3  C   UNK A   0      10.109  -0.660  23.163  0.00  0.00    +0.027 A 
ATOM      4  C   UNK A   0      10.315   0.019  24.376  0.00  0.00    +0.023 A 
ATOM      5  C   UNK A   0      10.384   1.422  24.429  0.00  0.00    +0.015 A 
ATOM      6  C   UNK A   0      10.224   2.173  23.263  0.00  0.00    +0.037 A 
ATOM      7  C   UNK A   0       9.894   1.518  22.074  0.00  0.00    +0.015 A 
ATOM      8  C   UNK A   0       9.821   0.120  22.036  0.00  0.00    +0.023 A 
BRANCH   6   9
ATOM      9  C   UNK A   0      10.420   3.652  23.286  0.00  0.00    +0.245 C 
ATOM     10  N   GLU A   1      11.732   4.079  23.245  0.00  0.00    -0.298 N 
ATOM     11  H   GLU A   1      12.483   3.401  23.188  0.00  0.00    +0.150 HD
ATOM     12  O   UNK A   0       9.482   4.438  23.359  0.00  0.00    -0.270 OA
BRANCH  10  13
ATOM     13  CA  GLU A   1      12.069   5.498  23.288  0.00  0.00    +0.182 C 
BRANCH  13  14
ATOM     14  C   GLU A   1      13.435   5.704  22.619  0.00  0.00    +0.325 C 
ATOM     15  OXT GLU A   1      13.669   6.579  21.792  0.00  0.00    -0.249 OA
BRANCH  14  16
ATOM     16  O   GLU A   1      14.376   4.827  23.038  0.00  0.00    -0.479 OA
ATOM     17  H   GLU A   1      14.840   5.133  23.852  0.00  0.00    +0.295 HD
ENDBRANCH  14  16
ENDBRANCH  13  14
BRANCH  13  18
ATOM     18  CB  GLU A   1      12.101   6.022  24.731  0.00  0.00    +0.045 C 
BRANCH  18  19
ATOM     19  CG  GLU A   1      11.046   7.103  24.967  0.00  0.00    +0.123 C 
BRANCH  19  20
ATOM     20  CD  GLU A   1      10.117   6.719  26.087  0.00  0.00    +0.305 C 
ATOM     21  OE2 GLU A   1      10.253   7.106  27.237  0.00  0.00    -0.251 OA
BRANCH  20  22
ATOM     22  OE1 GLU A   1       9.094   5.931  25.696  0.00  0.00    -0.481 OA
ATOM     23  HE1 GLU A   1       8.212   6.344  25.764  0.00  0.00    +0.295 HD
ENDBRANCH  20  22
ENDBRANCH  19  20
ENDBRANCH  18  19
ENDBRANCH  13  18
ENDBRANCH  10  13
ENDBRANCH   6   9
ENDBRANCH   1   3
BRANCH   1  24
ATOM     24  C   UNK A   0       8.742  -2.699  23.093  0.00  0.00    +0.126 C 
BRANCH  24  35
ATOM     25  N   UNK A   0       3.631  -6.648  22.876  0.00  0.00    -0.329 N 
ATOM     26  H   UNK A   0       2.806  -6.208  22.493  0.00  0.00    +0.145 HD
ATOM     27  H   UNK A   0       3.397  -7.465  23.434  0.00  0.00    +0.145 HD
ATOM     28  C   UNK A   0       4.499  -5.837  23.525  0.00  0.00    +0.195 A 
ATOM     29  N   UNK A   0       4.678  -4.637  22.938  0.00  0.00    -0.315 N 
ATOM     30  H   UNK A   0       4.187  -4.398  22.091  0.00  0.00    +0.170 HD
ATOM     31  C   UNK A   0       5.522  -3.697  23.449  0.00  0.00    +0.126 A 
ATOM     32  N   UNK A   0       5.630  -2.471  22.810  0.00  0.00    -0.327 N 
ATOM     33  H   UNK A   0       5.534  -2.503  21.800  0.00  0.00    +0.148 HD
ATOM     34  C   UNK A   0       6.524  -1.432  23.320  0.00  0.00    +0.127 C 
ATOM     35  C   UNK A   0       7.715  -2.061  24.065  0.00  0.00    +0.115 C 
ATOM     36  N   UNK A   0       7.216  -3.081  25.036  0.00  0.00    -0.261 N 
ATOM     37  C   UNK A   0       7.822  -3.138  26.279  0.00  0.00    +0.333 C 
ATOM     38  O   UNK A   0       8.754  -2.418  26.630  0.00  0.00    -0.279 OA
ATOM     39  C   UNK A   0       6.240  -3.985  24.567  0.00  0.00    +0.142 A 
ATOM     40  C   UNK A   0       6.020  -5.365  25.184  0.00  0.00    +0.298 A 
ATOM     41  O   UNK A   0       6.681  -5.732  26.149  0.00  0.00    -0.264 OA
ATOM     42  N   UNK A   0       5.102  -6.224  24.599  0.00  0.00    -0.176 NA
ENDBRANCH  24  35
ENDBRANCH   1  24
TORSDOF 11
ENDMDL
MODEL 3
REMARK VINA RESULT:      -8.2      2.735      4.125
REMARK  Name = 
REMARK  11 active torsions:
REMARK  status: ('A' for Active; 'I' for Inactive)
REMARK    1  A    between atoms: C_10  and  C_12
REMARK    2  A    between atoms: C_12  and  N_13
REMARK    3  A    between atoms: N_13  and  C_14
REMARK    4  A    between atoms: C_17  and  C_20
REMARK    5  A    between atoms: N_22  and  CA_23
REMARK    6  A    between atoms: CA_23  and  CB_25
REMARK    7  A    between atoms: CA_23  and  C_30
REMARK    8  A    between atoms: CB_25  and  CG_26
REMARK    9  A    between atoms: CG_26  and  CD_27
REMARK   10  A    between atoms: CD_27  and  OE1_28
REMARK   11  A    between atoms: C_30  and  O_31
REMARK                            x       y       z     vdW  Elec       q    Type
REMARK                         _______ _______ _______ _____ _____    ______ ____
ROOT
ATOM      1  N   UNK A   0       9.804  -1.864  22.752  0.00  0.00    -0.342 N 
ATOM      2  H   UNK A   0       8.970  -1.971  22.172  0.00  0.00    +0.146 HD
ENDROOT
BRANCH   1   3
ATOM      3  C   UNK A   0      10.093  -0.494  22.921  0.00  0.00    +0.027 A 
ATOM      4  C   UNK A   0       9.832   0.400  21.868  0.00  0.00    +0.023 A 
ATOM      5  C   UNK A   0      10.076   1.778  21.999  0.00  0.00    +0.015 A 
ATOM      6  C   UNK A   0      10.612   2.283  23.186  0.00  0.00    +0.037 A 
ATOM      7  C   UNK A   0      10.993   1.391  24.190  0.00  0.00    +0.015 A 
ATOM      8  C   UNK A   0      10.751   0.020  24.046  0.00  0.00    +0.023 A 
BRANCH   6   9
ATOM      9  C   UNK A   0      10.759   3.754  23.381  0.00  0.00    +0.245 C 
ATOM     10  N   GLU A   1       9.578   4.456  23.521  0.00  0.00    -0.298 N 
ATOM     11  H   GLU A   1       8.692   3.965  23.503  0.00  0.00    +0.150 HD
ATOM     12  O   UNK A   0      11.851   4.310  23.393  0.00  0.00    -0.270 OA
BRANCH  10  13
ATOM     13  CA  GLU A   1       9.573   5.905  23.692  0.00  0.00    +0.182 C 
BRANCH  13  14
ATOM     14  C   GLU A   1       9.640   6.229  25.191  0.00  0.00    +0.325 C 
ATOM     15  OXT GLU A   1      10.346   7.108  25.671  0.00  0.00    -0.249 OA
BRANCH  14  16
ATOM     16  O   GLU A   1       8.829   5.452  25.944  0.00  0.00    -0.479 OA
ATOM     17  H   GLU A   1       9.320   4.737  26.412  0.00  0.00    +0.295 HD
ENDBRANCH  14  16
ENDBRANCH  13  14
BRANCH  13  18
ATOM     18  CB  GLU A   1       8.321   6.538  23.068  0.00  0.00    +0.045 C 
BRANCH  18  19
ATOM     19  CG  GLU A   1       7.420   5.490  22.413  0.00  0.00    +0.123 C 
BRANCH  19  20
ATOM     20  CD  GLU A   1       6.186   5.245  23.237  0.00  0.00    +0.305 C 
ATOM     21  OE2 GLU A   1       5.058   5.524  22.861  0.00  0.00    -0.251 OA
BRANCH  20  22
ATOM     22  OE1 GLU A   1       6.436   4.650  24.423  0.00  0.00    -0.481 OA
ATOM     23  HE1 GLU A   1       6.229   3.696  24.452  0.00  0.00    +0.295 HD
ENDBRANCH  20  22
ENDBRANCH  19  20
ENDBRANCH  18  19
ENDBRANCH  13  18
ENDBRANCH  10  13
ENDBRANCH   6   9
ENDBRANCH   1   3
BRANCH   1  24
ATOM     24  C   UNK A   0       9.713  -2.676  23.982  0.00  0.00    +0.126 C 
BRANCH  24  35
ATOM     25  N   UNK A   0       7.596   2.771  26.740  0.00  0.00    -0.329 N 
ATOM     26  H   UNK A   0       7.384   2.663  27.722  0.00  0.00    +0.145 HD
ATOM     27  H   UNK A   0       7.125   3.580  26.341  0.00  0.00    +0.145 HD
ATOM     28  C   UNK A   0       7.435   1.674  25.965  0.00  0.00    +0.195 A 
ATOM     29  N   UNK A   0       7.843   0.525  26.541  0.00  0.00    -0.315 N 
ATOM     30  H   UNK A   0       8.225   0.524  27.473  0.00  0.00    +0.170 HD
ATOM     31  C   UNK A   0       7.763  -0.677  25.904  0.00  0.00    +0.126 A 
ATOM     32  N   UNK A   0       8.170  -1.821  26.572  0.00  0.00    -0.327 N 
ATOM     33  H   UNK A   0       8.946  -1.691  27.214  0.00  0.00    +0.148 HD
ATOM     34  C   UNK A   0       8.106  -3.132  25.928  0.00  0.00    +0.127 C 
ATOM     35  C   UNK A   0       8.253  -2.994  24.402  0.00  0.00    +0.115 C 
ATOM     36  N   UNK A   0       7.327  -1.933  23.904  0.00  0.00    -0.261 N 
ATOM     37  C   UNK A   0       6.660  -2.167  22.714  0.00  0.00    +0.333 C 
ATOM     38  O   UNK A   0       6.792  -3.181  22.033  0.00  0.00    -0.279 OA
ATOM     39  C   UNK A   0       7.294  -0.723  24.629  0.00  0.00    +0.142 A 
ATOM     40  C   UNK A   0       6.863   0.606  24.009  0.00  0.00    +0.298 A 
ATOM     41  O   UNK A   0       6.498   0.662  22.841  0.00  0.00    -0.264 OA
ATOM     42  N   UNK A   0       6.951   1.761  24.771  0.00  0.00    -0.176 NA
ENDBRANCH  24  35
ENDBRANCH   1  24
TORSDOF 11
ENDMDL
MODEL 4
REMARK VINA RESULT:      -8.2      2.144      3.021
REMARK  Name = 
REMARK  11 active torsions:
REMARK  status: ('A' for Active; 'I' for Inactive)
REMARK    1  A    between atoms: C_10  and  C_12
REMARK    2  A    between atoms: C_12  and  N_13
REMARK    3  A    between atoms: N_13  and  C_14
REMARK    4  A    between atoms: C_17  and  C_20
REMARK    5  A    between atoms: N_22  and  CA_23
REMARK    6  A    between atoms: CA_23  and  CB_25
REMARK    7  A    between atoms: CA_23  and  C_30
REMARK    8  A    between atoms: CB_25  and  CG_26
REMARK    9  A    between atoms: CG_26  and  CD_27
REMARK   10  A    between atoms: CD_27  and  OE1_28
REMARK   11  A    between atoms: C_30  and  O_31
REMARK                            x       y       z     vdW  Elec       q    Type
REMARK                         _______ _______ _______ _____ _____    ______ ____
ROOT
ATOM      1  N   UNK A   0      10.111  -1.919  22.633  0.00  0.00    -0.342 N 
ATOM      2  H   UNK A   0       9.807  -2.134  21.682  0.00  0.00    +0.146 HD
ENDROOT
BRANCH   1   3
ATOM      3  C   UNK A   0      10.184  -0.520  22.802  0.00  0.00    +0.027 A 
ATOM      4  C   UNK A   0      10.546   0.005  24.054  0.00  0.00    +0.023 A 
ATOM      5  C   UNK A   0      10.661   1.391  24.263  0.00  0.00    +0.015 A 
ATOM      6  C   UNK A   0      10.389   2.279  23.219  0.00  0.00    +0.037 A 
ATOM      7  C   UNK A   0       9.907   1.776  22.009  0.00  0.00    +0.015 A 
ATOM      8  C   UNK A   0       9.790   0.394  21.815  0.00  0.00    +0.023 A 
BRANCH   6   9
ATOM      9  C   UNK A   0      10.628   3.741  23.393  0.00  0.00    +0.245 C 
ATOM     10  N   GLU A   1       9.493   4.522  23.489  0.00  0.00    -0.298 N 
ATOM     11  H   GLU A   1       8.577   4.090  23.456  0.00  0.00    +0.150 HD
ATOM     12  O   UNK A   0      11.754   4.224  23.425  0.00  0.00    -0.270 OA
BRANCH  10  13
ATOM     13  CA  GLU A   1       9.580   5.971  23.636  0.00  0.00    +0.182 C 
BRANCH  13  14
ATOM     14  C   GLU A   1       9.706   6.313  25.127  0.00  0.00    +0.325 C 
ATOM     15  OXT GLU A   1      10.631   6.959  25.606  0.00  0.00    -0.249 OA
BRANCH  14  16
ATOM     16  O   GLU A   1       8.683   5.840  25.874  0.00  0.00    -0.479 OA
ATOM     17  H   GLU A   1       8.260   5.045  25.474  0.00  0.00    +0.295 HD
ENDBRANCH  14  16
ENDBRANCH  13  14
BRANCH  13  18
ATOM     18  CB  GLU A   1       8.353   6.669  23.033  0.00  0.00    +0.045 C 
BRANCH  18  19
ATOM     19  CG  GLU A   1       7.495   5.704  22.213  0.00  0.00    +0.123 C 
BRANCH  19  20
ATOM     20  CD  GLU A   1       6.293   5.249  22.995  0.00  0.00    +0.305 C 
ATOM     21  OE2 GLU A   1       6.305   5.067  24.203  0.00  0.00    -0.251 OA
BRANCH  20  22
ATOM     22  OE1 GLU A   1       5.184   5.092  22.242  0.00  0.00    -0.481 OA
ATOM     23  HE1 GLU A   1       4.748   5.926  21.981  0.00  0.00    +0.295 HD
ENDBRANCH  20  22
ENDBRANCH  19  20
ENDBRANCH  18  19
ENDBRANCH  13  18
ENDBRANCH  10  13
ENDBRANCH   6   9
ENDBRANCH   1   3
BRANCH   1  24
ATOM     24  C   UNK A   0       9.322  -2.664  23.634  0.00  0.00    +0.126 C 
BRANCH  24  35
ATOM     25  N   UNK A   0       6.848  -6.401  28.290  0.00  0.00    -0.329 N 
ATOM     26  H   UNK A   0       6.565  -7.313  27.958  0.00  0.00    +0.145 HD
ATOM     27  H   UNK A   0       6.387  -6.159  29.163  0.00  0.00    +0.145 HD
ATOM     28  C   UNK A   0       6.778  -5.388  27.395  0.00  0.00    +0.195 A 
ATOM     29  N   UNK A   0       7.174  -5.721  26.150  0.00  0.00    -0.315 N 
ATOM     30  H   UNK A   0       7.483  -6.656  25.940  0.00  0.00    +0.170 HD
ATOM     31  C   UNK A   0       7.177  -4.824  25.124  0.00  0.00    +0.126 A 
ATOM     32  N   UNK A   0       7.563  -5.247  23.862  0.00  0.00    -0.327 N 
ATOM     33  H   UNK A   0       8.284  -5.962  23.850  0.00  0.00    +0.148 HD
ATOM     34  C   UNK A   0       7.585  -4.321  22.731  0.00  0.00    +0.127 C 
ATOM     35  C   UNK A   0       7.845  -2.882  23.214  0.00  0.00    +0.115 C 
ATOM     36  N   UNK A   0       6.930  -2.564  24.351  0.00  0.00    -0.261 N 
ATOM     37  C   UNK A   0       6.362  -1.302  24.387  0.00  0.00    +0.333 C 
ATOM     38  O   UNK A   0       6.574  -0.423  23.557  0.00  0.00    -0.279 OA
ATOM     39  C   UNK A   0       6.807  -3.539  25.364  0.00  0.00    +0.142 A 
ATOM     40  C   UNK A   0       6.388  -3.202  26.795  0.00  0.00    +0.298 A 
ATOM     41  O   UNK A   0       6.112  -2.051  27.112  0.00  0.00    -0.264 OA
ATOM     42  N   UNK A   0       6.385  -4.210  27.747  0.00  0.00    -0.176 NA
ENDBRANCH  24  35
ENDBRANCH   1  24
TORSDOF 11
ENDMDL
MODEL 5
REMARK VINA RESULT:      -8.1      1.958      2.606
REMARK  Name = 
REMARK  11 active torsions:
REMARK  status: ('A' for Active; 'I' for Inactive)
REMARK    1  A    between atoms: C_10  and  C_12
REMARK    2  A    between atoms: C_12  and  N_13
REMARK    3  A    between atoms: N_13  and  C_14
REMARK    4  A    between atoms: C_17  and  C_20
REMARK    5  A    between atoms: N_22  and  CA_23
REMARK    6  A    between atoms: CA_23  and  CB_25
REMARK    7  A    between atoms: CA_23  and  C_30
REMARK    8  A    between atoms: CB_25  and  CG_26
REMARK    9  A    between atoms: CG_26  and  CD_27
REMARK   10  A    between atoms: CD_27  and  OE1_28
REMARK   11  A    between atoms: C_30  and  O_31
REMARK                            x       y       z     vdW  Elec       q    Type
REMARK                         _______ _______ _______ _____ _____    ______ ____
ROOT
ATOM      1  N   UNK A   0       8.548  -1.407  26.606  0.00  0.00    -0.342 N 
ATOM      2  H   UNK A   0       9.343  -1.877  27.042  0.00  0.00    +0.146 HD
ENDROOT
BRANCH   1   3
ATOM      3  C   UNK A   0       9.005  -0.316  25.836  0.00  0.00    +0.027 A 
ATOM      4  C   UNK A   0       8.170   0.799  25.658  0.00  0.00    +0.023 A 
ATOM      5  C   UNK A   0       8.592   1.921  24.923  0.00  0.00    +0.015 A 
ATOM      6  C   UNK A   0       9.857   1.932  24.331  0.00  0.00    +0.037 A 
ATOM      7  C   UNK A   0      10.645   0.782  24.395  0.00  0.00    +0.015 A 
ATOM      8  C   UNK A   0      10.211  -0.332  25.124  0.00  0.00    +0.023 A 
BRANCH   6   9
ATOM      9  C   UNK A   0      10.362   3.163  23.657  0.00  0.00    +0.245 C 
ATOM     10  N   GLU A   1       9.947   4.359  24.211  0.00  0.00    -0.298 N 
ATOM     11  H   GLU A   1       9.352   4.356  25.031  0.00  0.00    +0.150 HD
ATOM     12  O   UNK A   0      11.079   3.122  22.664  0.00  0.00    -0.270 OA
BRANCH  10  13
ATOM     13  CA  GLU A   1      10.345   5.639  23.637  0.00  0.00    +0.182 C 
BRANCH  13  14
ATOM     14  C   GLU A   1      11.568   6.167  24.399  0.00  0.00    +0.325 C 
ATOM     15  OXT GLU A   1      11.507   6.968  25.324  0.00  0.00    -0.249 OA
BRANCH  14  16
ATOM     16  O   GLU A   1      12.738   5.652  23.956  0.00  0.00    -0.479 OA
ATOM     17  H   GLU A   1      12.705   5.405  23.003  0.00  0.00    +0.295 HD
ENDBRANCH  14  16
ENDBRANCH  13  14
BRANCH  13  18
ATOM     18  CB  GLU A   1       9.200   6.660  23.699  0.00  0.00    +0.045 C 
BRANCH  18  19
ATOM     19  CG  GLU A   1       7.830   5.983  23.653  0.00  0.00    +0.123 C 
BRANCH  19  20
ATOM     20  CD  GLU A   1       7.573   5.374  22.300  0.00  0.00    +0.305 C 
ATOM     21  OE2 GLU A   1       7.427   4.175  22.118  0.00  0.00    -0.251 OA
BRANCH  20  22
ATOM     22  OE1 GLU A   1       7.481   6.282  21.306  0.00  0.00    -0.481 OA
ATOM     23  HE1 GLU A   1       6.879   6.031  20.579  0.00  0.00    +0.295 HD
ENDBRANCH  20  22
ENDBRANCH  19  20
ENDBRANCH  18  19
ENDBRANCH  13  18
ENDBRANCH  10  13
ENDBRANCH   6   9
ENDBRANCH   1   3
BRANCH   1  24
ATOM     24  C   UNK A   0       7.658  -2.369  25.926  0.00  0.00    +0.126 C 
BRANCH  24  35
ATOM     25  N   UNK A   0       3.780  -7.490  26.629  0.00  0.00    -0.329 N 
ATOM     26  H   UNK A   0       4.182  -8.216  27.206  0.00  0.00    +0.145 HD
ATOM     27  H   UNK A   0       3.039  -7.851  26.033  0.00  0.00    +0.145 HD
ATOM     28  C   UNK A   0       4.651  -6.728  25.929  0.00  0.00    +0.195 A 
ATOM     29  N   UNK A   0       5.770  -6.402  26.606  0.00  0.00    -0.315 N 
ATOM     30  H   UNK A   0       5.913  -6.723  27.550  0.00  0.00    +0.170 HD
ATOM     31  C   UNK A   0       6.754  -5.633  26.059  0.00  0.00    +0.126 A 
ATOM     32  N   UNK A   0       7.893  -5.367  26.803  0.00  0.00    -0.327 N 
ATOM     33  H   UNK A   0       7.742  -5.279  27.803  0.00  0.00    +0.148 HD
ATOM     34  C   UNK A   0       8.973  -4.546  26.260  0.00  0.00    +0.127 C 
ATOM     35  C   UNK A   0       8.422  -3.533  25.240  0.00  0.00    +0.115 C 
ATOM     36  N   UNK A   0       7.532  -4.236  24.267  0.00  0.00    -0.261 N 
ATOM     37  C   UNK A   0       7.616  -3.868  22.936  0.00  0.00    +0.333 C 
ATOM     38  O   UNK A   0       8.359  -2.991  22.504  0.00  0.00    -0.279 OA
ATOM     39  C   UNK A   0       6.591  -5.141  24.802  0.00  0.00    +0.142 A 
ATOM     40  C   UNK A   0       5.298  -5.518  24.082  0.00  0.00    +0.298 A 
ATOM     41  O   UNK A   0       5.040  -5.056  22.976  0.00  0.00    -0.264 OA
ATOM     42  N   UNK A   0       4.387  -6.343  24.724  0.00  0.00    -0.176 NA
ENDBRANCH  24  35
ENDBRANCH   1  24
TORSDOF 11
ENDMDL
MODEL 6
REMARK VINA RESULT:      -8.0      2.791      8.797
REMARK  Name = 
REMARK  11 active torsions:
REMARK  status: ('A' for Active; 'I' for Inactive)
REMARK    1  A    between atoms: C_10  and  C_12
REMARK    2  A    between atoms: C_12  and  N_13
REMARK    3  A    between atoms: N_13  and  C_14
REMARK    4  A    between atoms: C_17  and  C_20
REMARK    5  A    between atoms: N_22  and  CA_23
REMARK    6  A    between atoms: CA_23  and  CB_25
REMARK    7  A    between atoms: CA_23  and  C_30
REMARK    8  A    between atoms: CB_25  and  CG_26
REMARK    9  A    between atoms: CG_26  and  CD_27
REMARK   10  A    between atoms: CD_27  and  OE1_28
REMARK   11  A    between atoms: C_30  and  O_31
REMARK                            x       y       z     vdW  Elec       q    Type
REMARK                         _______ _______ _______ _____ _____    ______ ____
ROOT
ATOM      1  N   UNK A   0       8.751   2.162  21.560  0.00  0.00    -0.342 N 
ATOM      2  H   UNK A   0       9.751   2.349  21.645  0.00  0.00    +0.146 HD
ENDROOT
BRANCH   1   3
ATOM      3  C   UNK A   0       8.487   0.822  21.916  0.00  0.00    +0.027 A 
ATOM      4  C   UNK A   0       9.417  -0.176  21.581  0.00  0.00    +0.023 A 
ATOM      5  C   UNK A   0       9.212  -1.520  21.940  0.00  0.00    +0.015 A 
ATOM      6  C   UNK A   0       8.052  -1.890  22.623  0.00  0.00    +0.037 A 
ATOM      7  C   UNK A   0       7.063  -0.931  22.850  0.00  0.00    +0.015 A 
ATOM      8  C   UNK A   0       7.276   0.403  22.482  0.00  0.00    +0.023 A 
BRANCH   6   9
ATOM      9  C   UNK A   0       7.882  -3.288  23.117  0.00  0.00    +0.245 C 
ATOM     10  N   GLU A   1       6.577  -3.712  23.267  0.00  0.00    -0.298 N 
ATOM     11  H   GLU A   1       5.813  -3.090  23.031  0.00  0.00    +0.150 HD
ATOM     12  O   UNK A   0       8.836  -4.007  23.395  0.00  0.00    -0.270 OA
BRANCH  10  13
ATOM     13  CA  GLU A   1       6.266  -5.047  23.767  0.00  0.00    +0.182 C 
BRANCH  13  14
ATOM     14  C   GLU A   1       5.474  -5.807  22.694  0.00  0.00    +0.325 C 
ATOM     15  OXT GLU A   1       4.292  -5.604  22.441  0.00  0.00    -0.249 OA
BRANCH  14  16
ATOM     16  O   GLU A   1       6.213  -6.729  22.035  0.00  0.00    -0.479 OA
ATOM     17  H   GLU A   1       6.690  -6.347  21.261  0.00  0.00    +0.295 HD
ENDBRANCH  14  16
ENDBRANCH  13  14
BRANCH  13  18
ATOM     18  CB  GLU A   1       5.461  -4.982  25.073  0.00  0.00    +0.045 C 
BRANCH  18  19
ATOM     19  CG  GLU A   1       6.180  -5.694  26.219  0.00  0.00    +0.123 C 
BRANCH  19  20
ATOM     20  CD  GLU A   1       7.496  -5.034  26.528  0.00  0.00    +0.305 C 
ATOM     21  OE2 GLU A   1       7.612  -3.841  26.763  0.00  0.00    -0.251 OA
BRANCH  20  22
ATOM     22  OE1 GLU A   1       8.538  -5.891  26.557  0.00  0.00    -0.481 OA
ATOM     23  HE1 GLU A   1       9.023  -5.914  27.405  0.00  0.00    +0.295 HD
ENDBRANCH  20  22
ENDBRANCH  19  20
ENDBRANCH  18  19
ENDBRANCH  13  18
ENDBRANCH  10  13
ENDBRANCH   6   9
ENDBRANCH   1   3
BRANCH   1  24
ATOM     24  C   UNK A   0       7.948   3.197  22.242  0.00  0.00    +0.126 C 
BRANCH  24  35
ATOM     25  N   UNK A   0       7.102  -0.917  27.153  0.00  0.00    -0.329 N 
ATOM     26  H   UNK A   0       6.555  -0.527  27.908  0.00  0.00    +0.145 HD
ATOM     27  H   UNK A   0       7.663  -1.706  27.464  0.00  0.00    +0.145 HD
ATOM     28  C   UNK A   0       7.838  -0.042  26.429  0.00  0.00    +0.195 A 
ATOM     29  N   UNK A   0       7.216   1.126  26.175  0.00  0.00    -0.315 N 
ATOM     30  H   UNK A   0       6.284   1.299  26.515  0.00  0.00    +0.170 HD
ATOM     31  C   UNK A   0       7.805   2.121  25.453  0.00  0.00    +0.126 A 
ATOM     32  N   UNK A   0       7.117   3.310  25.260  0.00  0.00    -0.327 N 
ATOM     33  H   UNK A   0       6.110   3.215  25.178  0.00  0.00    +0.148 HD
ATOM     34  C   UNK A   0       7.706   4.404  24.491  0.00  0.00    +0.127 C 
ATOM     35  C   UNK A   0       8.685   3.859  23.435  0.00  0.00    +0.115 C 
ATOM     36  N   UNK A   0       9.619   2.883  24.075  0.00  0.00    -0.261 N 
ATOM     37  C   UNK A   0      10.949   2.919  23.694  0.00  0.00    +0.333 C 
ATOM     38  O   UNK A   0      11.408   3.687  22.853  0.00  0.00    -0.279 OA
ATOM     39  C   UNK A   0       9.046   1.922  24.936  0.00  0.00    +0.142 A 
ATOM     40  C   UNK A   0       9.703   0.575  25.231  0.00  0.00    +0.298 A 
ATOM     41  O   UNK A   0      10.789   0.287  24.741  0.00  0.00    -0.264 OA
ATOM     42  N   UNK A   0       9.023  -0.346  26.014  0.00  0.00    -0.176 NA
ENDBRANCH  24  35
ENDBRANCH   1  24
TORSDOF 11
ENDMDL
MODEL 7
REMARK VINA RESULT:      -8.0      1.661      2.792
REMARK  Name = 
REMARK  11 active torsions:
REMARK  status: ('A' for Active; 'I' for Inactive)
REMARK    1  A    between atoms: C_10  and  C_12
REMARK    2  A    between atoms: C_12  and  N_13
REMARK    3  A    between atoms: N_13  and  C_14
REMARK    4  A    between atoms: C_17  and  C_20
REMARK    5  A    between atoms: N_22  and  CA_23
REMARK    6  A    between atoms: CA_23  and  CB_25
REMARK    7  A    between atoms: CA_23  and  C_30
REMARK    8  A    between atoms: CB_25  and  CG_26
REMARK    9  A    between atoms: CG_26  and  CD_27
REMARK   10  A    between atoms: CD_27  and  OE1_28
REMARK   11  A    between atoms: C_30  and  O_31
REMARK                            x       y       z     vdW  Elec       q    Type
REMARK                         _______ _______ _______ _____ _____    ______ ____
ROOT
ATOM      1  N   UNK A   0       9.759  -2.253  23.899  0.00  0.00    -0.342 N 
ATOM      2  H   UNK A   0       9.388  -2.528  22.988  0.00  0.00    +0.146 HD
ENDROOT
BRANCH   1   3
ATOM      3  C   UNK A   0       9.407  -0.914  24.170  0.00  0.00    +0.027 A 
ATOM      4  C   UNK A   0      10.404   0.076  24.164  0.00  0.00    +0.023 A 
ATOM      5  C   UNK A   0      10.097   1.427  24.401  0.00  0.00    +0.015 A 
ATOM      6  C   UNK A   0       8.781   1.807  24.673  0.00  0.00    +0.037 A 
ATOM      7  C   UNK A   0       7.804   0.818  24.806  0.00  0.00    +0.015 A 
ATOM      8  C   UNK A   0       8.123  -0.525  24.575  0.00  0.00    +0.023 A 
BRANCH   6   9
ATOM      9  C   UNK A   0       8.424   3.249  24.801  0.00  0.00    +0.245 C 
ATOM     10  N   GLU A   1       8.719   4.035  23.705  0.00  0.00    -0.298 N 
ATOM     11  H   GLU A   1       9.135   3.618  22.880  0.00  0.00    +0.150 HD
ATOM     12  O   UNK A   0       7.924   3.715  25.819  0.00  0.00    -0.270 OA
BRANCH  10  13
ATOM     13  CA  GLU A   1       8.447   5.469  23.704  0.00  0.00    +0.182 C 
BRANCH  13  14
ATOM     14  C   GLU A   1       7.334   5.763  22.688  0.00  0.00    +0.325 C 
ATOM     15  OXT GLU A   1       6.139   5.635  22.925  0.00  0.00    -0.249 OA
BRANCH  14  16
ATOM     16  O   GLU A   1       7.799   6.194  21.493  0.00  0.00    -0.479 OA
ATOM     17  H   GLU A   1       8.274   5.488  20.997  0.00  0.00    +0.295 HD
ENDBRANCH  14  16
ENDBRANCH  13  14
BRANCH  13  18
ATOM     18  CB  GLU A   1       9.707   6.277  23.359  0.00  0.00    +0.045 C 
BRANCH  18  19
ATOM     19  CG  GLU A   1      10.814   6.073  24.394  0.00  0.00    +0.123 C 
BRANCH  19  20
ATOM     20  CD  GLU A   1      11.994   5.361  23.791  0.00  0.00    +0.305 C 
ATOM     21  OE2 GLU A   1      11.913   4.281  23.227  0.00  0.00    -0.251 OA
BRANCH  20  22
ATOM     22  OE1 GLU A   1      13.153   6.045  23.898  0.00  0.00    -0.481 OA
ATOM     23  HE1 GLU A   1      13.109   6.833  24.474  0.00  0.00    +0.295 HD
ENDBRANCH  20  22
ENDBRANCH  19  20
ENDBRANCH  18  19
ENDBRANCH  13  18
ENDBRANCH  10  13
ENDBRANCH   6   9
ENDBRANCH   1   3
BRANCH   1  24
ATOM     24  C   UNK A   0       9.427  -3.247  24.939  0.00  0.00    +0.126 C 
BRANCH  24  35
ATOM     25  N   UNK A   0       4.907  -4.615  29.349  0.00  0.00    -0.329 N 
ATOM     26  H   UNK A   0       5.054  -5.505  29.806  0.00  0.00    +0.145 HD
ATOM     27  H   UNK A   0       3.941  -4.307  29.431  0.00  0.00    +0.145 HD
ATOM     28  C   UNK A   0       5.353  -4.512  28.076  0.00  0.00    +0.195 A 
ATOM     29  N   UNK A   0       6.543  -5.106  27.857  0.00  0.00    -0.315 N 
ATOM     30  H   UNK A   0       7.026  -5.583  28.602  0.00  0.00    +0.170 HD
ATOM     31  C   UNK A   0       7.148  -5.095  26.636  0.00  0.00    +0.126 A 
ATOM     32  N   UNK A   0       8.355  -5.758  26.476  0.00  0.00    -0.327 N 
ATOM     33  H   UNK A   0       8.961  -5.748  27.291  0.00  0.00    +0.148 HD
ATOM     34  C   UNK A   0       9.043  -5.771  25.187  0.00  0.00    +0.127 C 
ATOM     35  C   UNK A   0       8.706  -4.503  24.381  0.00  0.00    +0.115 C 
ATOM     36  N   UNK A   0       7.227  -4.292  24.374  0.00  0.00    -0.261 N 
ATOM     37  C   UNK A   0       6.643  -3.869  23.193  0.00  0.00    +0.333 C 
ATOM     38  O   UNK A   0       7.261  -3.638  22.157  0.00  0.00    -0.279 OA
ATOM     39  C   UNK A   0       6.557  -4.431  25.608  0.00  0.00    +0.142 A 
ATOM     40  C   UNK A   0       5.221  -3.753  25.908  0.00  0.00    +0.298 A 
ATOM     41  O   UNK A   0       4.659  -3.072  25.058  0.00  0.00    -0.264 OA
ATOM     42  N   UNK A   0       4.681  -3.869  27.180  0.00  0.00    -0.176 NA
ENDBRANCH  24  35
ENDBRANCH   1  24
TORSDOF 11
ENDMDL
MODEL 8
REMARK VINA RESULT:      -8.0      2.456      3.593
REMARK  Name = 
REMARK  11 active torsions:
REMARK  status: ('A' for Active; 'I' for Inactive)
REMARK    1  A    between atoms: C_10  and  C_12
REMARK    2  A    between atoms: C_12  and  N_13
REMARK    3  A    between atoms: N_13  and  C_14
REMARK    4  A    between atoms: C_17  and  C_20
REMARK    5  A    between atoms: N_22  and  CA_23
REMARK    6  A    between atoms: CA_23  and  CB_25
REMARK    7  A    between atoms: CA_23  and  C_30
REMARK    8  A    between atoms: CB_25  and  CG_26
REMARK    9  A    between atoms: CG_26  and  CD_27
REMARK   10  A    between atoms: CD_27  and  OE1_28
REMARK   11  A    between atoms: C_30  and  O_31
REMARK                            x       y       z     vdW  Elec       q    Type
REMARK                         _______ _______ _______ _____ _____    ______ ____
ROOT
ATOM      1  N   UNK A   0      10.077  -2.031  23.077  0.00  0.00    -0.342 N 
ATOM      2  H   UNK A   0      10.698  -2.394  22.353  0.00  0.00    +0.146 HD
ENDROOT
BRANCH   1   3
ATOM      3  C   UNK A   0      10.173  -0.624  23.123  0.00  0.00    +0.027 A 
ATOM      4  C   UNK A   0      10.456   0.008  24.345  0.00  0.00    +0.023 A 
ATOM      5  C   UNK A   0      10.590   1.405  24.436  0.00  0.00    +0.015 A 
ATOM      6  C   UNK A   0      10.417   2.197  23.299  0.00  0.00    +0.037 A 
ATOM      7  C   UNK A   0      10.012   1.593  22.107  0.00  0.00    +0.015 A 
ATOM      8  C   UNK A   0       9.875   0.202  22.031  0.00  0.00    +0.023 A 
BRANCH   6   9
ATOM      9  C   UNK A   0      10.679   3.664  23.356  0.00  0.00    +0.245 C 
ATOM     10  N   GLU A   1       9.559   4.466  23.438  0.00  0.00    -0.298 N 
ATOM     11  H   GLU A   1       8.637   4.046  23.471  0.00  0.00    +0.150 HD
ATOM     12  O   UNK A   0      11.812   4.132  23.310  0.00  0.00    -0.270 OA
BRANCH  10  13
ATOM     13  CA  GLU A   1       9.668   5.920  23.475  0.00  0.00    +0.182 C 
BRANCH  13  14
ATOM     14  C   GLU A   1      10.002   6.358  24.908  0.00  0.00    +0.325 C 
ATOM     15  OXT GLU A   1       9.190   6.378  25.826  0.00  0.00    -0.249 OA
BRANCH  14  16
ATOM     16  O   GLU A   1      11.296   6.715  25.071  0.00  0.00    -0.479 OA
ATOM     17  H   GLU A   1      11.843   5.988  25.450  0.00  0.00    +0.295 HD
ENDBRANCH  14  16
ENDBRANCH  13  14
BRANCH  13  18
ATOM     18  CB  GLU A   1       8.369   6.591  23.005  0.00  0.00    +0.045 C 
BRANCH  18  19
ATOM     19  CG  GLU A   1       7.509   5.643  22.170  0.00  0.00    +0.123 C 
BRANCH  19  20
ATOM     20  CD  GLU A   1       6.325   5.150  22.957  0.00  0.00    +0.305 C 
ATOM     21  OE2 GLU A   1       6.383   4.839  24.137  0.00  0.00    -0.251 OA
BRANCH  20  22
ATOM     22  OE1 GLU A   1       5.178   5.118  22.247  0.00  0.00    -0.481 OA
ATOM     23  HE1 GLU A   1       5.284   4.852  21.313  0.00  0.00    +0.295 HD
ENDBRANCH  20  22
ENDBRANCH  19  20
ENDBRANCH  18  19
ENDBRANCH  13  18
ENDBRANCH  10  13
ENDBRANCH   6   9
ENDBRANCH   1   3
BRANCH   1  24
ATOM     24  C   UNK A   0       8.718  -2.597  22.956  0.00  0.00    +0.126 C 
BRANCH  24  35
ATOM     25  N   UNK A   0       3.644  -6.596  22.820  0.00  0.00    -0.329 N 
ATOM     26  H   UNK A   0       2.808  -6.164  22.451  0.00  0.00    +0.145 HD
ATOM     27  H   UNK A   0       3.427  -7.415  23.382  0.00  0.00    +0.145 HD
ATOM     28  C   UNK A   0       4.514  -5.776  23.455  0.00  0.00    +0.195 A 
ATOM     29  N   UNK A   0       4.672  -4.574  22.866  0.00  0.00    -0.315 N 
ATOM     30  H   UNK A   0       4.165  -4.340  22.028  0.00  0.00    +0.170 HD
ATOM     31  C   UNK A   0       5.515  -3.626  23.364  0.00  0.00    +0.126 A 
ATOM     32  N   UNK A   0       5.601  -2.399  22.724  0.00  0.00    -0.327 N 
ATOM     33  H   UNK A   0       5.488  -2.432  21.715  0.00  0.00    +0.148 HD
ATOM     34  C   UNK A   0       6.492  -1.352  23.219  0.00  0.00    +0.127 C 
ATOM     35  C   UNK A   0       7.701  -1.969  23.945  0.00  0.00    +0.115 C 
ATOM     36  N   UNK A   0       7.228  -2.994  24.924  0.00  0.00    -0.261 N 
ATOM     37  C   UNK A   0       7.855  -3.045  26.156  0.00  0.00    +0.333 C 
ATOM     38  O   UNK A   0       8.785  -2.317  26.492  0.00  0.00    -0.279 OA
ATOM     39  C   UNK A   0       6.253  -3.908  24.470  0.00  0.00    +0.142 A 
ATOM     40  C   UNK A   0       6.057  -5.290  25.090  0.00  0.00    +0.298 A 
ATOM     41  O   UNK A   0       6.738  -5.650  26.044  0.00  0.00    -0.264 OA
ATOM     42  N   UNK A   0       5.139  -6.157  24.519  0.00  0.00    -0.176 NA
ENDBRANCH  24  35
ENDBRANCH   1  24
TORSDOF 11
ENDMDL
MODEL 9
REMARK VINA RESULT:      -7.9      3.438      9.326
REMARK  Name = 
REMARK  11 active torsions:
REMARK  status: ('A' for Active; 'I' for Inactive)
REMARK    1  A    between atoms: C_10  and  C_12
REMARK    2  A    between atoms: C_12  and  N_13
REMARK    3  A    between atoms: N_13  and  C_14
REMARK    4  A    between atoms: C_17  and  C_20
REMARK    5  A    between atoms: N_22  and  CA_23
REMARK    6  A    between atoms: CA_23  and  CB_25
REMARK    7  A    between atoms: CA_23  and  C_30
REMARK    8  A    between atoms: CB_25  and  CG_26
REMARK    9  A    between atoms: CG_26  and  CD_27
REMARK   10  A    between atoms: CD_27  and  OE1_28
REMARK   11  A    between atoms: C_30  and  O_31
REMARK                            x       y       z     vdW  Elec       q    Type
REMARK                         _______ _______ _______ _____ _____    ______ ____
ROOT
ATOM      1  N   UNK A   0       9.940  -1.303  22.450  0.00  0.00    -0.342 N 
ATOM      2  H   UNK A   0      10.607  -0.843  23.071  0.00  0.00    +0.146 HD
ENDROOT
BRANCH   1   3
ATOM      3  C   UNK A   0       9.263  -2.322  23.152  0.00  0.00    +0.027 A 
ATOM      4  C   UNK A   0       9.918  -2.989  24.201  0.00  0.00    +0.023 A 
ATOM      5  C   UNK A   0       9.274  -3.991  24.948  0.00  0.00    +0.015 A 
ATOM      6  C   UNK A   0       7.964  -4.360  24.637  0.00  0.00    +0.037 A 
ATOM      7  C   UNK A   0       7.347  -3.795  23.519  0.00  0.00    +0.015 A 
ATOM      8  C   UNK A   0       8.001  -2.803  22.778  0.00  0.00    +0.023 A 
BRANCH   6   9
ATOM      9  C   UNK A   0       7.230  -5.331  25.499  0.00  0.00    +0.245 C 
ATOM     10  N   GLU A   1       5.905  -5.536  25.171  0.00  0.00    -0.298 N 
ATOM     11  H   GLU A   1       5.499  -5.052  24.378  0.00  0.00    +0.150 HD
ATOM     12  O   UNK A   0       7.758  -5.894  26.452  0.00  0.00    -0.270 OA
BRANCH  10  13
ATOM     13  CA  GLU A   1       5.062  -6.440  25.946  0.00  0.00    +0.182 C 
BRANCH  13  14
ATOM     14  C   GLU A   1       4.130  -7.195  24.988  0.00  0.00    +0.325 C 
ATOM     15  OXT GLU A   1       3.011  -7.593  25.292  0.00  0.00    -0.249 OA
BRANCH  14  16
ATOM     16  O   GLU A   1       4.658  -7.375  23.757  0.00  0.00    -0.479 OA
ATOM     17  H   GLU A   1       5.255  -8.158  23.713  0.00  0.00    +0.295 HD
ENDBRANCH  14  16
ENDBRANCH  13  14
BRANCH  13  18
ATOM     18  CB  GLU A   1       4.239  -5.676  26.994  0.00  0.00    +0.045 C 
BRANCH  18  19
ATOM     19  CG  GLU A   1       4.274  -6.367  28.358  0.00  0.00    +0.123 C 
BRANCH  19  20
ATOM     20  CD  GLU A   1       5.690  -6.546  28.838  0.00  0.00    +0.305 C 
ATOM     21  OE2 GLU A   1       6.218  -7.637  28.984  0.00  0.00    -0.251 OA
BRANCH  20  22
ATOM     22  OE1 GLU A   1       6.337  -5.383  29.059  0.00  0.00    -0.481 OA
ATOM     23  HE1 GLU A   1       5.762  -4.593  29.081  0.00  0.00    +0.295 HD
ENDBRANCH  20  22
ENDBRANCH  19  20
ENDBRANCH  18  19
ENDBRANCH  13  18
ENDBRANCH  10  13
ENDBRANCH   6   9
ENDBRANCH   1   3
BRANCH   1  24
ATOM     24  C   UNK A   0       9.099  -0.320  21.738  0.00  0.00    +0.126 C 
BRANCH  24  35
ATOM     25  N   UNK A   0       4.477  -1.312  26.144  0.00  0.00    -0.329 N 
ATOM     26  H   UNK A   0       3.654  -0.746  25.990  0.00  0.00    +0.145 HD
ATOM     27  H   UNK A   0       4.532  -1.641  27.104  0.00  0.00    +0.145 HD
ATOM     28  C   UNK A   0       5.654  -0.787  25.732  0.00  0.00    +0.195 A 
ATOM     29  N   UNK A   0       5.587  -0.136  24.553  0.00  0.00    -0.315 N 
ATOM     30  H   UNK A   0       4.716  -0.064  24.053  0.00  0.00    +0.170 HD
ATOM     31  C   UNK A   0       6.678   0.449  23.982  0.00  0.00    +0.126 A 
ATOM     32  N   UNK A   0       6.527   1.130  22.785  0.00  0.00    -0.327 N 
ATOM     33  H   UNK A   0       5.829   0.745  22.156  0.00  0.00    +0.148 HD
ATOM     34  C   UNK A   0       7.668   1.771  22.133  0.00  0.00    +0.127 C 
ATOM     35  C   UNK A   0       8.974   1.035  22.483  0.00  0.00    +0.115 C 
ATOM     36  N   UNK A   0       9.050   0.825  23.960  0.00  0.00    -0.261 N 
ATOM     37  C   UNK A   0      10.277   1.005  24.575  0.00  0.00    +0.333 C 
ATOM     38  O   UNK A   0      11.310   1.310  23.984  0.00  0.00    -0.279 OA
ATOM     39  C   UNK A   0       7.886   0.344  24.597  0.00  0.00    +0.142 A 
ATOM     40  C   UNK A   0       7.917  -0.420  25.919  0.00  0.00    +0.298 A 
ATOM     41  O   UNK A   0       8.977  -0.624  26.500  0.00  0.00    -0.264 OA
ATOM     42  N   UNK A   0       6.733  -0.937  26.424  0.00  0.00    -0.176 NA
ENDBRANCH  24  35
ENDBRANCH   1  24
TORSDOF 11
ENDMDL
