MODEL 1
REMARK VINA RESULT:      -7.4      0.000      0.000
REMARK  Name = 
REMARK  15 active torsions:
REMARK  status: ('A' for Active; 'I' for Inactive)
REMARK    1  A    between atoms: C_2  and  C_3
REMARK    2  A    between atoms: C_3  and  C_4
REMARK    3  A    between atoms: C_6  and  C_7
REMARK    4  A    between atoms: C_8  and  O_10
REMARK    5  A    between atoms: O_10  and  C_11
REMARK    6  A    between atoms: C_11  and  C_12
REMARK    7  A    between atoms: C_14  and  C_15
REMARK    8  A    between atoms: C_17  and  C_19
REMARK    9  A    between atoms: C_20  and  C_21
REMARK   10  A    between atoms: C_22  and  C_23
REMARK   11  A    between atoms: C_24  and  C_25
REMARK   12  A    between atoms: C_26  and  C_27
REMARK   13  A    between atoms: C_28  and  O_29
REMARK   14  A    between atoms: O_29  and  C_30
REMARK   15  A    between atoms: C_35  and  O_37
REMARK                            x       y       z     vdW  Elec       q    Type
REMARK                         _______ _______ _______ _____ _____    ______ ____
ROOT
ATOM      1  C   UNL     1       5.740  -5.639  25.150  0.00  0.00    +0.154 C 
ATOM      2  C   UNL     1       5.138  -4.424  24.216  0.00  0.00    +0.133 C 
ATOM      3  O   UNL     1       5.461  -3.844  22.851  0.00  0.00    -0.357 OA
ATOM      4  C   UNL     1       6.794  -3.480  22.384  0.00  0.00    +0.173 C 
ATOM      5  C   UNL     1       7.666  -4.465  23.086  0.00  0.00    +0.182 C 
ATOM      6  C   UNL     1       7.386  -4.219  24.623  0.00  0.00    +0.135 C 
ATOM      7  C   UNL     1       8.627  -3.692  25.322  0.00  0.00    +0.048 C 
ATOM      8  C   UNL     1       3.682  -4.766  23.934  0.00  0.00    +0.048 C 
ATOM      9  C   UNL     1       5.949  -3.410  25.019  0.00  0.00    +0.244 C 
ATOM     10  O   UNL     1       7.159  -5.611  25.081  0.00  0.00    -0.361 OA
ENDROOT
BRANCH   1  11
ATOM     11  C   UNL     1       5.002  -6.769  25.920  0.00  0.00    +0.031 C 
ATOM     12  C   UNL     1       4.292  -6.476  27.211  0.00  0.00    +0.006 C 
ENDBRANCH   1  11
BRANCH   5  13
ATOM     13  O   UNL     1       7.262  -5.771  22.595  0.00  0.00    -0.386 OA
ATOM     14  H   UNL     1       6.292  -5.741  22.511  0.00  0.00    +0.210 HD
ENDBRANCH   5  13
BRANCH   4  15
ATOM     15  C   UNL     1       7.428  -2.058  22.540  0.00  0.00    +0.007 C 
ATOM     16  C   UNL     1       8.667  -1.724  22.139  0.00  0.00    -0.002 C 
BRANCH  16  17
ATOM     17  C   UNL     1       9.377  -0.506  22.553  0.00  0.00    -0.000 C 
ATOM     18  C   UNL     1       9.540   0.576  21.756  0.00  0.00    +0.000 C 
BRANCH  18  19
ATOM     19  C   UNL     1      10.260   1.794  22.122  0.00  0.00    +0.004 C 
ATOM     20  C   UNL     1       9.835   2.677  23.064  0.00  0.00    +0.047 C 
BRANCH  20  21
ATOM     21  C   UNL     1      10.508   3.918  23.466  0.00  0.00    +0.138 A 
ATOM     22  O   UNL     1      11.842   4.010  22.974  0.00  0.00    -0.422 OA
ATOM     23  C   UNL     1      12.637   5.084  23.237  0.00  0.00    +0.341 A 
ATOM     24  O   UNL     1      13.782   5.175  22.808  0.00  0.00    -0.245 OA
ATOM     25  C   UNL     1      12.081   6.162  24.059  0.00  0.00    +0.138 A 
ATOM     26  C   UNL     1      10.835   6.084  24.532  0.00  0.00    +0.133 A 
ATOM     27  C   UNL     1       9.996   4.912  24.227  0.00  0.00    +0.034 A 
ATOM     28  C   UNL     1       8.606   4.947  24.819  0.00  0.00    +0.051 C 
BRANCH  26  29
ATOM     29  O   UNL     1      10.214   7.040  25.316  0.00  0.00    -0.494 OA
ATOM     30  C   UNL     1      10.535   7.107  26.704  0.00  0.00    +0.277 C 
ENDBRANCH  26  29
ENDBRANCH  20  21
ENDBRANCH  18  19
ENDBRANCH  16  17
ENDBRANCH   4  15
BRANCH   9  31
ATOM     31  O   UNL     1       5.565  -2.082  24.653  0.00  0.00    -0.456 OA
BRANCH  31  32
ATOM     32  C   UNL     1       5.533  -1.147  25.635  0.00  0.00    +0.304 C 
ATOM     33  O   UNL     1       4.519  -0.739  26.182  0.00  0.00    -0.251 OA
ATOM     34  C   UNL     1       6.911  -0.618  25.909  0.00  0.00    +0.136 C 
ENDBRANCH  31  32
ENDBRANCH   9  31
TORSDOF 9
ENDMDL
MODEL 2
REMARK VINA RESULT:      -7.3      1.873      2.441
REMARK  Name = 
REMARK  15 active torsions:
REMARK  status: ('A' for Active; 'I' for Inactive)
REMARK    1  A    between atoms: C_2  and  C_3
REMARK    2  A    between atoms: C_3  and  C_4
REMARK    3  A    between atoms: C_6  and  C_7
REMARK    4  A    between atoms: C_8  and  O_10
REMARK    5  A    between atoms: O_10  and  C_11
REMARK    6  A    between atoms: C_11  and  C_12
REMARK    7  A    between atoms: C_14  and  C_15
REMARK    8  A    between atoms: C_17  and  C_19
REMARK    9  A    between atoms: C_20  and  C_21
REMARK   10  A    between atoms: C_22  and  C_23
REMARK   11  A    between atoms: C_24  and  C_25
REMARK   12  A    between atoms: C_26  and  C_27
REMARK   13  A    between atoms: C_28  and  O_29
REMARK   14  A    between atoms: O_29  and  C_30
REMARK   15  A    between atoms: C_35  and  O_37
REMARK                            x       y       z     vdW  Elec       q    Type
REMARK                         _______ _______ _______ _____ _____    ______ ____
ROOT
ATOM      1  C   UNL     1       6.814  -5.529  27.221  0.00  0.00    +0.154 C 
ATOM      2  C   UNL     1       6.403  -5.246  25.652  0.00  0.00    +0.133 C 
ATOM      3  O   UNL     1       7.134  -5.256  24.322  0.00  0.00    -0.357 OA
ATOM      4  C   UNL     1       8.411  -4.603  24.056  0.00  0.00    +0.173 C 
ATOM      5  C   UNL     1       9.103  -4.691  25.374  0.00  0.00    +0.182 C 
ATOM      6  C   UNL     1       8.141  -3.937  26.378  0.00  0.00    +0.135 C 
ATOM      7  C   UNL     1       8.800  -2.679  26.916  0.00  0.00    +0.048 C 
ATOM      8  C   UNL     1       5.335  -6.266  25.286  0.00  0.00    +0.048 C 
ATOM      9  C   UNL     1       6.527  -3.744  25.893  0.00  0.00    +0.244 C 
ATOM     10  O   UNL     1       8.075  -4.926  27.481  0.00  0.00    -0.361 OA
ENDROOT
BRANCH   1  11
ATOM     11  C   UNL     1       6.106  -6.394  28.301  0.00  0.00    +0.031 C 
ATOM     12  C   UNL     1       5.585  -5.765  29.561  0.00  0.00    +0.006 C 
ENDBRANCH   1  11
BRANCH   5  13
ATOM     13  O   UNL     1       9.268  -6.110  25.639  0.00  0.00    -0.386 OA
ATOM     14  H   UNL     1       8.393  -6.439  25.912  0.00  0.00    +0.210 HD
ENDBRANCH   5  13
BRANCH   4  15
ATOM     15  C   UNL     1       8.562  -3.143  23.514  0.00  0.00    +0.007 C 
ATOM     16  C   UNL     1       9.705  -2.436  23.526  0.00  0.00    -0.002 C 
BRANCH  16  17
ATOM     17  C   UNL     1       9.791  -0.984  23.316  0.00  0.00    -0.000 C 
ATOM     18  C   UNL     1      10.186  -0.109  24.270  0.00  0.00    +0.000 C 
BRANCH  18  19
ATOM     19  C   UNL     1      10.262   1.341  24.107  0.00  0.00    +0.004 C 
ATOM     20  C   UNL     1       9.182   2.147  23.932  0.00  0.00    +0.047 C 
BRANCH  20  21
ATOM     21  C   UNL     1       9.197   3.603  23.753  0.00  0.00    +0.138 A 
ATOM     22  O   UNL     1      10.509   4.156  23.815  0.00  0.00    -0.422 OA
ATOM     23  C   UNL     1      10.739   5.491  23.674  0.00  0.00    +0.341 A 
ATOM     24  O   UNL     1      11.866   5.972  23.716  0.00  0.00    -0.245 OA
ATOM     25  C   UNL     1       9.582   6.365  23.459  0.00  0.00    +0.138 A 
ATOM     26  C   UNL     1       8.348   5.860  23.407  0.00  0.00    +0.133 A 
ATOM     27  C   UNL     1       8.129   4.411  23.557  0.00  0.00    +0.034 A 
ATOM     28  C   UNL     1       6.688   3.968  23.475  0.00  0.00    +0.051 C 
BRANCH  26  29
ATOM     29  O   UNL     1       7.190   6.593  23.210  0.00  0.00    -0.494 OA
ATOM     30  C   UNL     1       6.915   7.108  21.909  0.00  0.00    +0.277 C 
ENDBRANCH  26  29
ENDBRANCH  20  21
ENDBRANCH  18  19
ENDBRANCH  16  17
ENDBRANCH   4  15
BRANCH   9  31
ATOM     31  O   UNL     1       6.037  -3.027  24.758  0.00  0.00    -0.456 OA
BRANCH  31  32
ATOM     32  C   UNL     1       5.334  -1.890  24.991  0.00  0.00    +0.304 C 
ATOM     33  O   UNL     1       4.200  -1.846  25.441  0.00  0.00    -0.251 OA
ATOM     34  C   UNL     1       6.114  -0.686  24.545  0.00  0.00    +0.136 C 
ENDBRANCH  31  32
ENDBRANCH   9  31
TORSDOF 9
ENDMDL
MODEL 3
REMARK VINA RESULT:      -6.9      2.392     10.010
REMARK  Name = 
REMARK  15 active torsions:
REMARK  status: ('A' for Active; 'I' for Inactive)
REMARK    1  A    between atoms: C_2  and  C_3
REMARK    2  A    between atoms: C_3  and  C_4
REMARK    3  A    between atoms: C_6  and  C_7
REMARK    4  A    between atoms: C_8  and  O_10
REMARK    5  A    between atoms: O_10  and  C_11
REMARK    6  A    between atoms: C_11  and  C_12
REMARK    7  A    between atoms: C_14  and  C_15
REMARK    8  A    between atoms: C_17  and  C_19
REMARK    9  A    between atoms: C_20  and  C_21
REMARK   10  A    between atoms: C_22  and  C_23
REMARK   11  A    between atoms: C_24  and  C_25
REMARK   12  A    between atoms: C_26  and  C_27
REMARK   13  A    between atoms: C_28  and  O_29
REMARK   14  A    between atoms: O_29  and  C_30
REMARK   15  A    between atoms: C_35  and  O_37
REMARK                            x       y       z     vdW  Elec       q    Type
REMARK                         _______ _______ _______ _____ _____    ______ ____
ROOT
ATOM      1  C   UNL     1       8.047   4.073  22.621  0.00  0.00    +0.154 C 
ATOM      2  C   UNL     1       8.922   3.606  23.937  0.00  0.00    +0.133 C 
ATOM      3  O   UNL     1      10.165   2.769  24.170  0.00  0.00    -0.357 OA
ATOM      4  C   UNL     1      10.415   1.452  23.595  0.00  0.00    +0.173 C 
ATOM      5  C   UNL     1       9.712   1.530  22.282  0.00  0.00    +0.182 C 
ATOM      6  C   UNL     1       8.207   1.842  22.657  0.00  0.00    +0.135 C 
ATOM      7  C   UNL     1       7.303   0.685  22.270  0.00  0.00    +0.048 C 
ATOM      8  C   UNL     1       9.424   4.878  24.604  0.00  0.00    +0.048 C 
ATOM      9  C   UNL     1       7.920   2.485  24.200  0.00  0.00    +0.244 C 
ATOM     10  O   UNL     1       7.929   2.969  21.734  0.00  0.00    -0.361 OA
ENDROOT
BRANCH   1  11
ATOM     11  C   UNL     1       7.501   5.473  22.228  0.00  0.00    +0.031 C 
ATOM     12  C   UNL     1       6.111   5.888  22.620  0.00  0.00    +0.006 C 
ENDBRANCH   1  11
BRANCH   5  13
ATOM     13  O   UNL     1      10.383   2.580  21.536  0.00  0.00    -0.386 OA
ATOM     14  H   UNL     1      10.152   3.417  21.977  0.00  0.00    +0.210 HD
ENDBRANCH   5  13
BRANCH   4  15
ATOM     15  C   UNL     1      10.033   0.100  24.282  0.00  0.00    +0.007 C 
ATOM     16  C   UNL     1      10.161  -1.111  23.714  0.00  0.00    -0.002 C 
BRANCH  16  17
ATOM     17  C   UNL     1       9.527  -2.339  24.214  0.00  0.00    -0.000 C 
ATOM     18  C   UNL     1       8.274  -2.727  23.879  0.00  0.00    +0.000 C 
BRANCH  18  19
ATOM     19  C   UNL     1       7.601  -3.926  24.372  0.00  0.00    +0.004 C 
ATOM     20  C   UNL     1       6.293  -3.972  24.738  0.00  0.00    +0.047 C 
BRANCH  20  21
ATOM     21  C   UNL     1       5.568  -5.141  25.249  0.00  0.00    +0.138 A 
ATOM     22  O   UNL     1       5.771  -5.355  26.643  0.00  0.00    -0.422 OA
ATOM     23  C   UNL     1       5.187  -6.390  27.308  0.00  0.00    +0.341 A 
ATOM     24  O   UNL     1       5.349  -6.573  28.510  0.00  0.00    -0.245 OA
ATOM     25  C   UNL     1       4.332  -7.301  26.542  0.00  0.00    +0.138 A 
ATOM     26  C   UNL     1       4.140  -7.115  25.235  0.00  0.00    +0.133 A 
ATOM     27  C   UNL     1       4.780  -5.984  24.541  0.00  0.00    +0.034 A 
ATOM     28  C   UNL     1       4.480  -5.884  23.064  0.00  0.00    +0.051 C 
BRANCH  26  29
ATOM     29  O   UNL     1       3.357  -7.913  24.419  0.00  0.00    -0.494 OA
ATOM     30  C   UNL     1       2.102  -8.378  24.911  0.00  0.00    +0.277 C 
ENDBRANCH  26  29
ENDBRANCH  20  21
ENDBRANCH  18  19
ENDBRANCH  16  17
ENDBRANCH   4  15
BRANCH   9  31
ATOM     31  O   UNL     1       8.193   1.876  25.464  0.00  0.00    -0.456 OA
BRANCH  31  32
ATOM     32  C   UNL     1       7.132   1.520  26.231  0.00  0.00    +0.304 C 
ATOM     33  O   UNL     1       6.642   2.208  27.113  0.00  0.00    -0.251 OA
ATOM     34  C   UNL     1       6.685   0.125  25.900  0.00  0.00    +0.136 C 
ENDBRANCH  31  32
ENDBRANCH   9  31
TORSDOF 9
ENDMDL
MODEL 4
REMARK VINA RESULT:      -6.7      1.898      2.928
REMARK  Name = 
REMARK  15 active torsions:
REMARK  status: ('A' for Active; 'I' for Inactive)
REMARK    1  A    between atoms: C_2  and  C_3
REMARK    2  A    between atoms: C_3  and  C_4
REMARK    3  A    between atoms: C_6  and  C_7
REMARK    4  A    between atoms: C_8  and  O_10
REMARK    5  A    between atoms: O_10  and  C_11
REMARK    6  A    between atoms: C_11  and  C_12
REMARK    7  A    between atoms: C_14  and  C_15
REMARK    8  A    between atoms: C_17  and  C_19
REMARK    9  A    between atoms: C_20  and  C_21
REMARK   10  A    between atoms: C_22  and  C_23
REMARK   11  A    between atoms: C_24  and  C_25
REMARK   12  A    between atoms: C_26  and  C_27
REMARK   13  A    between atoms: C_28  and  O_29
REMARK   14  A    between atoms: O_29  and  C_30
REMARK   15  A    between atoms: C_35  and  O_37
REMARK                            x       y       z     vdW  Elec       q    Type
REMARK                         _______ _______ _______ _____ _____    ______ ____
ROOT
ATOM      1  C   UNL     1       5.375  -5.426  26.609  0.00  0.00    +0.154 C 
ATOM      2  C   UNL     1       5.952  -5.483  25.068  0.00  0.00    +0.133 C 
ATOM      3  O   UNL     1       7.326  -5.546  24.426  0.00  0.00    -0.357 OA
ATOM      4  C   UNL     1       8.456  -4.691  24.768  0.00  0.00    +0.173 C 
ATOM      5  C   UNL     1       8.239  -4.427  26.219  0.00  0.00    +0.182 C 
ATOM      6  C   UNL     1       6.814  -3.744  26.289  0.00  0.00    +0.135 C 
ATOM      7  C   UNL     1       6.925  -2.308  26.771  0.00  0.00    +0.048 C 
ATOM      8  C   UNL     1       5.391  -6.748  24.434  0.00  0.00    +0.048 C 
ATOM      9  C   UNL     1       5.791  -3.969  24.955  0.00  0.00    +0.244 C 
ATOM     10  O   UNL     1       6.186  -4.541  27.370  0.00  0.00    -0.361 OA
ENDROOT
BRANCH   1  11
ATOM     11  C   UNL     1       4.237  -6.242  27.282  0.00  0.00    +0.031 C 
ATOM     12  C   UNL     1       2.798  -5.946  26.968  0.00  0.00    +0.006 C 
ENDBRANCH   1  11
BRANCH   5  13
ATOM     13  O   UNL     1       8.326  -5.721  26.873  0.00  0.00    -0.386 OA
ATOM     14  H   UNL     1       8.726  -6.327  26.225  0.00  0.00    +0.210 HD
ENDBRANCH   5  13
BRANCH   4  15
ATOM     15  C   UNL     1       8.784  -3.334  24.061  0.00  0.00    +0.007 C 
ATOM     16  C   UNL     1       9.810  -2.529  24.386  0.00  0.00    -0.002 C 
BRANCH  16  17
ATOM     17  C   UNL     1       9.944  -1.131  23.954  0.00  0.00    -0.000 C 
ATOM     18  C   UNL     1      10.046  -0.087  24.810  0.00  0.00    +0.000 C 
BRANCH  18  19
ATOM     19  C   UNL     1      10.157   1.317  24.419  0.00  0.00    +0.004 C 
ATOM     20  C   UNL     1       9.135   2.211  24.485  0.00  0.00    +0.047 C 
BRANCH  20  21
ATOM     21  C   UNL     1       9.184   3.625  24.099  0.00  0.00    +0.138 A 
ATOM     22  O   UNL     1      10.514   4.133  24.018  0.00  0.00    -0.422 OA
ATOM     23  C   UNL     1      10.775   5.424  23.676  0.00  0.00    +0.341 A 
ATOM     24  O   UNL     1      11.917   5.865  23.594  0.00  0.00    -0.245 OA
ATOM     25  C   UNL     1       9.636   6.302  23.394  0.00  0.00    +0.138 A 
ATOM     26  C   UNL     1       8.386   5.841  23.474  0.00  0.00    +0.133 A 
ATOM     27  C   UNL     1       8.133   4.437  23.841  0.00  0.00    +0.034 A 
ATOM     28  C   UNL     1       6.676   4.040  23.892  0.00  0.00    +0.051 C 
BRANCH  26  29
ATOM     29  O   UNL     1       7.242   6.581  23.230  0.00  0.00    -0.494 OA
ATOM     30  C   UNL     1       6.936   6.952  21.888  0.00  0.00    +0.277 C 
ENDBRANCH  26  29
ENDBRANCH  20  21
ENDBRANCH  18  19
ENDBRANCH  16  17
ENDBRANCH   4  15
BRANCH   9  31
ATOM     31  O   UNL     1       6.013  -3.556  23.605  0.00  0.00    -0.456 OA
BRANCH  31  32
ATOM     32  C   UNL     1       5.164  -4.029  22.658  0.00  0.00    +0.304 C 
ATOM     33  O   UNL     1       3.960  -4.170  22.802  0.00  0.00    -0.251 OA
ATOM     34  C   UNL     1       5.921  -4.432  21.424  0.00  0.00    +0.136 C 
ENDBRANCH  31  32
ENDBRANCH   9  31
TORSDOF 9
ENDMDL
MODEL 5
REMARK VINA RESULT:      -6.6      3.267     10.712
REMARK  Name = 
REMARK  15 active torsions:
REMARK  status: ('A' for Active; 'I' for Inactive)
REMARK    1  A    between atoms: C_2  and  C_3
REMARK    2  A    between atoms: C_3  and  C_4
REMARK    3  A    between atoms: C_6  and  C_7
REMARK    4  A    between atoms: C_8  and  O_10
REMARK    5  A    between atoms: O_10  and  C_11
REMARK    6  A    between atoms: C_11  and  C_12
REMARK    7  A    between atoms: C_14  and  C_15
REMARK    8  A    between atoms: C_17  and  C_19
REMARK    9  A    between atoms: C_20  and  C_21
REMARK   10  A    between atoms: C_22  and  C_23
REMARK   11  A    between atoms: C_24  and  C_25
REMARK   12  A    between atoms: C_26  and  C_27
REMARK   13  A    between atoms: C_28  and  O_29
REMARK   14  A    between atoms: O_29  and  C_30
REMARK   15  A    between atoms: C_35  and  O_37
REMARK                            x       y       z     vdW  Elec       q    Type
REMARK                         _______ _______ _______ _____ _____    ______ ____
ROOT
ATOM      1  C   UNL     1       9.160   0.976  23.090  0.00  0.00    +0.154 C 
ATOM      2  C   UNL     1       9.712  -0.098  24.210  0.00  0.00    +0.133 C 
ATOM      3  O   UNL     1      10.218  -1.528  24.183  0.00  0.00    -0.357 OA
ATOM      4  C   UNL     1       9.563  -2.642  23.507  0.00  0.00    +0.173 C 
ATOM      5  C   UNL     1       8.913  -1.979  22.341  0.00  0.00    +0.182 C 
ATOM      6  C   UNL     1       7.949  -0.902  22.983  0.00  0.00    +0.135 C 
ATOM      7  C   UNL     1       6.495  -1.239  22.699  0.00  0.00    +0.048 C 
ATOM      8  C   UNL     1      10.946   0.526  24.846  0.00  0.00    +0.048 C 
ATOM      9  C   UNL     1       8.273  -0.443  24.584  0.00  0.00    +0.244 C 
ATOM     10  O   UNL     1       8.307   0.292  22.181  0.00  0.00    -0.361 OA
ENDROOT
BRANCH   1  11
ATOM     11  C   UNL     1       9.527   2.469  22.869  0.00  0.00    +0.031 C 
ATOM     12  C   UNL     1       8.617   3.560  23.360  0.00  0.00    +0.006 C 
ENDBRANCH   1  11
BRANCH   5  13
ATOM     13  O   UNL     1       9.996  -1.428  21.545  0.00  0.00    -0.386 OA
ATOM     14  H   UNL     1      10.193  -2.090  20.859  0.00  0.00    +0.210 HD
ENDBRANCH   5  13
BRANCH   4  15
ATOM     15  C   UNL     1       8.521  -3.595  24.180  0.00  0.00    +0.007 C 
ATOM     16  C   UNL     1       7.873  -4.589  23.549  0.00  0.00    -0.002 C 
BRANCH  16  17
ATOM     17  C   UNL     1       6.685  -5.276  24.073  0.00  0.00    -0.000 C 
ATOM     18  C   UNL     1       5.429  -5.062  23.613  0.00  0.00    +0.000 C 
BRANCH  18  19
ATOM     19  C   UNL     1       4.222  -5.707  24.123  0.00  0.00    +0.004 C 
ATOM     20  C   UNL     1       4.219  -6.681  25.071  0.00  0.00    +0.047 C 
BRANCH  20  21
ATOM     21  C   UNL     1       3.043  -7.371  25.613  0.00  0.00    +0.138 A 
ATOM     22  O   UNL     1       2.640  -8.486  24.823  0.00  0.00    -0.422 OA
ATOM     23  C   UNL     1       1.568  -9.257  25.154  0.00  0.00    +0.341 A 
ATOM     24  O   UNL     1       1.222 -10.225  24.485  0.00  0.00    -0.245 OA
ATOM     25  C   UNL     1       0.818  -8.905  26.363  0.00  0.00    +0.138 A 
ATOM     26  C   UNL     1       1.181  -7.859  27.108  0.00  0.00    +0.133 A 
ATOM     27  C   UNL     1       2.349  -7.044  26.728  0.00  0.00    +0.034 A 
ATOM     28  C   UNL     1       2.656  -5.892  27.656  0.00  0.00    +0.051 C 
BRANCH  26  29
ATOM     29  O   UNL     1       0.546  -7.439  28.263  0.00  0.00    -0.494 OA
ATOM     30  C   UNL     1       0.453  -8.340  29.364  0.00  0.00    +0.277 C 
ENDBRANCH  26  29
ENDBRANCH  20  21
ENDBRANCH  18  19
ENDBRANCH  16  17
ENDBRANCH   4  15
BRANCH   9  31
ATOM     31  O   UNL     1       8.258  -1.270  25.749  0.00  0.00    -0.456 OA
BRANCH  31  32
ATOM     32  C   UNL     1       7.324  -1.004  26.696  0.00  0.00    +0.304 C 
ATOM     33  O   UNL     1       7.371  -0.074  27.486  0.00  0.00    -0.251 OA
ATOM     34  C   UNL     1       6.253  -2.056  26.693  0.00  0.00    +0.136 C 
ENDBRANCH  31  32
ENDBRANCH   9  31
TORSDOF 9
ENDMDL
MODEL 6
REMARK VINA RESULT:      -6.2      2.582     10.130
REMARK  Name = 
REMARK  15 active torsions:
REMARK  status: ('A' for Active; 'I' for Inactive)
REMARK    1  A    between atoms: C_2  and  C_3
REMARK    2  A    between atoms: C_3  and  C_4
REMARK    3  A    between atoms: C_6  and  C_7
REMARK    4  A    between atoms: C_8  and  O_10
REMARK    5  A    between atoms: O_10  and  C_11
REMARK    6  A    between atoms: C_11  and  C_12
REMARK    7  A    between atoms: C_14  and  C_15
REMARK    8  A    between atoms: C_17  and  C_19
REMARK    9  A    between atoms: C_20  and  C_21
REMARK   10  A    between atoms: C_22  and  C_23
REMARK   11  A    between atoms: C_24  and  C_25
REMARK   12  A    between atoms: C_26  and  C_27
REMARK   13  A    between atoms: C_28  and  O_29
REMARK   14  A    between atoms: O_29  and  C_30
REMARK   15  A    between atoms: C_35  and  O_37
REMARK                            x       y       z     vdW  Elec       q    Type
REMARK                         _______ _______ _______ _____ _____    ______ ____
ROOT
ATOM      1  C   UNL     1       8.006   4.496  22.631  0.00  0.00    +0.154 C 
ATOM      2  C   UNL     1       8.853   4.059  23.975  0.00  0.00    +0.133 C 
ATOM      3  O   UNL     1       9.978   3.087  24.278  0.00  0.00    -0.357 OA
ATOM      4  C   UNL     1      10.026   1.693  23.852  0.00  0.00    +0.173 C 
ATOM      5  C   UNL     1       9.294   1.724  22.553  0.00  0.00    +0.182 C 
ATOM      6  C   UNL     1       7.861   2.282  22.918  0.00  0.00    +0.135 C 
ATOM      7  C   UNL     1       6.793   1.228  22.682  0.00  0.00    +0.048 C 
ATOM      8  C   UNL     1       9.548   5.314  24.484  0.00  0.00    +0.048 C 
ATOM      9  C   UNL     1       7.717   3.125  24.383  0.00  0.00    +0.244 C 
ATOM     10  O   UNL     1       7.707   3.328  21.878  0.00  0.00    -0.361 OA
ENDROOT
BRANCH   1  11
ATOM     11  C   UNL     1       7.643   5.907  22.092  0.00  0.00    +0.031 C 
ATOM     12  C   UNL     1       6.280   6.490  22.336  0.00  0.00    +0.006 C 
ENDBRANCH   1  11
BRANCH   5  13
ATOM     13  O   UNL     1      10.077   2.581  21.679  0.00  0.00    -0.386 OA
ATOM     14  H   UNL     1       9.637   2.558  20.811  0.00  0.00    +0.210 HD
ENDBRANCH   5  13
BRANCH   4  15
ATOM     15  C   UNL     1       9.486   0.491  24.696  0.00  0.00    +0.007 C 
ATOM     16  C   UNL     1       9.437  -0.782  24.270  0.00  0.00    -0.002 C 
BRANCH  16  17
ATOM     17  C   UNL     1       8.659  -1.849  24.916  0.00  0.00    -0.000 C 
ATOM     18  C   UNL     1       7.318  -1.981  24.791  0.00  0.00    +0.000 C 
BRANCH  18  19
ATOM     19  C   UNL     1       6.507  -3.012  25.435  0.00  0.00    +0.004 C 
ATOM     20  C   UNL     1       6.467  -4.311  25.036  0.00  0.00    +0.047 C 
BRANCH  20  21
ATOM     21  C   UNL     1       5.667  -5.385  25.635  0.00  0.00    +0.138 A 
ATOM     22  O   UNL     1       4.844  -6.060  24.687  0.00  0.00    -0.422 OA
ATOM     23  C   UNL     1       4.025  -7.088  25.042  0.00  0.00    +0.341 A 
ATOM     24  O   UNL     1       3.323  -7.680  24.229  0.00  0.00    -0.245 OA
ATOM     25  C   UNL     1       4.001  -7.488  26.452  0.00  0.00    +0.138 A 
ATOM     26  C   UNL     1       4.760  -6.859  27.350  0.00  0.00    +0.133 A 
ATOM     27  C   UNL     1       5.642  -5.754  26.937  0.00  0.00    +0.034 A 
ATOM     28  C   UNL     1       6.452  -5.129  28.049  0.00  0.00    +0.051 C 
BRANCH  26  29
ATOM     29  O   UNL     1       4.814  -7.155  28.701  0.00  0.00    -0.494 OA
ATOM     30  C   UNL     1       3.614  -7.084  29.469  0.00  0.00    +0.277 C 
ENDBRANCH  26  29
ENDBRANCH  20  21
ENDBRANCH  18  19
ENDBRANCH  16  17
ENDBRANCH   4  15
BRANCH   9  31
ATOM     31  O   UNL     1       7.949   2.626  25.702  0.00  0.00    -0.456 OA
BRANCH  31  32
ATOM     32  C   UNL     1       6.863   2.302  26.449  0.00  0.00    +0.304 C 
ATOM     33  O   UNL     1       5.977   1.536  26.103  0.00  0.00    -0.251 OA
ATOM     34  C   UNL     1       6.856   3.075  27.736  0.00  0.00    +0.136 C 
ENDBRANCH  31  32
ENDBRANCH   9  31
TORSDOF 9
ENDMDL
MODEL 7
REMARK VINA RESULT:      -6.1      2.021      3.184
REMARK  Name = 
REMARK  15 active torsions:
REMARK  status: ('A' for Active; 'I' for Inactive)
REMARK    1  A    between atoms: C_2  and  C_3
REMARK    2  A    between atoms: C_3  and  C_4
REMARK    3  A    between atoms: C_6  and  C_7
REMARK    4  A    between atoms: C_8  and  O_10
REMARK    5  A    between atoms: O_10  and  C_11
REMARK    6  A    between atoms: C_11  and  C_12
REMARK    7  A    between atoms: C_14  and  C_15
REMARK    8  A    between atoms: C_17  and  C_19
REMARK    9  A    between atoms: C_20  and  C_21
REMARK   10  A    between atoms: C_22  and  C_23
REMARK   11  A    between atoms: C_24  and  C_25
REMARK   12  A    between atoms: C_26  and  C_27
REMARK   13  A    between atoms: C_28  and  O_29
REMARK   14  A    between atoms: O_29  and  C_30
REMARK   15  A    between atoms: C_35  and  O_37
REMARK                            x       y       z     vdW  Elec       q    Type
REMARK                         _______ _______ _______ _____ _____    ______ ____
ROOT
ATOM      1  C   UNL     1       5.449  -5.837  24.928  0.00  0.00    +0.154 C 
ATOM      2  C   UNL     1       6.729  -5.309  24.037  0.00  0.00    +0.133 C 
ATOM      3  O   UNL     1       8.193  -5.018  24.310  0.00  0.00    -0.357 OA
ATOM      4  C   UNL     1       8.702  -4.226  25.424  0.00  0.00    +0.173 C 
ATOM      5  C   UNL     1       7.703  -4.494  26.498  0.00  0.00    +0.182 C 
ATOM      6  C   UNL     1       6.326  -4.016  25.888  0.00  0.00    +0.135 C 
ATOM      7  C   UNL     1       5.777  -2.826  26.656  0.00  0.00    +0.048 C 
ATOM      8  C   UNL     1       6.945  -6.330  22.930  0.00  0.00    +0.048 C 
ATOM      9  C   UNL     1       6.245  -3.870  24.200  0.00  0.00    +0.244 C 
ATOM     10  O   UNL     1       5.474  -5.190  26.194  0.00  0.00    -0.361 OA
ENDROOT
BRANCH   1  11
ATOM     11  C   UNL     1       4.398  -6.938  24.616  0.00  0.00    +0.031 C 
ATOM     12  C   UNL     1       3.336  -7.286  25.619  0.00  0.00    +0.006 C 
ENDBRANCH   1  11
BRANCH   5  13
ATOM     13  O   UNL     1       7.787  -5.919  26.768  0.00  0.00    -0.386 OA
ATOM     14  H   UNL     1       8.488  -6.265  26.188  0.00  0.00    +0.210 HD
ENDBRANCH   5  13
BRANCH   4  15
ATOM     15  C   UNL     1       8.965  -2.684  25.366  0.00  0.00    +0.007 C 
ATOM     16  C   UNL     1       8.810  -1.841  26.401  0.00  0.00    -0.002 C 
BRANCH  16  17
ATOM     17  C   UNL     1       8.749  -0.378  26.284  0.00  0.00    -0.000 C 
ATOM     18  C   UNL     1       8.886   0.288  25.113  0.00  0.00    +0.000 C 
BRANCH  18  19
ATOM     19  C   UNL     1       8.855   1.741  24.959  0.00  0.00    +0.004 C 
ATOM     20  C   UNL     1       8.917   2.383  23.763  0.00  0.00    +0.047 C 
BRANCH  20  21
ATOM     21  C   UNL     1       8.900   3.835  23.548  0.00  0.00    +0.138 A 
ATOM     22  O   UNL     1      10.015   4.497  24.140  0.00  0.00    -0.422 OA
ATOM     23  C   UNL     1      10.184   5.845  24.056  0.00  0.00    +0.341 A 
ATOM     24  O   UNL     1      11.146   6.419  24.554  0.00  0.00    -0.245 OA
ATOM     25  C   UNL     1       9.170   6.618  23.334  0.00  0.00    +0.138 A 
ATOM     26  C   UNL     1       8.118   6.011  22.782  0.00  0.00    +0.133 A 
ATOM     27  C   UNL     1       7.963   4.549  22.884  0.00  0.00    +0.034 A 
ATOM     28  C   UNL     1       6.731   3.986  22.214  0.00  0.00    +0.051 C 
BRANCH  26  29
ATOM     29  O   UNL     1       7.105   6.642  22.081  0.00  0.00    -0.494 OA
ATOM     30  C   UNL     1       5.960   7.107  22.795  0.00  0.00    +0.277 C 
ENDBRANCH  26  29
ENDBRANCH  20  21
ENDBRANCH  18  19
ENDBRANCH  16  17
ENDBRANCH   4  15
BRANCH   9  31
ATOM     31  O   UNL     1       7.011  -3.002  23.361  0.00  0.00    -0.456 OA
BRANCH  31  32
ATOM     32  C   UNL     1       6.332  -2.203  22.501  0.00  0.00    +0.304 C 
ATOM     33  O   UNL     1       5.646  -2.597  21.570  0.00  0.00    -0.251 OA
ATOM     34  C   UNL     1       6.600  -0.756  22.799  0.00  0.00    +0.136 C 
ENDBRANCH  31  32
ENDBRANCH   9  31
TORSDOF 9
ENDMDL
MODEL 8
REMARK VINA RESULT:      -6.1      3.078     10.766
REMARK  Name = 
REMARK  15 active torsions:
REMARK  status: ('A' for Active; 'I' for Inactive)
REMARK    1  A    between atoms: C_2  and  C_3
REMARK    2  A    between atoms: C_3  and  C_4
REMARK    3  A    between atoms: C_6  and  C_7
REMARK    4  A    between atoms: C_8  and  O_10
REMARK    5  A    between atoms: O_10  and  C_11
REMARK    6  A    between atoms: C_11  and  C_12
REMARK    7  A    between atoms: C_14  and  C_15
REMARK    8  A    between atoms: C_17  and  C_19
REMARK    9  A    between atoms: C_20  and  C_21
REMARK   10  A    between atoms: C_22  and  C_23
REMARK   11  A    between atoms: C_24  and  C_25
REMARK   12  A    between atoms: C_26  and  C_27
REMARK   13  A    between atoms: C_28  and  O_29
REMARK   14  A    between atoms: O_29  and  C_30
REMARK   15  A    between atoms: C_35  and  O_37
REMARK                            x       y       z     vdW  Elec       q    Type
REMARK                         _______ _______ _______ _____ _____    ______ ____
ROOT
ATOM      1  C   UNL     1       9.221   2.854  23.833  0.00  0.00    +0.154 C 
ATOM      2  C   UNL     1       9.714   1.296  24.032  0.00  0.00    +0.133 C 
ATOM      3  O   UNL     1       9.839   0.076  23.138  0.00  0.00    -0.357 OA
ATOM      4  C   UNL     1       8.806  -0.416  22.234  0.00  0.00    +0.173 C 
ATOM      5  C   UNL     1       8.109   0.836  21.822  0.00  0.00    +0.182 C 
ATOM      6  C   UNL     1       7.593   1.467  23.177  0.00  0.00    +0.135 C 
ATOM      7  C   UNL     1       6.075   1.479  23.225  0.00  0.00    +0.048 C 
ATOM      8  C   UNL     1      11.168   1.348  24.480  0.00  0.00    +0.048 C 
ATOM      9  C   UNL     1       8.345   0.938  24.603  0.00  0.00    +0.244 C 
ATOM     10  O   UNL     1       8.057   2.866  23.017  0.00  0.00    -0.361 OA
ENDROOT
BRANCH   1  11
ATOM     11  C   UNL     1       9.887   4.181  24.290  0.00  0.00    +0.031 C 
ATOM     12  C   UNL     1       9.046   5.361  24.685  0.00  0.00    +0.006 C 
ENDBRANCH   1  11
BRANCH   5  13
ATOM     13  O   UNL     1       9.104   1.630  21.122  0.00  0.00    -0.386 OA
ATOM     14  H   UNL     1       8.996   1.427  20.175  0.00  0.00    +0.210 HD
ENDBRANCH   5  13
BRANCH   4  15
ATOM     15  C   UNL     1       7.726  -1.480  22.620  0.00  0.00    +0.007 C 
ATOM     16  C   UNL     1       7.742  -2.766  22.228  0.00  0.00    -0.002 C 
BRANCH  16  17
ATOM     17  C   UNL     1       6.596  -3.681  22.318  0.00  0.00    -0.000 C 
ATOM     18  C   UNL     1       6.674  -4.935  22.821  0.00  0.00    +0.000 C 
BRANCH  18  19
ATOM     19  C   UNL     1       5.564  -5.881  22.906  0.00  0.00    +0.004 C 
ATOM     20  C   UNL     1       4.313  -5.554  23.323  0.00  0.00    +0.047 C 
BRANCH  20  21
ATOM     21  C   UNL     1       3.165  -6.461  23.438  0.00  0.00    +0.138 A 
ATOM     22  O   UNL     1       2.304  -6.415  22.303  0.00  0.00    -0.422 OA
ATOM     23  C   UNL     1       1.182  -7.179  22.215  0.00  0.00    +0.341 A 
ATOM     24  O   UNL     1       0.443  -7.153  21.236  0.00  0.00    -0.245 OA
ATOM     25  C   UNL     1       0.866  -8.065  23.339  0.00  0.00    +0.138 A 
ATOM     26  C   UNL     1       1.660  -8.112  24.411  0.00  0.00    +0.133 A 
ATOM     27  C   UNL     1       2.872  -7.277  24.477  0.00  0.00    +0.034 A 
ATOM     28  C   UNL     1       3.685  -7.425  25.742  0.00  0.00    +0.051 C 
BRANCH  26  29
ATOM     29  O   UNL     1       1.456  -8.908  25.525  0.00  0.00    -0.494 OA
ATOM     30  C   UNL     1       1.067 -10.267  25.337  0.00  0.00    +0.277 C 
ENDBRANCH  26  29
ENDBRANCH  20  21
ENDBRANCH  18  19
ENDBRANCH  16  17
ENDBRANCH   4  15
BRANCH   9  31
ATOM     31  O   UNL     1       8.371  -0.388  25.136  0.00  0.00    -0.456 OA
BRANCH  31  32
ATOM     32  C   UNL     1       7.696  -0.613  26.291  0.00  0.00    +0.304 C 
ATOM     33  O   UNL     1       7.760   0.089  27.289  0.00  0.00    -0.251 OA
ATOM     34  C   UNL     1       6.913  -1.892  26.206  0.00  0.00    +0.136 C 
ENDBRANCH  31  32
ENDBRANCH   9  31
TORSDOF 9
ENDMDL
MODEL 9
REMARK VINA RESULT:      -6.1      1.907      3.990
REMARK  Name = 
REMARK  15 active torsions:
REMARK  status: ('A' for Active; 'I' for Inactive)
REMARK    1  A    between atoms: C_2  and  C_3
REMARK    2  A    between atoms: C_3  and  C_4
REMARK    3  A    between atoms: C_6  and  C_7
REMARK    4  A    between atoms: C_8  and  O_10
REMARK    5  A    between atoms: O_10  and  C_11
REMARK    6  A    between atoms: C_11  and  C_12
REMARK    7  A    between atoms: C_14  and  C_15
REMARK    8  A    between atoms: C_17  and  C_19
REMARK    9  A    between atoms: C_20  and  C_21
REMARK   10  A    between atoms: C_22  and  C_23
REMARK   11  A    between atoms: C_24  and  C_25
REMARK   12  A    between atoms: C_26  and  C_27
REMARK   13  A    between atoms: C_28  and  O_29
REMARK   14  A    between atoms: O_29  and  C_30
REMARK   15  A    between atoms: C_35  and  O_37
REMARK                            x       y       z     vdW  Elec       q    Type
REMARK                         _______ _______ _______ _____ _____    ______ ____
ROOT
ATOM      1  C   UNL     1       2.794  -5.277  24.892  0.00  0.00    +0.154 C 
ATOM      2  C   UNL     1       4.293  -5.759  24.409  0.00  0.00    +0.133 C 
ATOM      3  O   UNL     1       5.607  -6.073  25.102  0.00  0.00    -0.357 OA
ATOM      4  C   UNL     1       6.251  -5.235  26.106  0.00  0.00    +0.173 C 
ATOM      5  C   UNL     1       5.091  -4.599  26.794  0.00  0.00    +0.182 C 
ATOM      6  C   UNL     1       4.324  -3.828  25.647  0.00  0.00    +0.135 C 
ATOM      7  C   UNL     1       4.373  -2.328  25.876  0.00  0.00    +0.048 C 
ATOM      8  C   UNL     1       4.121  -7.103  23.717  0.00  0.00    +0.048 C 
ATOM      9  C   UNL     1       4.639  -4.315  24.053  0.00  0.00    +0.244 C 
ATOM     10  O   UNL     1       2.935  -4.283  25.900  0.00  0.00    -0.361 OA
ENDROOT
BRANCH   1  11
ATOM     11  C   UNL     1       1.393  -5.819  24.497  0.00  0.00    +0.031 C 
ATOM     12  C   UNL     1       0.674  -5.271  23.298  0.00  0.00    +0.006 C 
ENDBRANCH   1  11
BRANCH   5  13
ATOM     13  O   UNL     1       4.346  -5.689  27.400  0.00  0.00    -0.386 OA
ATOM     14  H   UNL     1       5.009  -6.319  27.733  0.00  0.00    +0.210 HD
ENDBRANCH   5  13
BRANCH   4  15
ATOM     15  C   UNL     1       7.308  -4.125  25.787  0.00  0.00    +0.007 C 
ATOM     16  C   UNL     1       7.929  -3.372  26.710  0.00  0.00    -0.002 C 
BRANCH  16  17
ATOM     17  C   UNL     1       8.672  -2.138  26.418  0.00  0.00    -0.000 C 
ATOM     18  C   UNL     1       8.103  -1.024  25.901  0.00  0.00    +0.000 C 
BRANCH  18  19
ATOM     19  C   UNL     1       8.810   0.213  25.575  0.00  0.00    +0.004 C 
ATOM     20  C   UNL     1       8.224   1.302  25.013  0.00  0.00    +0.047 C 
BRANCH  20  21
ATOM     21  C   UNL     1       8.883   2.563  24.656  0.00  0.00    +0.138 A 
ATOM     22  O   UNL     1       8.142   3.712  25.060  0.00  0.00    -0.422 OA
ATOM     23  C   UNL     1       8.582   4.978  24.821  0.00  0.00    +0.341 A 
ATOM     24  O   UNL     1       7.955   5.970  25.176  0.00  0.00    -0.245 OA
ATOM     25  C   UNL     1       9.858   5.138  24.117  0.00  0.00    +0.138 A 
ATOM     26  C   UNL     1      10.557   4.070  23.726  0.00  0.00    +0.133 A 
ATOM     27  C   UNL     1      10.060   2.712  24.003  0.00  0.00    +0.034 A 
ATOM     28  C   UNL     1      10.946   1.591  23.512  0.00  0.00    +0.051 C 
BRANCH  26  29
ATOM     29  O   UNL     1      11.768   4.107  23.056  0.00  0.00    -0.494 OA
ATOM     30  C   UNL     1      12.630   5.226  23.254  0.00  0.00    +0.277 C 
ENDBRANCH  26  29
ENDBRANCH  20  21
ENDBRANCH  18  19
ENDBRANCH  16  17
ENDBRANCH   4  15
BRANCH   9  31
ATOM     31  O   UNL     1       5.887  -4.272  23.358  0.00  0.00    -0.456 OA
BRANCH  31  32
ATOM     32  C   UNL     1       5.983  -3.437  22.293  0.00  0.00    +0.304 C 
ATOM     33  O   UNL     1       5.691  -3.731  21.144  0.00  0.00    -0.251 OA
ATOM     34  C   UNL     1       6.572  -2.119  22.705  0.00  0.00    +0.136 C 
ENDBRANCH  31  32
ENDBRANCH   9  31
TORSDOF 9
ENDMDL
