MODEL 1
REMARK VINA RESULT:      -6.9      0.000      0.000
REMARK  Name = 
REMARK  12 active torsions:
REMARK  status: ('A' for Active; 'I' for Inactive)
REMARK    1  A    between atoms: C_1  and  C_2
REMARK    2  A    between atoms: C_2  and  C_3
REMARK    3  A    between atoms: C_2  and  C_4
REMARK    4  A    between atoms: C_2  and  N_5
REMARK    5  A    between atoms: N_5  and  C_6
REMARK    6  A    between atoms: C_6  and  C_7
REMARK    7  A    between atoms: C_7  and  O_8
REMARK    8  A    between atoms: C_7  and  C_9
REMARK    9  A    between atoms: C_9  and  O_10
REMARK   10  A    between atoms: O_10  and  C_11
REMARK   11  A    between atoms: C_18  and  O_20
REMARK   12  A    between atoms: C_21  and  O_23
REMARK                            x       y       z     vdW  Elec       q    Type
REMARK                         _______ _______ _______ _____ _____    ______ ____
ROOT
ATOM      1  C   UNL     1       8.409  -4.388  24.733  0.00  0.00    +0.124 A 
ATOM      2  C   UNL     1       7.306  -4.974  24.075  0.00  0.00    +0.000 A 
ATOM      3  C   UNL     1       7.235  -4.957  22.561  0.00  0.00    +0.073 C 
ATOM      4  C   UNL     1       6.167  -5.888  21.983  0.00  0.00    +0.148 C 
ATOM      5  C   UNL     1       4.834  -5.736  22.735  0.00  0.00    +0.148 C 
ATOM      6  C   UNL     1       5.025  -6.144  24.197  0.00  0.00    +0.069 C 
ATOM      7  C   UNL     1       6.252  -5.528  24.838  0.00  0.00    -0.038 A 
ATOM      8  C   UNL     1       6.345  -5.538  26.235  0.00  0.00    +0.004 A 
ATOM      9  C   UNL     1       7.447  -4.983  26.876  0.00  0.00    +0.004 A 
ATOM     10  C   UNL     1       8.470  -4.403  26.130  0.00  0.00    +0.046 A 
ENDROOT
BRANCH   5  11
ATOM     11  O   UNL     1       4.309  -4.404  22.666  0.00  0.00    -0.389 OA
ATOM     12  H   UNL     1       3.338  -4.459  22.640  0.00  0.00    +0.210 HD
ENDBRANCH   5  11
BRANCH   4  13
ATOM     13  O   UNL     1       5.983  -5.623  20.593  0.00  0.00    -0.389 OA
ATOM     14  H   UNL     1       5.318  -6.247  20.254  0.00  0.00    +0.210 HD
ENDBRANCH   4  13
BRANCH   1  15
ATOM     15  O   UNL     1       9.360  -3.824  23.924  0.00  0.00    -0.489 OA
BRANCH  15  16
ATOM     16  C   UNL     1       9.484  -2.393  23.934  0.00  0.00    +0.261 C 
BRANCH  16  17
ATOM     17  C   UNL     1       9.234  -1.872  22.509  0.00  0.00    +0.166 C 
BRANCH  17  18
ATOM     18  O   UNL     1      10.488  -1.711  21.827  0.00  0.00    -0.387 OA
ATOM     19  H   UNL     1      10.270  -1.407  20.926  0.00  0.00    +0.210 HD
ENDBRANCH  17  18
BRANCH  17  20
ATOM     20  C   UNL     1       8.495  -0.520  22.561  0.00  0.00    +0.116 C 
BRANCH  20  21
ATOM     21  N   UNL     1       8.748   0.203  23.813  0.00  0.00    -0.309 NA
ATOM     22  H   UNL     1       7.851   0.536  24.174  0.00  0.00    +0.123 HD
BRANCH  21  24
ATOM     23  C   UNL     1       9.958   1.744  22.256  0.00  0.00    +0.027 C 
ATOM     24  C   UNL     1       9.719   1.309  23.713  0.00  0.00    +0.011 C 
ATOM     25  C   UNL     1       9.128   2.508  24.478  0.00  0.00    +0.027 C 
ATOM     26  C   UNL     1      11.056   0.930  24.375  0.00  0.00    +0.027 C 
ENDBRANCH  21  24
ENDBRANCH  20  21
ENDBRANCH  17  20
ENDBRANCH  16  17
ENDBRANCH  15  16
ENDBRANCH   1  15
TORSDOF 9
ENDMDL
MODEL 2
REMARK VINA RESULT:      -6.2      2.688      5.626
REMARK  Name = 
REMARK  12 active torsions:
REMARK  status: ('A' for Active; 'I' for Inactive)
REMARK    1  A    between atoms: C_1  and  C_2
REMARK    2  A    between atoms: C_2  and  C_3
REMARK    3  A    between atoms: C_2  and  C_4
REMARK    4  A    between atoms: C_2  and  N_5
REMARK    5  A    between atoms: N_5  and  C_6
REMARK    6  A    between atoms: C_6  and  C_7
REMARK    7  A    between atoms: C_7  and  O_8
REMARK    8  A    between atoms: C_7  and  C_9
REMARK    9  A    between atoms: C_9  and  O_10
REMARK   10  A    between atoms: O_10  and  C_11
REMARK   11  A    between atoms: C_18  and  O_20
REMARK   12  A    between atoms: C_21  and  O_23
REMARK                            x       y       z     vdW  Elec       q    Type
REMARK                         _______ _______ _______ _____ _____    ______ ____
ROOT
ATOM      1  C   UNL     1       8.058  -2.164  25.711  0.00  0.00    +0.124 A 
ATOM      2  C   UNL     1       8.244  -1.486  24.486  0.00  0.00    +0.000 A 
ATOM      3  C   UNL     1       9.423  -1.838  23.601  0.00  0.00    +0.073 C 
ATOM      4  C   UNL     1       9.325  -1.261  22.186  0.00  0.00    +0.148 C 
ATOM      5  C   UNL     1       8.909   0.219  22.220  0.00  0.00    +0.148 C 
ATOM      6  C   UNL     1       7.515   0.341  22.839  0.00  0.00    +0.069 C 
ATOM      7  C   UNL     1       7.356  -0.449  24.122  0.00  0.00    -0.038 A 
ATOM      8  C   UNL     1       6.271  -0.148  24.954  0.00  0.00    +0.004 A 
ATOM      9  C   UNL     1       6.078  -0.838  26.146  0.00  0.00    +0.004 A 
ATOM     10  C   UNL     1       6.972  -1.836  26.527  0.00  0.00    +0.046 A 
ENDROOT
BRANCH   5  11
ATOM     11  O   UNL     1       9.836   1.038  22.942  0.00  0.00    -0.389 OA
ATOM     12  H   UNL     1      10.501   0.460  23.353  0.00  0.00    +0.210 HD
ENDBRANCH   5  11
BRANCH   4  13
ATOM     13  O   UNL     1      10.572  -1.409  21.508  0.00  0.00    -0.389 OA
ATOM     14  H   UNL     1      11.145  -1.974  22.054  0.00  0.00    +0.210 HD
ENDBRANCH   4  13
BRANCH   1  15
ATOM     15  O   UNL     1       8.994  -3.118  26.017  0.00  0.00    -0.489 OA
BRANCH  15  16
ATOM     16  C   UNL     1       8.525  -4.431  26.360  0.00  0.00    +0.261 C 
BRANCH  16  17
ATOM     17  C   UNL     1       9.024  -5.421  25.296  0.00  0.00    +0.166 C 
BRANCH  17  18
ATOM     18  O   UNL     1      10.419  -5.190  25.037  0.00  0.00    -0.387 OA
ATOM     19  H   UNL     1      10.512  -5.147  24.067  0.00  0.00    +0.210 HD
ENDBRANCH  17  18
BRANCH  17  20
ATOM     20  C   UNL     1       8.220  -5.249  23.991  0.00  0.00    +0.116 C 
BRANCH  20  21
ATOM     21  N   UNL     1       6.798  -4.994  24.246  0.00  0.00    -0.309 NA
ATOM     22  H   UNL     1       6.394  -5.835  24.663  0.00  0.00    +0.123 HD
BRANCH  21  24
ATOM     23  C   UNL     1       5.135  -5.693  22.512  0.00  0.00    +0.027 C 
ATOM     24  C   UNL     1       6.018  -4.563  23.070  0.00  0.00    +0.011 C 
ATOM     25  C   UNL     1       5.095  -3.418  23.527  0.00  0.00    +0.027 C 
ATOM     26  C   UNL     1       6.942  -4.022  21.964  0.00  0.00    +0.027 C 
ENDBRANCH  21  24
ENDBRANCH  20  21
ENDBRANCH  17  20
ENDBRANCH  16  17
ENDBRANCH  15  16
ENDBRANCH   1  15
TORSDOF 9
ENDMDL
MODEL 3
REMARK VINA RESULT:      -6.2      1.145      1.703
REMARK  Name = 
REMARK  12 active torsions:
REMARK  status: ('A' for Active; 'I' for Inactive)
REMARK    1  A    between atoms: C_1  and  C_2
REMARK    2  A    between atoms: C_2  and  C_3
REMARK    3  A    between atoms: C_2  and  C_4
REMARK    4  A    between atoms: C_2  and  N_5
REMARK    5  A    between atoms: N_5  and  C_6
REMARK    6  A    between atoms: C_6  and  C_7
REMARK    7  A    between atoms: C_7  and  O_8
REMARK    8  A    between atoms: C_7  and  C_9
REMARK    9  A    between atoms: C_9  and  O_10
REMARK   10  A    between atoms: O_10  and  C_11
REMARK   11  A    between atoms: C_18  and  O_20
REMARK   12  A    between atoms: C_21  and  O_23
REMARK                            x       y       z     vdW  Elec       q    Type
REMARK                         _______ _______ _______ _____ _____    ______ ____
ROOT
ATOM      1  C   UNL     1       8.151  -3.987  24.191  0.00  0.00    +0.124 A 
ATOM      2  C   UNL     1       7.016  -4.805  24.384  0.00  0.00    +0.000 A 
ATOM      3  C   UNL     1       6.049  -5.036  23.241  0.00  0.00    +0.073 C 
ATOM      4  C   UNL     1       5.057  -6.174  23.492  0.00  0.00    +0.148 C 
ATOM      5  C   UNL     1       4.445  -6.075  24.900  0.00  0.00    +0.148 C 
ATOM      6  C   UNL     1       5.552  -6.220  25.947  0.00  0.00    +0.069 C 
ATOM      7  C   UNL     1       6.766  -5.360  25.661  0.00  0.00    -0.038 A 
ATOM      8  C   UNL     1       7.679  -5.138  26.699  0.00  0.00    +0.004 A 
ATOM      9  C   UNL     1       8.809  -4.353  26.494  0.00  0.00    +0.004 A 
ATOM     10  C   UNL     1       9.040  -3.774  25.249  0.00  0.00    +0.046 A 
ENDROOT
BRANCH   5  11
ATOM     11  O   UNL     1       3.735  -4.849  25.109  0.00  0.00    -0.389 OA
ATOM     12  H   UNL     1       3.045  -5.004  25.777  0.00  0.00    +0.210 HD
ENDBRANCH   5  11
BRANCH   4  13
ATOM     13  O   UNL     1       4.028  -6.157  22.504  0.00  0.00    -0.389 OA
ATOM     14  H   UNL     1       4.303  -5.552  21.795  0.00  0.00    +0.210 HD
ENDBRANCH   4  13
BRANCH   1  15
ATOM     15  O   UNL     1       8.291  -3.442  22.942  0.00  0.00    -0.489 OA
BRANCH  15  16
ATOM     16  C   UNL     1       8.173  -2.016  22.817  0.00  0.00    +0.261 C 
BRANCH  16  17
ATOM     17  C   UNL     1       9.307  -1.510  21.910  0.00  0.00    +0.166 C 
BRANCH  17  18
ATOM     18  O   UNL     1      10.573  -1.941  22.433  0.00  0.00    -0.387 OA
ATOM     19  H   UNL     1      10.988  -2.479  21.733  0.00  0.00    +0.210 HD
ENDBRANCH  17  18
BRANCH  17  20
ATOM     20  C   UNL     1       9.275   0.030  21.831  0.00  0.00    +0.116 C 
BRANCH  20  21
ATOM     21  N   UNL     1       8.705   0.635  23.040  0.00  0.00    -0.309 NA
ATOM     22  H   UNL     1       7.850   1.129  22.774  0.00  0.00    +0.123 HD
BRANCH  21  24
ATOM     23  C   UNL     1      10.611   0.740  24.658  0.00  0.00    +0.027 C 
ATOM     24  C   UNL     1       9.616   1.525  23.785  0.00  0.00    +0.011 C 
ATOM     25  C   UNL     1      10.422   2.329  22.747  0.00  0.00    +0.027 C 
ATOM     26  C   UNL     1       8.826   2.520  24.654  0.00  0.00    +0.027 C 
ENDBRANCH  21  24
ENDBRANCH  20  21
ENDBRANCH  17  20
ENDBRANCH  16  17
ENDBRANCH  15  16
ENDBRANCH   1  15
TORSDOF 9
ENDMDL
MODEL 4
REMARK VINA RESULT:      -6.1      1.787      3.231
REMARK  Name = 
REMARK  12 active torsions:
REMARK  status: ('A' for Active; 'I' for Inactive)
REMARK    1  A    between atoms: C_1  and  C_2
REMARK    2  A    between atoms: C_2  and  C_3
REMARK    3  A    between atoms: C_2  and  C_4
REMARK    4  A    between atoms: C_2  and  N_5
REMARK    5  A    between atoms: N_5  and  C_6
REMARK    6  A    between atoms: C_6  and  C_7
REMARK    7  A    between atoms: C_7  and  O_8
REMARK    8  A    between atoms: C_7  and  C_9
REMARK    9  A    between atoms: C_9  and  O_10
REMARK   10  A    between atoms: O_10  and  C_11
REMARK   11  A    between atoms: C_18  and  O_20
REMARK   12  A    between atoms: C_21  and  O_23
REMARK                            x       y       z     vdW  Elec       q    Type
REMARK                         _______ _______ _______ _____ _____    ______ ____
ROOT
ATOM      1  C   UNL     1       6.889  -3.704  22.804  0.00  0.00    +0.124 A 
ATOM      2  C   UNL     1       6.324  -4.275  23.966  0.00  0.00    +0.000 A 
ATOM      3  C   UNL     1       6.396  -3.530  25.284  0.00  0.00    +0.073 C 
ATOM      4  C   UNL     1       5.484  -4.108  26.369  0.00  0.00    +0.148 C 
ATOM      5  C   UNL     1       5.606  -5.639  26.437  0.00  0.00    +0.148 C 
ATOM      6  C   UNL     1       5.145  -6.246  25.110  0.00  0.00    +0.069 C 
ATOM      7  C   UNL     1       5.740  -5.561  23.897  0.00  0.00    -0.038 A 
ATOM      8  C   UNL     1       5.680  -6.225  22.666  0.00  0.00    +0.004 A 
ATOM      9  C   UNL     1       6.214  -5.645  21.521  0.00  0.00    +0.004 A 
ATOM     10  C   UNL     1       6.823  -4.394  21.590  0.00  0.00    +0.046 A 
ENDROOT
BRANCH   5  11
ATOM     11  O   UNL     1       6.937  -6.075  26.736  0.00  0.00    -0.389 OA
ATOM     12  H   UNL     1       7.113  -6.890  26.234  0.00  0.00    +0.210 HD
ENDBRANCH   5  11
BRANCH   4  13
ATOM     13  O   UNL     1       5.799  -3.530  27.635  0.00  0.00    -0.389 OA
ATOM     14  H   UNL     1       6.653  -3.891  27.925  0.00  0.00    +0.210 HD
ENDBRANCH   4  13
BRANCH   1  15
ATOM     15  O   UNL     1       7.484  -2.480  22.966  0.00  0.00    -0.489 OA
BRANCH  15  16
ATOM     16  C   UNL     1       8.775  -2.280  22.370  0.00  0.00    +0.261 C 
BRANCH  16  17
ATOM     17  C   UNL     1       9.821  -2.184  23.493  0.00  0.00    +0.166 C 
BRANCH  17  18
ATOM     18  O   UNL     1       9.957  -3.460  24.138  0.00  0.00    -0.387 OA
ATOM     19  H   UNL     1      10.083  -4.113  23.424  0.00  0.00    +0.210 HD
ENDBRANCH  17  18
BRANCH  17  20
ATOM     20  C   UNL     1       9.393  -1.123  24.527  0.00  0.00    +0.116 C 
BRANCH  20  21
ATOM     21  N   UNL     1       8.800   0.060  23.895  0.00  0.00    -0.309 NA
ATOM     22  H   UNL     1       8.368  -0.232  23.016  0.00  0.00    +0.123 HD
BRANCH  21  24
ATOM     23  C   UNL     1       9.988   1.445  22.182  0.00  0.00    +0.027 C 
ATOM     24  C   UNL     1       9.729   1.186  23.676  0.00  0.00    +0.011 C 
ATOM     25  C   UNL     1       9.071   2.445  24.272  0.00  0.00    +0.027 C 
ATOM     26  C   UNL     1      11.062   0.950  24.408  0.00  0.00    +0.027 C 
ENDBRANCH  21  24
ENDBRANCH  20  21
ENDBRANCH  17  20
ENDBRANCH  16  17
ENDBRANCH  15  16
ENDBRANCH   1  15
TORSDOF 9
ENDMDL
MODEL 5
REMARK VINA RESULT:      -6.0      1.742      2.179
REMARK  Name = 
REMARK  12 active torsions:
REMARK  status: ('A' for Active; 'I' for Inactive)
REMARK    1  A    between atoms: C_1  and  C_2
REMARK    2  A    between atoms: C_2  and  C_3
REMARK    3  A    between atoms: C_2  and  C_4
REMARK    4  A    between atoms: C_2  and  N_5
REMARK    5  A    between atoms: N_5  and  C_6
REMARK    6  A    between atoms: C_6  and  C_7
REMARK    7  A    between atoms: C_7  and  O_8
REMARK    8  A    between atoms: C_7  and  C_9
REMARK    9  A    between atoms: C_9  and  O_10
REMARK   10  A    between atoms: O_10  and  C_11
REMARK   11  A    between atoms: C_18  and  O_20
REMARK   12  A    between atoms: C_21  and  O_23
REMARK                            x       y       z     vdW  Elec       q    Type
REMARK                         _______ _______ _______ _____ _____    ______ ____
ROOT
ATOM      1  C   UNL     1       7.996  -2.828  24.996  0.00  0.00    +0.124 A 
ATOM      2  C   UNL     1       7.203  -3.644  24.159  0.00  0.00    +0.000 A 
ATOM      3  C   UNL     1       6.836  -3.166  22.768  0.00  0.00    +0.073 C 
ATOM      4  C   UNL     1       6.254  -4.263  21.873  0.00  0.00    +0.148 C 
ATOM      5  C   UNL     1       5.188  -5.080  22.622  0.00  0.00    +0.148 C 
ATOM      6  C   UNL     1       5.835  -5.787  23.815  0.00  0.00    +0.069 C 
ATOM      7  C   UNL     1       6.716  -4.878  24.647  0.00  0.00    -0.038 A 
ATOM      8  C   UNL     1       7.075  -5.300  25.932  0.00  0.00    +0.004 A 
ATOM      9  C   UNL     1       7.878  -4.504  26.742  0.00  0.00    +0.004 A 
ATOM     10  C   UNL     1       8.330  -3.270  26.279  0.00  0.00    +0.046 A 
ENDROOT
BRANCH   5  11
ATOM     11  O   UNL     1       4.088  -4.278  23.068  0.00  0.00    -0.389 OA
ATOM     12  H   UNL     1       4.418  -3.646  23.730  0.00  0.00    +0.210 HD
ENDBRANCH   5  11
BRANCH   4  13
ATOM     13  O   UNL     1       5.696  -3.689  20.691  0.00  0.00    -0.389 OA
ATOM     14  H   UNL     1       6.346  -3.064  20.327  0.00  0.00    +0.210 HD
ENDBRANCH   4  13
BRANCH   1  15
ATOM     15  O   UNL     1       8.381  -1.623  24.469  0.00  0.00    -0.489 OA
BRANCH  15  16
ATOM     16  C   UNL     1       9.773  -1.439  24.168  0.00  0.00    +0.261 C 
BRANCH  16  17
ATOM     17  C   UNL     1      10.259  -0.161  24.871  0.00  0.00    +0.166 C 
BRANCH  17  18
ATOM     18  O   UNL     1       9.486   0.059  26.062  0.00  0.00    -0.387 OA
ATOM     19  H   UNL     1       8.799   0.709  25.823  0.00  0.00    +0.210 HD
ENDBRANCH  17  18
BRANCH  17  20
ATOM     20  C   UNL     1      10.115   1.051  23.929  0.00  0.00    +0.116 C 
BRANCH  20  21
ATOM     21  N   UNL     1       8.753   1.594  23.927  0.00  0.00    -0.309 NA
ATOM     22  H   UNL     1       8.191   1.044  24.581  0.00  0.00    +0.123 HD
BRANCH  21  24
ATOM     23  C   UNL     1       8.967   1.015  21.502  0.00  0.00    +0.027 C 
ATOM     24  C   UNL     1       8.105   1.658  22.602  0.00  0.00    +0.011 C 
ATOM     25  C   UNL     1       6.786   0.868  22.699  0.00  0.00    +0.027 C 
ATOM     26  C   UNL     1       7.767   3.111  22.225  0.00  0.00    +0.027 C 
ENDBRANCH  21  24
ENDBRANCH  20  21
ENDBRANCH  17  20
ENDBRANCH  16  17
ENDBRANCH  15  16
ENDBRANCH   1  15
TORSDOF 9
ENDMDL
MODEL 6
REMARK VINA RESULT:      -6.0      2.706      6.408
REMARK  Name = 
REMARK  12 active torsions:
REMARK  status: ('A' for Active; 'I' for Inactive)
REMARK    1  A    between atoms: C_1  and  C_2
REMARK    2  A    between atoms: C_2  and  C_3
REMARK    3  A    between atoms: C_2  and  C_4
REMARK    4  A    between atoms: C_2  and  N_5
REMARK    5  A    between atoms: N_5  and  C_6
REMARK    6  A    between atoms: C_6  and  C_7
REMARK    7  A    between atoms: C_7  and  O_8
REMARK    8  A    between atoms: C_7  and  C_9
REMARK    9  A    between atoms: C_9  and  O_10
REMARK   10  A    between atoms: O_10  and  C_11
REMARK   11  A    between atoms: C_18  and  O_20
REMARK   12  A    between atoms: C_21  and  O_23
REMARK                            x       y       z     vdW  Elec       q    Type
REMARK                         _______ _______ _______ _____ _____    ______ ____
ROOT
ATOM      1  C   UNL     1       9.124  -1.302  23.689  0.00  0.00    +0.124 A 
ATOM      2  C   UNL     1       8.374  -0.135  23.954  0.00  0.00    +0.000 A 
ATOM      3  C   UNL     1       7.672   0.024  25.288  0.00  0.00    +0.073 C 
ATOM      4  C   UNL     1       7.172   1.446  25.555  0.00  0.00    +0.148 C 
ATOM      5  C   UNL     1       6.448   2.019  24.324  0.00  0.00    +0.148 C 
ATOM      6  C   UNL     1       7.431   2.113  23.155  0.00  0.00    +0.069 C 
ATOM      7  C   UNL     1       8.245   0.853  22.951  0.00  0.00    -0.038 A 
ATOM      8  C   UNL     1       8.910   0.685  21.730  0.00  0.00    +0.004 A 
ATOM      9  C   UNL     1       9.668  -0.455  21.486  0.00  0.00    +0.004 A 
ATOM     10  C   UNL     1       9.768  -1.448  22.457  0.00  0.00    +0.046 A 
ENDROOT
BRANCH   5  11
ATOM     11  O   UNL     1       5.308   1.240  23.941  0.00  0.00    -0.389 OA
ATOM     12  H   UNL     1       4.620   1.350  24.619  0.00  0.00    +0.210 HD
ENDBRANCH   5  11
BRANCH   4  13
ATOM     13  O   UNL     1       6.304   1.457  26.688  0.00  0.00    -0.389 OA
ATOM     14  H   UNL     1       5.674   0.723  26.590  0.00  0.00    +0.210 HD
ENDBRANCH   4  13
BRANCH   1  15
ATOM     15  O   UNL     1       9.154  -2.236  24.692  0.00  0.00    -0.489 OA
BRANCH  15  16
ATOM     16  C   UNL     1       9.746  -3.512  24.401  0.00  0.00    +0.261 C 
BRANCH  16  17
ATOM     17  C   UNL     1       9.108  -4.567  25.319  0.00  0.00    +0.166 C 
BRANCH  17  18
ATOM     18  O   UNL     1      10.061  -5.605  25.598  0.00  0.00    -0.387 OA
ATOM     19  H   UNL     1      10.365  -5.934  24.731  0.00  0.00    +0.210 HD
ENDBRANCH  17  18
BRANCH  17  20
ATOM     20  C   UNL     1       7.863  -5.175  24.642  0.00  0.00    +0.116 C 
BRANCH  20  21
ATOM     21  N   UNL     1       6.848  -4.162  24.333  0.00  0.00    -0.309 NA
ATOM     22  H   UNL     1       6.110  -4.227  25.038  0.00  0.00    +0.123 HD
BRANCH  21  24
ATOM     23  C   UNL     1       7.059  -5.212  22.071  0.00  0.00    +0.027 C 
ATOM     24  C   UNL     1       6.284  -4.234  22.972  0.00  0.00    +0.011 C 
ATOM     25  C   UNL     1       4.838  -4.750  23.103  0.00  0.00    +0.027 C 
ATOM     26  C   UNL     1       6.238  -2.841  22.320  0.00  0.00    +0.027 C 
ENDBRANCH  21  24
ENDBRANCH  20  21
ENDBRANCH  17  20
ENDBRANCH  16  17
ENDBRANCH  15  16
ENDBRANCH   1  15
TORSDOF 9
ENDMDL
MODEL 7
REMARK VINA RESULT:      -5.9      2.505      6.426
REMARK  Name = 
REMARK  12 active torsions:
REMARK  status: ('A' for Active; 'I' for Inactive)
REMARK    1  A    between atoms: C_1  and  C_2
REMARK    2  A    between atoms: C_2  and  C_3
REMARK    3  A    between atoms: C_2  and  C_4
REMARK    4  A    between atoms: C_2  and  N_5
REMARK    5  A    between atoms: N_5  and  C_6
REMARK    6  A    between atoms: C_6  and  C_7
REMARK    7  A    between atoms: C_7  and  O_8
REMARK    8  A    between atoms: C_7  and  C_9
REMARK    9  A    between atoms: C_9  and  O_10
REMARK   10  A    between atoms: O_10  and  C_11
REMARK   11  A    between atoms: C_18  and  O_20
REMARK   12  A    between atoms: C_21  and  O_23
REMARK                            x       y       z     vdW  Elec       q    Type
REMARK                         _______ _______ _______ _____ _____    ______ ____
ROOT
ATOM      1  C   UNL     1       6.654  -0.931  23.607  0.00  0.00    +0.124 A 
ATOM      2  C   UNL     1       7.406   0.265  23.591  0.00  0.00    +0.000 A 
ATOM      3  C   UNL     1       8.372   0.533  22.455  0.00  0.00    +0.073 C 
ATOM      4  C   UNL     1       8.872   1.979  22.401  0.00  0.00    +0.148 C 
ATOM      5  C   UNL     1       9.297   2.470  23.795  0.00  0.00    +0.148 C 
ATOM      6  C   UNL     1       8.085   2.462  24.728  0.00  0.00    +0.069 C 
ATOM      7  C   UNL     1       7.286   1.177  24.665  0.00  0.00    -0.038 A 
ATOM      8  C   UNL     1       6.381   0.909  25.699  0.00  0.00    +0.004 A 
ATOM      9  C   UNL     1       5.625  -0.258  25.694  0.00  0.00    +0.004 A 
ATOM     10  C   UNL     1       5.766  -1.178  24.658  0.00  0.00    +0.046 A 
ENDROOT
BRANCH   5  11
ATOM     11  O   UNL     1      10.353   1.684  24.360  0.00  0.00    -0.389 OA
ATOM     12  H   UNL     1      11.194   2.150  24.216  0.00  0.00    +0.210 HD
ENDBRANCH   5  11
BRANCH   4  13
ATOM     13  O   UNL     1       9.962   2.088  21.485  0.00  0.00    -0.389 OA
ATOM     14  H   UNL     1      10.388   1.217  21.422  0.00  0.00    +0.210 HD
ENDBRANCH   4  13
BRANCH   1  15
ATOM     15  O   UNL     1       6.869  -1.788  22.559  0.00  0.00    -0.489 OA
BRANCH  15  16
ATOM     16  C   UNL     1       5.875  -2.792  22.301  0.00  0.00    +0.261 C 
BRANCH  16  17
ATOM     17  C   UNL     1       6.589  -4.120  22.002  0.00  0.00    +0.166 C 
BRANCH  17  18
ATOM     18  O   UNL     1       5.695  -5.003  21.304  0.00  0.00    -0.387 OA
ATOM     19  H   UNL     1       6.235  -5.759  21.009  0.00  0.00    +0.210 HD
ENDBRANCH  17  18
BRANCH  17  20
ATOM     20  C   UNL     1       7.050  -4.783  23.316  0.00  0.00    +0.116 C 
BRANCH  20  21
ATOM     21  N   UNL     1       8.216  -4.108  23.897  0.00  0.00    -0.309 NA
ATOM     22  H   UNL     1       9.041  -4.375  23.355  0.00  0.00    +0.123 HD
BRANCH  21  24
ATOM     23  C   UNL     1       7.336  -5.254  25.941  0.00  0.00    +0.027 C 
ATOM     24  C   UNL     1       8.430  -4.356  25.336  0.00  0.00    +0.011 C 
ATOM     25  C   UNL     1       9.779  -5.085  25.480  0.00  0.00    +0.027 C 
ATOM     26  C   UNL     1       8.515  -3.032  26.116  0.00  0.00    +0.027 C 
ENDBRANCH  21  24
ENDBRANCH  20  21
ENDBRANCH  17  20
ENDBRANCH  16  17
ENDBRANCH  15  16
ENDBRANCH   1  15
TORSDOF 9
ENDMDL
MODEL 8
REMARK VINA RESULT:      -5.9      3.368      7.697
REMARK  Name = 
REMARK  12 active torsions:
REMARK  status: ('A' for Active; 'I' for Inactive)
REMARK    1  A    between atoms: C_1  and  C_2
REMARK    2  A    between atoms: C_2  and  C_3
REMARK    3  A    between atoms: C_2  and  C_4
REMARK    4  A    between atoms: C_2  and  N_5
REMARK    5  A    between atoms: N_5  and  C_6
REMARK    6  A    between atoms: C_6  and  C_7
REMARK    7  A    between atoms: C_7  and  O_8
REMARK    8  A    between atoms: C_7  and  C_9
REMARK    9  A    between atoms: C_9  and  O_10
REMARK   10  A    between atoms: O_10  and  C_11
REMARK   11  A    between atoms: C_18  and  O_20
REMARK   12  A    between atoms: C_21  and  O_23
REMARK                            x       y       z     vdW  Elec       q    Type
REMARK                         _______ _______ _______ _____ _____    ______ ____
ROOT
ATOM      1  C   UNL     1       9.138   1.905  22.333  0.00  0.00    +0.124 A 
ATOM      2  C   UNL     1       8.209   2.928  22.626  0.00  0.00    +0.000 A 
ATOM      3  C   UNL     1       6.790   2.831  22.102  0.00  0.00    +0.073 C 
ATOM      4  C   UNL     1       5.826   3.828  22.749  0.00  0.00    +0.148 C 
ATOM      5  C   UNL     1       6.442   5.236  22.807  0.00  0.00    +0.148 C 
ATOM      6  C   UNL     1       7.694   5.207  23.686  0.00  0.00    +0.069 C 
ATOM      7  C   UNL     1       8.628   4.059  23.363  0.00  0.00    -0.038 A 
ATOM      8  C   UNL     1       9.943   4.121  23.841  0.00  0.00    +0.004 A 
ATOM      9  C   UNL     1      10.845   3.098  23.572  0.00  0.00    +0.004 A 
ATOM     10  C   UNL     1      10.447   1.999  22.814  0.00  0.00    +0.046 A 
ENDROOT
BRANCH   5  11
ATOM     11  O   UNL     1       6.768   5.751  21.510  0.00  0.00    -0.389 OA
ATOM     12  H   UNL     1       7.731   5.691  21.390  0.00  0.00    +0.210 HD
ENDBRANCH   5  11
BRANCH   4  13
ATOM     13  O   UNL     1       4.593   3.857  22.030  0.00  0.00    -0.389 OA
ATOM     14  H   UNL     1       3.902   3.489  22.605  0.00  0.00    +0.210 HD
ENDBRANCH   4  13
BRANCH   1  15
ATOM     15  O   UNL     1       8.669   0.871  21.566  0.00  0.00    -0.489 OA
BRANCH  15  16
ATOM     16  C   UNL     1       9.461  -0.325  21.498  0.00  0.00    +0.261 C 
BRANCH  16  17
ATOM     17  C   UNL     1       8.777  -1.413  22.342  0.00  0.00    +0.166 C 
BRANCH  17  18
ATOM     18  O   UNL     1       7.451  -0.987  22.697  0.00  0.00    -0.387 OA
ATOM     19  H   UNL     1       7.562  -0.273  23.352  0.00  0.00    +0.210 HD
ENDBRANCH  17  18
BRANCH  17  20
ATOM     20  C   UNL     1       9.594  -1.684  23.622  0.00  0.00    +0.116 C 
BRANCH  20  21
ATOM     21  N   UNL     1       9.900  -3.108  23.794  0.00  0.00    -0.309 NA
ATOM     22  H   UNL     1       9.854  -3.556  22.876  0.00  0.00    +0.123 HD
BRANCH  21  24
ATOM     23  C   UNL     1       8.445  -2.866  25.816  0.00  0.00    +0.027 C 
ATOM     24  C   UNL     1       9.050  -3.818  24.769  0.00  0.00    +0.011 C 
ATOM     25  C   UNL     1       7.892  -4.463  23.984  0.00  0.00    +0.027 C 
ATOM     26  C   UNL     1       9.836  -4.940  25.470  0.00  0.00    +0.027 C 
ENDBRANCH  21  24
ENDBRANCH  20  21
ENDBRANCH  17  20
ENDBRANCH  16  17
ENDBRANCH  15  16
ENDBRANCH   1  15
TORSDOF 9
ENDMDL
MODEL 9
REMARK VINA RESULT:      -5.8      1.824      2.504
REMARK  Name = 
REMARK  12 active torsions:
REMARK  status: ('A' for Active; 'I' for Inactive)
REMARK    1  A    between atoms: C_1  and  C_2
REMARK    2  A    between atoms: C_2  and  C_3
REMARK    3  A    between atoms: C_2  and  C_4
REMARK    4  A    between atoms: C_2  and  N_5
REMARK    5  A    between atoms: N_5  and  C_6
REMARK    6  A    between atoms: C_6  and  C_7
REMARK    7  A    between atoms: C_7  and  O_8
REMARK    8  A    between atoms: C_7  and  C_9
REMARK    9  A    between atoms: C_9  and  O_10
REMARK   10  A    between atoms: O_10  and  C_11
REMARK   11  A    between atoms: C_18  and  O_20
REMARK   12  A    between atoms: C_21  and  O_23
REMARK                            x       y       z     vdW  Elec       q    Type
REMARK                         _______ _______ _______ _____ _____    ______ ____
ROOT
ATOM      1  C   UNL     1       6.834  -4.004  25.968  0.00  0.00    +0.124 A 
ATOM      2  C   UNL     1       6.216  -4.689  24.899  0.00  0.00    +0.000 A 
ATOM      3  C   UNL     1       6.351  -4.160  23.485  0.00  0.00    +0.073 C 
ATOM      4  C   UNL     1       5.908  -5.155  22.410  0.00  0.00    +0.148 C 
ATOM      5  C   UNL     1       4.562  -5.803  22.775  0.00  0.00    +0.148 C 
ATOM      6  C   UNL     1       4.717  -6.601  24.072  0.00  0.00    +0.069 C 
ATOM      7  C   UNL     1       5.433  -5.836  25.166  0.00  0.00    -0.038 A 
ATOM      8  C   UNL     1       5.330  -6.309  26.480  0.00  0.00    +0.004 A 
ATOM      9  C   UNL     1       5.963  -5.644  27.524  0.00  0.00    +0.004 A 
ATOM     10  C   UNL     1       6.705  -4.492  27.271  0.00  0.00    +0.046 A 
ENDROOT
BRANCH   5  11
ATOM     11  O   UNL     1       3.507  -4.844  22.916  0.00  0.00    -0.389 OA
ATOM     12  H   UNL     1       3.501  -4.527  23.836  0.00  0.00    +0.210 HD
ENDBRANCH   5  11
BRANCH   4  13
ATOM     13  O   UNL     1       5.815  -4.503  21.144  0.00  0.00    -0.389 OA
ATOM     14  H   UNL     1       5.850  -5.185  20.452  0.00  0.00    +0.210 HD
ENDBRANCH   4  13
BRANCH   1  15
ATOM     15  O   UNL     1       7.527  -2.871  25.633  0.00  0.00    -0.489 OA
BRANCH  15  16
ATOM     16  C   UNL     1       7.531  -1.785  26.573  0.00  0.00    +0.261 C 
BRANCH  16  17
ATOM     17  C   UNL     1       8.830  -0.983  26.388  0.00  0.00    +0.166 C 
BRANCH  17  18
ATOM     18  O   UNL     1       9.204  -0.377  27.636  0.00  0.00    -0.387 OA
ATOM     19  H   UNL     1       8.425   0.125  27.939  0.00  0.00    +0.210 HD
ENDBRANCH  17  18
BRANCH  17  20
ATOM     20  C   UNL     1       8.630   0.110  25.320  0.00  0.00    +0.116 C 
BRANCH  20  21
ATOM     21  N   UNL     1       9.754   0.177  24.378  0.00  0.00    -0.309 NA
ATOM     22  H   UNL     1      10.101   1.139  24.366  0.00  0.00    +0.123 HD
BRANCH  21  24
ATOM     23  C   UNL     1      10.147  -1.626  22.688  0.00  0.00    +0.027 C 
ATOM     24  C   UNL     1       9.454  -0.291  23.011  0.00  0.00    +0.011 C 
ATOM     25  C   UNL     1       7.932  -0.510  22.925  0.00  0.00    +0.027 C 
ATOM     26  C   UNL     1       9.845   0.771  21.968  0.00  0.00    +0.027 C 
ENDBRANCH  21  24
ENDBRANCH  20  21
ENDBRANCH  17  20
ENDBRANCH  16  17
ENDBRANCH  15  16
ENDBRANCH   1  15
TORSDOF 9
ENDMDL
