MODEL 1
REMARK VINA RESULT:      -5.7      0.000      0.000
REMARK  Name = 
REMARK  3 active torsions:
REMARK  status: ('A' for Active; 'I' for Inactive)
REMARK    1  A    between atoms: C_1  and  C_2
REMARK    2  A    between atoms: C_4  and  C_5
REMARK    3  A    between atoms: C_6  and  C_8
REMARK                            x       y       z     vdW  Elec       q    Type
REMARK                         _______ _______ _______ _____ _____    ______ ____
ROOT
ATOM      1  C   UNL     1       8.924  -2.892  23.763  0.00  0.00    +0.084 A 
ATOM      2  C   UNL     1       7.881  -3.486  23.081  0.00  0.00    +0.049 A 
ATOM      3  C   UNL     1       7.707  -4.828  23.310  0.00  0.00    +0.116 A 
ATOM      4  N   UNL     1       8.486  -5.545  24.138  0.00  0.00    -0.223 NA
ATOM      5  C   UNL     1       9.480  -4.887  24.737  0.00  0.00    +0.213 A 
ATOM      6  N   UNL     1      10.277  -5.599  25.609  0.00  0.00    -0.327 N 
ATOM      7  H   UNL     1       9.768  -6.407  25.943  0.00  0.00    +0.145 HD
ATOM      8  H   UNL     1      10.660  -4.976  26.306  0.00  0.00    +0.145 HD
ATOM      9  N   UNL     1       9.730  -3.585  24.594  0.00  0.00    -0.214 NA
ENDROOT
BRANCH   1  13
ATOM     10  C   UNL     1      10.191   1.953  22.045  0.00  0.00    +0.073 C 
ATOM     11  C   UNL     1       9.823   0.768  22.864  0.00  0.00    +0.076 A 
ATOM     12  S   UNL     1       9.665  -0.769  22.129  0.00  0.00    -0.071 S 
ATOM     13  C   UNL     1       9.246  -1.465  23.650  0.00  0.00    +0.060 A 
ATOM     14  C   UNL     1       9.251  -0.465  24.618  0.00  0.00    +0.055 A 
ATOM     15  C   UNL     1       8.951  -0.612  26.068  0.00  0.00    +0.067 C 
ATOM     16  N   UNL     1       9.595   0.801  24.157  0.00  0.00    -0.249 NA
ENDBRANCH   1  13
TORSDOF 1
ENDMDL
MODEL 2
REMARK VINA RESULT:      -5.7      3.020      5.758
REMARK  Name = 
REMARK  3 active torsions:
REMARK  status: ('A' for Active; 'I' for Inactive)
REMARK    1  A    between atoms: C_1  and  C_2
REMARK    2  A    between atoms: C_4  and  C_5
REMARK    3  A    between atoms: C_6  and  C_8
REMARK                            x       y       z     vdW  Elec       q    Type
REMARK                         _______ _______ _______ _____ _____    ______ ____
ROOT
ATOM      1  C   UNL     1       7.785  -3.275  23.158  0.00  0.00    +0.084 A 
ATOM      2  C   UNL     1       8.691  -3.492  24.177  0.00  0.00    +0.049 A 
ATOM      3  C   UNL     1       9.853  -2.766  24.104  0.00  0.00    +0.116 A 
ATOM      4  N   UNL     1      10.122  -1.895  23.117  0.00  0.00    -0.223 NA
ATOM      5  C   UNL     1       9.194  -1.769  22.167  0.00  0.00    +0.213 A 
ATOM      6  N   UNL     1       9.440  -0.862  21.157  0.00  0.00    -0.327 N 
ATOM      7  H   UNL     1      10.104  -0.171  21.482  0.00  0.00    +0.145 HD
ATOM      8  H   UNL     1       8.565  -0.520  20.786  0.00  0.00    +0.145 HD
ATOM      9  N   UNL     1       8.028  -2.414  22.147  0.00  0.00    -0.214 NA
ENDROOT
BRANCH   1  13
ATOM     10  C   UNL     1       2.727  -4.730  23.732  0.00  0.00    +0.073 C 
ATOM     11  C   UNL     1       4.157  -4.622  23.339  0.00  0.00    +0.076 A 
ATOM     12  S   UNL     1       5.143  -3.398  24.013  0.00  0.00    -0.071 S 
ATOM     13  C   UNL     1       6.485  -3.951  23.083  0.00  0.00    +0.060 A 
ATOM     14  C   UNL     1       6.079  -5.037  22.313  0.00  0.00    +0.055 A 
ATOM     15  C   UNL     1       6.908  -5.829  21.363  0.00  0.00    +0.067 C 
ATOM     16  N   UNL     1       4.752  -5.417  22.479  0.00  0.00    -0.249 NA
ENDBRANCH   1  13
TORSDOF 1
ENDMDL
MODEL 3
REMARK VINA RESULT:      -5.7      3.084      5.664
REMARK  Name = 
REMARK  3 active torsions:
REMARK  status: ('A' for Active; 'I' for Inactive)
REMARK    1  A    between atoms: C_1  and  C_2
REMARK    2  A    between atoms: C_4  and  C_5
REMARK    3  A    between atoms: C_6  and  C_8
REMARK                            x       y       z     vdW  Elec       q    Type
REMARK                         _______ _______ _______ _____ _____    ______ ____
ROOT
ATOM      1  C   UNL     1       7.332  -4.179  23.841  0.00  0.00    +0.084 A 
ATOM      2  C   UNL     1       7.876  -3.011  23.345  0.00  0.00    +0.049 A 
ATOM      3  C   UNL     1       9.187  -2.779  23.674  0.00  0.00    +0.116 A 
ATOM      4  N   UNL     1       9.921  -3.614  24.430  0.00  0.00    -0.223 NA
ATOM      5  C   UNL     1       9.301  -4.706  24.880  0.00  0.00    +0.213 A 
ATOM      6  N   UNL     1      10.042  -5.589  25.638  0.00  0.00    -0.327 N 
ATOM      7  H   UNL     1      11.025  -5.464  25.431  0.00  0.00    +0.145 HD
ATOM      8  H   UNL     1       9.666  -6.521  25.541  0.00  0.00    +0.145 HD
ATOM      9  N   UNL     1       8.037  -5.034  24.611  0.00  0.00    -0.214 NA
ENDROOT
BRANCH   1  13
ATOM     10  C   UNL     1       2.094  -4.942  23.991  0.00  0.00    +0.073 C 
ATOM     11  C   UNL     1       3.539  -4.945  23.638  0.00  0.00    +0.076 A 
ATOM     12  S   UNL     1       4.669  -4.142  24.640  0.00  0.00    -0.071 S 
ATOM     13  C   UNL     1       5.949  -4.595  23.577  0.00  0.00    +0.060 A 
ATOM     14  C   UNL     1       5.416  -5.329  22.522  0.00  0.00    +0.055 A 
ATOM     15  C   UNL     1       6.155  -5.921  21.373  0.00  0.00    +0.067 C 
ATOM     16  N   UNL     1       4.042  -5.531  22.576  0.00  0.00    -0.249 NA
ENDBRANCH   1  13
TORSDOF 1
ENDMDL
MODEL 4
REMARK VINA RESULT:      -5.6      3.294      7.300
REMARK  Name = 
REMARK  3 active torsions:
REMARK  status: ('A' for Active; 'I' for Inactive)
REMARK    1  A    between atoms: C_1  and  C_2
REMARK    2  A    between atoms: C_4  and  C_5
REMARK    3  A    between atoms: C_6  and  C_8
REMARK                            x       y       z     vdW  Elec       q    Type
REMARK                         _______ _______ _______ _____ _____    ______ ____
ROOT
ATOM      1  C   UNL     1      10.383   3.457  23.615  0.00  0.00    +0.084 A 
ATOM      2  C   UNL     1       9.513   4.437  24.050  0.00  0.00    +0.049 A 
ATOM      3  C   UNL     1      10.038   5.702  24.137  0.00  0.00    +0.116 A 
ATOM      4  N   UNL     1      11.311   5.999  23.827  0.00  0.00    -0.223 NA
ATOM      5  C   UNL     1      12.080   4.982  23.435  0.00  0.00    +0.213 A 
ATOM      6  N   UNL     1      13.384   5.269  23.089  0.00  0.00    -0.327 N 
ATOM      7  H   UNL     1      13.454   6.245  22.832  0.00  0.00    +0.145 HD
ATOM      8  H   UNL     1      13.716   4.591  22.418  0.00  0.00    +0.145 HD
ATOM      9  N   UNL     1      11.670   3.720  23.305  0.00  0.00    -0.214 NA
ENDROOT
BRANCH   1  13
ATOM     10  C   UNL     1       9.861  -1.797  24.004  0.00  0.00    +0.073 C 
ATOM     11  C   UNL     1       9.742  -0.364  23.627  0.00  0.00    +0.076 A 
ATOM     12  S   UNL     1      10.741   0.807  24.373  0.00  0.00    -0.071 S 
ATOM     13  C   UNL     1       9.990   2.054  23.448  0.00  0.00    +0.060 A 
ATOM     14  C   UNL     1       9.017   1.482  22.633  0.00  0.00    +0.055 A 
ATOM     15  C   UNL     1       8.125   2.182  21.669  0.00  0.00    +0.067 C 
ATOM     16  N   UNL     1       8.896   0.101  22.736  0.00  0.00    -0.249 NA
ENDBRANCH   1  13
TORSDOF 1
ENDMDL
MODEL 5
REMARK VINA RESULT:      -5.4      1.872      4.978
REMARK  Name = 
REMARK  3 active torsions:
REMARK  status: ('A' for Active; 'I' for Inactive)
REMARK    1  A    between atoms: C_1  and  C_2
REMARK    2  A    between atoms: C_4  and  C_5
REMARK    3  A    between atoms: C_6  and  C_8
REMARK                            x       y       z     vdW  Elec       q    Type
REMARK                         _______ _______ _______ _____ _____    ______ ____
ROOT
ATOM      1  C   UNL     1       8.950  -2.080  24.192  0.00  0.00    +0.084 A 
ATOM      2  C   UNL     1       9.866  -1.336  23.475  0.00  0.00    +0.049 A 
ATOM      3  C   UNL     1      10.370  -0.233  24.117  0.00  0.00    +0.116 A 
ATOM      4  N   UNL     1      10.013   0.126  25.363  0.00  0.00    -0.223 NA
ATOM      5  C   UNL     1       9.107  -0.644  25.967  0.00  0.00    +0.213 A 
ATOM      6  N   UNL     1       8.745  -0.307  27.254  0.00  0.00    -0.327 N 
ATOM      7  H   UNL     1       9.482   0.245  27.674  0.00  0.00    +0.145 HD
ATOM      8  H   UNL     1       8.447  -1.133  27.752  0.00  0.00    +0.145 HD
ATOM      9  N   UNL     1       8.564  -1.742  25.440  0.00  0.00    -0.214 NA
ENDROOT
BRANCH   1  13
ATOM     10  C   UNL     1       6.182  -5.616  21.387  0.00  0.00    +0.073 C 
ATOM     11  C   UNL     1       7.054  -4.931  22.377  0.00  0.00    +0.076 A 
ATOM     12  S   UNL     1       7.254  -3.233  22.315  0.00  0.00    -0.071 S 
ATOM     13  C   UNL     1       8.322  -3.298  23.668  0.00  0.00    +0.060 A 
ATOM     14  C   UNL     1       8.454  -4.624  24.071  0.00  0.00    +0.055 A 
ATOM     15  C   UNL     1       9.275  -5.146  25.197  0.00  0.00    +0.067 C 
ATOM     16  N   UNL     1       7.715  -5.542  23.334  0.00  0.00    -0.249 NA
ENDBRANCH   1  13
TORSDOF 1
ENDMDL
MODEL 6
REMARK VINA RESULT:      -5.4      2.209      5.667
REMARK  Name = 
REMARK  3 active torsions:
REMARK  status: ('A' for Active; 'I' for Inactive)
REMARK    1  A    between atoms: C_1  and  C_2
REMARK    2  A    between atoms: C_4  and  C_5
REMARK    3  A    between atoms: C_6  and  C_8
REMARK                            x       y       z     vdW  Elec       q    Type
REMARK                         _______ _______ _______ _____ _____    ______ ____
ROOT
ATOM      1  C   UNL     1       8.201  -0.895  22.567  0.00  0.00    +0.084 A 
ATOM      2  C   UNL     1       9.209  -0.374  21.782  0.00  0.00    +0.049 A 
ATOM      3  C   UNL     1       9.043   0.930  21.388  0.00  0.00    +0.116 A 
ATOM      4  N   UNL     1       7.978   1.676  21.727  0.00  0.00    -0.223 NA
ATOM      5  C   UNL     1       7.046   1.078  22.471  0.00  0.00    +0.213 A 
ATOM      6  N   UNL     1       5.956   1.833  22.850  0.00  0.00    -0.327 N 
ATOM      7  H   UNL     1       6.202   2.814  22.821  0.00  0.00    +0.145 HD
ATOM      8  H   UNL     1       5.581   1.478  23.718  0.00  0.00    +0.145 HD
ATOM      9  N   UNL     1       7.114  -0.177  22.917  0.00  0.00    -0.214 NA
ENDROOT
BRANCH   1  13
ATOM     10  C   UNL     1       9.265  -5.350  25.223  0.00  0.00    +0.073 C 
ATOM     11  C   UNL     1       8.702  -4.317  24.314  0.00  0.00    +0.076 A 
ATOM     12  S   UNL     1       9.379  -2.747  24.274  0.00  0.00    -0.071 S 
ATOM     13  C   UNL     1       8.220  -2.266  23.090  0.00  0.00    +0.060 A 
ATOM     14  C   UNL     1       7.389  -3.347  22.812  0.00  0.00    +0.055 A 
ATOM     15  C   UNL     1       6.251  -3.386  21.853  0.00  0.00    +0.067 C 
ATOM     16  N   UNL     1       7.684  -4.514  23.508  0.00  0.00    -0.249 NA
ENDBRANCH   1  13
TORSDOF 1
ENDMDL
MODEL 7
REMARK VINA RESULT:      -5.3      1.799      2.276
REMARK  Name = 
REMARK  3 active torsions:
REMARK  status: ('A' for Active; 'I' for Inactive)
REMARK    1  A    between atoms: C_1  and  C_2
REMARK    2  A    between atoms: C_4  and  C_5
REMARK    3  A    between atoms: C_6  and  C_8
REMARK                            x       y       z     vdW  Elec       q    Type
REMARK                         _______ _______ _______ _____ _____    ______ ____
ROOT
ATOM      1  C   UNL     1       8.428  -2.735  25.087  0.00  0.00    +0.084 A 
ATOM      2  C   UNL     1       7.486  -2.747  26.096  0.00  0.00    +0.049 A 
ATOM      3  C   UNL     1       7.526  -3.833  26.934  0.00  0.00    +0.116 A 
ATOM      4  N   UNL     1       8.412  -4.835  26.807  0.00  0.00    -0.223 NA
ATOM      5  C   UNL     1       9.269  -4.744  25.789  0.00  0.00    +0.213 A 
ATOM      6  N   UNL     1      10.202  -5.751  25.654  0.00  0.00    -0.327 N 
ATOM      7  H   UNL     1      10.333  -6.207  26.547  0.00  0.00    +0.145 HD
ATOM      8  H   UNL     1      11.027  -5.392  25.194  0.00  0.00    +0.145 HD
ATOM      9  N   UNL     1       9.325  -3.730  24.925  0.00  0.00    -0.214 NA
ENDROOT
BRANCH   1  13
ATOM     10  C   UNL     1      10.025   1.387  22.173  0.00  0.00    +0.073 C 
ATOM     11  C   UNL     1       9.274   0.247  22.762  0.00  0.00    +0.076 A 
ATOM     12  S   UNL     1       9.905  -0.590  24.114  0.00  0.00    -0.071 S 
ATOM     13  C   UNL     1       8.542  -1.646  24.110  0.00  0.00    +0.060 A 
ATOM     14  C   UNL     1       7.698  -1.285  23.064  0.00  0.00    +0.055 A 
ATOM     15  C   UNL     1       6.407  -1.921  22.686  0.00  0.00    +0.067 C 
ATOM     16  N   UNL     1       8.122  -0.195  22.311  0.00  0.00    -0.249 NA
ENDBRANCH   1  13
TORSDOF 1
ENDMDL
MODEL 8
REMARK VINA RESULT:      -5.2      2.486      3.713
REMARK  Name = 
REMARK  3 active torsions:
REMARK  status: ('A' for Active; 'I' for Inactive)
REMARK    1  A    between atoms: C_1  and  C_2
REMARK    2  A    between atoms: C_4  and  C_5
REMARK    3  A    between atoms: C_6  and  C_8
REMARK                            x       y       z     vdW  Elec       q    Type
REMARK                         _______ _______ _______ _____ _____    ______ ____
ROOT
ATOM      1  C   UNL     1       6.739  -5.083  24.315  0.00  0.00    +0.084 A 
ATOM      2  C   UNL     1       5.881  -5.569  23.349  0.00  0.00    +0.049 A 
ATOM      3  C   UNL     1       4.887  -6.401  23.799  0.00  0.00    +0.116 A 
ATOM      4  N   UNL     1       4.733  -6.739  25.091  0.00  0.00    -0.223 NA
ATOM      5  C   UNL     1       5.623  -6.235  25.947  0.00  0.00    +0.213 A 
ATOM      6  N   UNL     1       5.469  -6.550  27.281  0.00  0.00    -0.327 N 
ATOM      7  H   UNL     1       4.506  -6.807  27.454  0.00  0.00    +0.145 HD
ATOM      8  H   UNL     1       5.860  -5.815  27.853  0.00  0.00    +0.145 HD
ATOM      9  N   UNL     1       6.618  -5.411  25.618  0.00  0.00    -0.214 NA
ENDROOT
BRANCH   1  13
ATOM     10  C   UNL     1       9.810  -1.181  22.478  0.00  0.00    +0.073 C 
ATOM     11  C   UNL     1       9.265  -2.374  23.178  0.00  0.00    +0.076 A 
ATOM     12  S   UNL     1       7.650  -2.867  22.906  0.00  0.00    -0.071 S 
ATOM     13  C   UNL     1       7.849  -4.171  24.016  0.00  0.00    +0.060 A 
ATOM     14  C   UNL     1       9.144  -4.133  24.524  0.00  0.00    +0.055 A 
ATOM     15  C   UNL     1       9.753  -5.067  25.510  0.00  0.00    +0.067 C 
ATOM     16  N   UNL     1       9.944  -3.111  24.027  0.00  0.00    -0.249 NA
ENDBRANCH   1  13
TORSDOF 1
ENDMDL
MODEL 9
REMARK VINA RESULT:      -5.2      2.080      5.367
REMARK  Name = 
REMARK  3 active torsions:
REMARK  status: ('A' for Active; 'I' for Inactive)
REMARK    1  A    between atoms: C_1  and  C_2
REMARK    2  A    between atoms: C_4  and  C_5
REMARK    3  A    between atoms: C_6  and  C_8
REMARK                            x       y       z     vdW  Elec       q    Type
REMARK                         _______ _______ _______ _____ _____    ______ ____
ROOT
ATOM      1  C   UNL     1       8.078   0.030  23.140  0.00  0.00    +0.084 A 
ATOM      2  C   UNL     1       6.852   0.639  22.962  0.00  0.00    +0.049 A 
ATOM      3  C   UNL     1       6.877   1.853  22.322  0.00  0.00    +0.116 A 
ATOM      4  N   UNL     1       8.006   2.436  21.885  0.00  0.00    -0.223 NA
ATOM      5  C   UNL     1       9.144   1.780  22.121  0.00  0.00    +0.213 A 
ATOM      6  N   UNL     1      10.311   2.350  21.660  0.00  0.00    -0.327 N 
ATOM      7  H   UNL     1      10.097   2.984  20.901  0.00  0.00    +0.145 HD
ATOM      8  H   UNL     1      10.995   1.629  21.479  0.00  0.00    +0.145 HD
ATOM      9  N   UNL     1       9.231   0.593  22.722  0.00  0.00    -0.214 NA
ENDROOT
BRANCH   1  13
ATOM     10  C   UNL     1       8.381  -5.139  24.246  0.00  0.00    +0.073 C 
ATOM     11  C   UNL     1       8.384  -3.653  24.303  0.00  0.00    +0.076 A 
ATOM     12  S   UNL     1       7.986  -2.739  22.913  0.00  0.00    -0.071 S 
ATOM     13  C   UNL     1       8.237  -1.275  23.790  0.00  0.00    +0.060 A 
ATOM     14  C   UNL     1       8.616  -1.593  25.091  0.00  0.00    +0.055 A 
ATOM     15  C   UNL     1       8.933  -0.644  26.194  0.00  0.00    +0.067 C 
ATOM     16  N   UNL     1       8.683  -2.952  25.373  0.00  0.00    -0.249 NA
ENDBRANCH   1  13
TORSDOF 1
ENDMDL
