MODEL 1
REMARK VINA RESULT:      -6.4      0.000      0.000
REMARK  Name = 
REMARK  28 active torsions:
REMARK  status: ('A' for Active; 'I' for Inactive)
REMARK    1  A    between atoms: C_1  and  C_2
REMARK    2  A    between atoms: N_4  and  O_5
REMARK    3  A    between atoms: N_4  and  C_6
REMARK    4  A    between atoms: C_6  and  C_7
REMARK    5  A    between atoms: C_7  and  C_8
REMARK    6  A    between atoms: C_8  and  C_9
REMARK    7  A    between atoms: C_9  and  C_10
REMARK    8  A    between atoms: C_10  and  N_11
REMARK    9  A    between atoms: C_12  and  C_14
REMARK   10  A    between atoms: C_14  and  C_15
REMARK   11  A    between atoms: C_15  and  C_16
REMARK   12  A    between atoms: N_18  and  O_19
REMARK   13  A    between atoms: N_18  and  C_20
REMARK   14  A    between atoms: C_20  and  C_21
REMARK   15  A    between atoms: C_21  and  C_22
REMARK   16  A    between atoms: C_22  and  C_23
REMARK   17  A    between atoms: C_23  and  C_24
REMARK   18  A    between atoms: C_24  and  N_25
REMARK   19  A    between atoms: C_26  and  C_28
REMARK   20  A    between atoms: C_28  and  C_29
REMARK   21  A    between atoms: C_29  and  C_30
REMARK   22  A    between atoms: N_32  and  O_33
REMARK   23  A    between atoms: N_32  and  C_34
REMARK   24  A    between atoms: C_34  and  C_35
REMARK   25  A    between atoms: C_35  and  C_36
REMARK   26  A    between atoms: C_36  and  C_37
REMARK   27  A    between atoms: C_37  and  C_38
REMARK   28  A    between atoms: C_38  and  N_39
REMARK                            x       y       z     vdW  Elec       q    Type
REMARK                         _______ _______ _______ _____ _____    ______ ____
ROOT
ATOM      1  C   UNL     1       9.719  -1.497  22.096  0.00  0.00    +0.139 C 
ENDROOT
BRANCH   1   3
ATOM      2  C   UNL     1       9.000  -3.130  23.834  0.00  0.00    +0.238 C 
ATOM      3  N   UNL     1       8.709  -2.199  22.871  0.00  0.00    -0.184 N 
ATOM      4  O   UNL     1      10.154  -3.472  24.101  0.00  0.00    -0.274 OA
BRANCH   3   5
ATOM      5  O   UNL     1       7.409  -1.868  22.453  0.00  0.00    -0.292 OA
ATOM      6  H   UNL     1       7.236  -2.388  21.652  0.00  0.00    +0.242 HD
ENDBRANCH   3   5
BRANCH   2   7
ATOM      7  C   UNL     1       7.819  -3.693  24.593  0.00  0.00    +0.107 C 
BRANCH   7   8
ATOM      8  C   UNL     1       8.088  -5.096  25.122  0.00  0.00    +0.105 C 
BRANCH   8  11
ATOM      9  N   UNL     1       6.144  -6.121  26.110  0.00  0.00    -0.315 N 
ATOM     10  H   UNL     1       5.854  -6.257  25.151  0.00  0.00    +0.149 HD
ATOM     11  C   UNL     1       7.260  -5.353  26.360  0.00  0.00    +0.213 C 
ATOM     12  O   UNL     1       7.559  -4.932  27.470  0.00  0.00    -0.276 OA
BRANCH   9  13
ATOM     13  C   UNL     1       5.204  -6.412  27.168  0.00  0.00    +0.104 C 
BRANCH  13  14
ATOM     14  C   UNL     1       3.785  -6.600  26.650  0.00  0.00    +0.019 C 
BRANCH  14  15
ATOM     15  C   UNL     1       3.288  -5.400  25.835  0.00  0.00    +0.003 C 
BRANCH  15  16
ATOM     16  C   UNL     1       2.990  -5.748  24.372  0.00  0.00    +0.021 C 
BRANCH  16  17
ATOM     17  C   UNL     1       3.766  -4.871  23.388  0.00  0.00    +0.139 C 
BRANCH  17  20
ATOM     18  C   UNL     1       6.986  -5.785  21.530  0.00  0.00    +0.111 C 
ATOM     19  C   UNL     1       5.773  -4.984  21.922  0.00  0.00    +0.235 C 
ATOM     20  N   UNL     1       4.946  -5.539  22.863  0.00  0.00    -0.184 N 
ATOM     21  O   UNL     1       5.576  -3.873  21.431  0.00  0.00    -0.274 OA
BRANCH  20  22
ATOM     22  O   UNL     1       5.060  -6.854  23.344  0.00  0.00    -0.292 OA
ATOM     23  H   UNL     1       6.010  -7.057  23.348  0.00  0.00    +0.242 HD
ENDBRANCH  20  22
ENDBRANCH  17  20
ENDBRANCH  16  17
ENDBRANCH  15  16
ENDBRANCH  14  15
ENDBRANCH  13  14
ENDBRANCH   9  13
ENDBRANCH   8  11
ENDBRANCH   7   8
ENDBRANCH   2   7
ENDBRANCH   1   3
BRANCH   1  24
ATOM     24  C   UNL     1       9.338  -0.041  21.820  0.00  0.00    +0.021 C 
BRANCH  24  25
ATOM     25  C   UNL     1       9.989   0.939  22.803  0.00  0.00    +0.003 C 
BRANCH  25  26
ATOM     26  C   UNL     1      10.819   0.251  23.892  0.00  0.00    +0.019 C 
BRANCH  26  27
ATOM     27  C   UNL     1      10.070   0.201  25.223  0.00  0.00    +0.104 C 
BRANCH  27  28
ATOM     28  N   UNL     1       9.027   1.207  25.287  0.00  0.00    -0.315 N 
ATOM     29  H   UNL     1       9.291   2.164  25.485  0.00  0.00    +0.149 HD
ATOM     30  C   UNL     1       7.693   0.861  25.272  0.00  0.00    +0.213 C 
ATOM     31  O   UNL     1       7.297  -0.298  25.172  0.00  0.00    -0.276 OA
BRANCH  30  32
ATOM     32  C   UNL     1       6.739   2.030  25.384  0.00  0.00    +0.105 C 
BRANCH  32  33
ATOM     33  C   UNL     1       6.718   2.793  24.067  0.00  0.00    +0.107 C 
BRANCH  33  34
ATOM     34  C   UNL     1       7.072   4.247  24.289  0.00  0.00    +0.238 C 
ATOM     35  N   UNL     1       7.920   4.844  23.384  0.00  0.00    -0.184 N 
ATOM     36  O   UNL     1       6.526   4.870  25.205  0.00  0.00    -0.274 OA
BRANCH  35  37
ATOM     37  O   UNL     1       8.823   4.038  22.664  0.00  0.00    -0.292 OA
ATOM     38  H   UNL     1       9.564   4.646  22.484  0.00  0.00    +0.242 HD
ENDBRANCH  35  37
BRANCH  35  39
ATOM     39  C   UNL     1       8.395   6.216  23.542  0.00  0.00    +0.139 C 
BRANCH  39  40
ATOM     40  C   UNL     1       9.907   6.337  23.341  0.00  0.00    +0.021 C 
BRANCH  40  41
ATOM     41  C   UNL     1      10.663   6.370  24.674  0.00  0.00    +0.003 C 
BRANCH  41  42
ATOM     42  C   UNL     1      12.175   6.237  24.473  0.00  0.00    +0.015 C 
BRANCH  42  43
ATOM     43  C   UNL     1      12.536   5.233  23.374  0.00  0.00    +0.077 C 
BRANCH  43  44
ATOM     44  N   UNL     1      13.976   5.166  23.154  0.00  0.00    -0.330 NA
ATOM     45  H   UNL     1      14.418   6.001  23.535  0.00  0.00    +0.118 HD
ATOM     46  H   UNL     1      14.366   4.375  23.665  0.00  0.00    +0.118 HD
ENDBRANCH  43  44
ENDBRANCH  42  43
ENDBRANCH  41  42
ENDBRANCH  40  41
ENDBRANCH  39  40
ENDBRANCH  35  39
ENDBRANCH  33  34
ENDBRANCH  32  33
ENDBRANCH  30  32
ENDBRANCH  27  28
ENDBRANCH  26  27
ENDBRANCH  25  26
ENDBRANCH  24  25
ENDBRANCH   1  24
TORSDOF 27
ENDMDL
MODEL 2
REMARK VINA RESULT:      -5.9      1.600      2.052
REMARK  Name = 
REMARK  28 active torsions:
REMARK  status: ('A' for Active; 'I' for Inactive)
REMARK    1  A    between atoms: C_1  and  C_2
REMARK    2  A    between atoms: N_4  and  O_5
REMARK    3  A    between atoms: N_4  and  C_6
REMARK    4  A    between atoms: C_6  and  C_7
REMARK    5  A    between atoms: C_7  and  C_8
REMARK    6  A    between atoms: C_8  and  C_9
REMARK    7  A    between atoms: C_9  and  C_10
REMARK    8  A    between atoms: C_10  and  N_11
REMARK    9  A    between atoms: C_12  and  C_14
REMARK   10  A    between atoms: C_14  and  C_15
REMARK   11  A    between atoms: C_15  and  C_16
REMARK   12  A    between atoms: N_18  and  O_19
REMARK   13  A    between atoms: N_18  and  C_20
REMARK   14  A    between atoms: C_20  and  C_21
REMARK   15  A    between atoms: C_21  and  C_22
REMARK   16  A    between atoms: C_22  and  C_23
REMARK   17  A    between atoms: C_23  and  C_24
REMARK   18  A    between atoms: C_24  and  N_25
REMARK   19  A    between atoms: C_26  and  C_28
REMARK   20  A    between atoms: C_28  and  C_29
REMARK   21  A    between atoms: C_29  and  C_30
REMARK   22  A    between atoms: N_32  and  O_33
REMARK   23  A    between atoms: N_32  and  C_34
REMARK   24  A    between atoms: C_34  and  C_35
REMARK   25  A    between atoms: C_35  and  C_36
REMARK   26  A    between atoms: C_36  and  C_37
REMARK   27  A    between atoms: C_37  and  C_38
REMARK   28  A    between atoms: C_38  and  N_39
REMARK                            x       y       z     vdW  Elec       q    Type
REMARK                         _______ _______ _______ _____ _____    ______ ____
ROOT
ATOM      1  C   UNL     1       8.495  -1.807  23.791  0.00  0.00    +0.139 C 
ENDROOT
BRANCH   1   3
ATOM      2  C   UNL     1       7.546  -3.809  24.931  0.00  0.00    +0.238 C 
ATOM      3  N   UNL     1       8.599  -3.141  24.363  0.00  0.00    -0.184 N 
ATOM      4  O   UNL     1       6.421  -3.315  25.030  0.00  0.00    -0.274 OA
BRANCH   3   5
ATOM      5  O   UNL     1       9.921  -3.616  24.336  0.00  0.00    -0.292 OA
ATOM      6  H   UNL     1      10.338  -3.319  25.161  0.00  0.00    +0.242 HD
ENDBRANCH   3   5
BRANCH   2   7
ATOM      7  C   UNL     1       7.828  -5.220  25.396  0.00  0.00    +0.107 C 
BRANCH   7   8
ATOM      8  C   UNL     1       7.974  -5.311  26.910  0.00  0.00    +0.105 C 
BRANCH   8  11
ATOM      9  N   UNL     1       5.769  -6.246  26.654  0.00  0.00    -0.315 N 
ATOM     10  H   UNL     1       5.970  -6.189  25.664  0.00  0.00    +0.149 HD
ATOM     11  C   UNL     1       6.649  -5.667  27.541  0.00  0.00    +0.213 C 
ATOM     12  O   UNL     1       6.391  -5.471  28.721  0.00  0.00    -0.276 OA
BRANCH   9  13
ATOM     13  C   UNL     1       4.429  -6.593  27.071  0.00  0.00    +0.104 C 
BRANCH  13  14
ATOM     14  C   UNL     1       3.513  -5.380  27.154  0.00  0.00    +0.019 C 
BRANCH  14  15
ATOM     15  C   UNL     1       2.425  -5.384  26.074  0.00  0.00    +0.003 C 
BRANCH  15  16
ATOM     16  C   UNL     1       2.742  -6.322  24.905  0.00  0.00    +0.021 C 
BRANCH  16  17
ATOM     17  C   UNL     1       3.283  -5.578  23.682  0.00  0.00    +0.139 C 
BRANCH  17  20
ATOM     18  C   UNL     1       6.715  -6.094  22.068  0.00  0.00    +0.111 C 
ATOM     19  C   UNL     1       5.399  -5.434  22.382  0.00  0.00    +0.235 C 
ATOM     20  N   UNL     1       4.564  -6.104  23.236  0.00  0.00    -0.184 N 
ATOM     21  O   UNL     1       5.127  -4.332  21.909  0.00  0.00    -0.274 OA
BRANCH  20  22
ATOM     22  O   UNL     1       4.775  -7.418  23.688  0.00  0.00    -0.292 OA
ATOM     23  H   UNL     1       5.336  -7.343  24.476  0.00  0.00    +0.242 HD
ENDBRANCH  20  22
ENDBRANCH  17  20
ENDBRANCH  16  17
ENDBRANCH  15  16
ENDBRANCH  14  15
ENDBRANCH  13  14
ENDBRANCH   9  13
ENDBRANCH   8  11
ENDBRANCH   7   8
ENDBRANCH   2   7
ENDBRANCH   1   3
BRANCH   1  24
ATOM     24  C   UNL     1       9.863  -1.178  23.521  0.00  0.00    +0.021 C 
BRANCH  24  25
ATOM     25  C   UNL     1      10.169  -1.043  22.024  0.00  0.00    +0.003 C 
BRANCH  25  26
ATOM     26  C   UNL     1       9.437   0.126  21.355  0.00  0.00    +0.019 C 
BRANCH  26  27
ATOM     27  C   UNL     1       9.930   1.472  21.881  0.00  0.00    +0.104 C 
BRANCH  27  28
ATOM     28  N   UNL     1       8.928   2.508  21.721  0.00  0.00    -0.315 N 
ATOM     29  H   UNL     1       9.099   3.245  21.047  0.00  0.00    +0.149 HD
ATOM     30  C   UNL     1       7.857   2.612  22.581  0.00  0.00    +0.213 C 
ATOM     31  O   UNL     1       7.659   1.831  23.510  0.00  0.00    -0.276 OA
BRANCH  30  32
ATOM     32  C   UNL     1       6.928   3.771  22.293  0.00  0.00    +0.105 C 
BRANCH  32  33
ATOM     33  C   UNL     1       6.293   4.243  23.593  0.00  0.00    +0.107 C 
BRANCH  33  34
ATOM     34  C   UNL     1       7.063   5.411  24.168  0.00  0.00    +0.238 C 
ATOM     35  N   UNL     1       8.137   5.130  24.982  0.00  0.00    -0.184 N 
ATOM     36  O   UNL     1       6.771   6.560  23.821  0.00  0.00    -0.274 OA
BRANCH  35  37
ATOM     37  O   UNL     1       8.161   3.905  25.677  0.00  0.00    -0.292 OA
ATOM     38  H   UNL     1       7.215   3.686  25.766  0.00  0.00    +0.242 HD
ENDBRANCH  35  37
BRANCH  35  39
ATOM     39  C   UNL     1       8.904   6.173  25.658  0.00  0.00    +0.139 C 
BRANCH  39  40
ATOM     40  C   UNL     1       9.967   6.796  24.752  0.00  0.00    +0.021 C 
BRANCH  40  41
ATOM     41  C   UNL     1      10.731   5.735  23.950  0.00  0.00    +0.003 C 
BRANCH  41  42
ATOM     42  C   UNL     1      12.244   5.960  24.009  0.00  0.00    +0.015 C 
BRANCH  42  43
ATOM     43  C   UNL     1      13.010   5.070  23.027  0.00  0.00    +0.077 C 
BRANCH  43  44
ATOM     44  N   UNL     1      13.940   5.841  22.209  0.00  0.00    -0.330 NA
ATOM     45  H   UNL     1      13.821   5.589  21.230  0.00  0.00    +0.118 HD
ATOM     46  H   UNL     1      13.721   6.833  22.281  0.00  0.00    +0.118 HD
ENDBRANCH  43  44
ENDBRANCH  42  43
ENDBRANCH  41  42
ENDBRANCH  40  41
ENDBRANCH  39  40
ENDBRANCH  35  39
ENDBRANCH  33  34
ENDBRANCH  32  33
ENDBRANCH  30  32
ENDBRANCH  27  28
ENDBRANCH  26  27
ENDBRANCH  25  26
ENDBRANCH  24  25
ENDBRANCH   1  24
TORSDOF 27
ENDMDL
MODEL 3
REMARK VINA RESULT:      -5.9      2.228      3.464
REMARK  Name = 
REMARK  28 active torsions:
REMARK  status: ('A' for Active; 'I' for Inactive)
REMARK    1  A    between atoms: C_1  and  C_2
REMARK    2  A    between atoms: N_4  and  O_5
REMARK    3  A    between atoms: N_4  and  C_6
REMARK    4  A    between atoms: C_6  and  C_7
REMARK    5  A    between atoms: C_7  and  C_8
REMARK    6  A    between atoms: C_8  and  C_9
REMARK    7  A    between atoms: C_9  and  C_10
REMARK    8  A    between atoms: C_10  and  N_11
REMARK    9  A    between atoms: C_12  and  C_14
REMARK   10  A    between atoms: C_14  and  C_15
REMARK   11  A    between atoms: C_15  and  C_16
REMARK   12  A    between atoms: N_18  and  O_19
REMARK   13  A    between atoms: N_18  and  C_20
REMARK   14  A    between atoms: C_20  and  C_21
REMARK   15  A    between atoms: C_21  and  C_22
REMARK   16  A    between atoms: C_22  and  C_23
REMARK   17  A    between atoms: C_23  and  C_24
REMARK   18  A    between atoms: C_24  and  N_25
REMARK   19  A    between atoms: C_26  and  C_28
REMARK   20  A    between atoms: C_28  and  C_29
REMARK   21  A    between atoms: C_29  and  C_30
REMARK   22  A    between atoms: N_32  and  O_33
REMARK   23  A    between atoms: N_32  and  C_34
REMARK   24  A    between atoms: C_34  and  C_35
REMARK   25  A    between atoms: C_35  and  C_36
REMARK   26  A    between atoms: C_36  and  C_37
REMARK   27  A    between atoms: C_37  and  C_38
REMARK   28  A    between atoms: C_38  and  N_39
REMARK                            x       y       z     vdW  Elec       q    Type
REMARK                         _______ _______ _______ _____ _____    ______ ____
ROOT
ATOM      1  C   UNL     1       9.935  -2.407  23.601  0.00  0.00    +0.139 C 
ENDROOT
BRANCH   1   3
ATOM      2  C   UNL     1       9.054  -4.436  24.747  0.00  0.00    +0.238 C 
ATOM      3  N   UNL     1       8.856  -3.237  24.113  0.00  0.00    -0.184 N 
ATOM      4  O   UNL     1      10.173  -4.926  24.908  0.00  0.00    -0.274 OA
BRANCH   3   5
ATOM      5  O   UNL     1       7.595  -2.700  23.803  0.00  0.00    -0.292 OA
ATOM      6  H   UNL     1       7.718  -2.144  23.016  0.00  0.00    +0.242 HD
ENDBRANCH   3   5
BRANCH   2   7
ATOM      7  C   UNL     1       7.814  -5.115  25.285  0.00  0.00    +0.107 C 
BRANCH   7   8
ATOM      8  C   UNL     1       7.842  -5.252  26.801  0.00  0.00    +0.105 C 
BRANCH   8  11
ATOM      9  N   UNL     1       6.337  -3.374  26.689  0.00  0.00    -0.315 N 
ATOM     10  H   UNL     1       6.972  -3.038  25.976  0.00  0.00    +0.149 HD
ATOM     11  C   UNL     1       6.690  -4.490  27.414  0.00  0.00    +0.213 C 
ATOM     12  O   UNL     1       6.124  -4.838  28.442  0.00  0.00    -0.276 OA
BRANCH   9  13
ATOM     13  C   UNL     1       5.297  -2.490  27.164  0.00  0.00    +0.104 C 
BRANCH  13  14
ATOM     14  C   UNL     1       4.025  -2.591  26.334  0.00  0.00    +0.019 C 
BRANCH  14  15
ATOM     15  C   UNL     1       4.265  -3.221  24.956  0.00  0.00    +0.003 C 
BRANCH  15  16
ATOM     16  C   UNL     1       3.664  -4.624  24.824  0.00  0.00    +0.021 C 
BRANCH  16  17
ATOM     17  C   UNL     1       3.584  -5.097  23.371  0.00  0.00    +0.139 C 
BRANCH  17  20
ATOM     18  C   UNL     1       6.970  -5.984  21.822  0.00  0.00    +0.111 C 
ATOM     19  C   UNL     1       5.736  -5.177  22.126  0.00  0.00    +0.235 C 
ATOM     20  N   UNL     1       4.803  -5.763  22.939  0.00  0.00    -0.184 N 
ATOM     21  O   UNL     1       5.614  -4.037  21.681  0.00  0.00    -0.274 OA
BRANCH  20  22
ATOM     22  O   UNL     1       4.840  -7.105  23.353  0.00  0.00    -0.292 OA
ATOM     23  H   UNL     1       4.722  -7.091  24.317  0.00  0.00    +0.242 HD
ENDBRANCH  20  22
ENDBRANCH  17  20
ENDBRANCH  16  17
ENDBRANCH  15  16
ENDBRANCH  14  15
ENDBRANCH  13  14
ENDBRANCH   9  13
ENDBRANCH   8  11
ENDBRANCH   7   8
ENDBRANCH   2   7
ENDBRANCH   1   3
BRANCH   1  24
ATOM     24  C   UNL     1       9.493  -0.965  23.343  0.00  0.00    +0.021 C 
BRANCH  24  25
ATOM     25  C   UNL     1      10.295   0.056  24.159  0.00  0.00    +0.003 C 
BRANCH  25  26
ATOM     26  C   UNL     1      10.476   1.401  23.445  0.00  0.00    +0.019 C 
BRANCH  26  27
ATOM     27  C   UNL     1       9.899   1.368  22.031  0.00  0.00    +0.104 C 
BRANCH  27  28
ATOM     28  N   UNL     1       8.941   2.436  21.819  0.00  0.00    -0.315 N 
ATOM     29  H   UNL     1       9.290   3.375  21.669  0.00  0.00    +0.149 HD
ATOM     30  C   UNL     1       7.590   2.236  22.001  0.00  0.00    +0.213 C 
ATOM     31  O   UNL     1       7.104   1.152  22.318  0.00  0.00    -0.276 OA
BRANCH  30  32
ATOM     32  C   UNL     1       6.736   3.464  21.774  0.00  0.00    +0.105 C 
BRANCH  32  33
ATOM     33  C   UNL     1       7.292   4.623  22.589  0.00  0.00    +0.107 C 
BRANCH  33  34
ATOM     34  C   UNL     1       6.873   4.502  24.038  0.00  0.00    +0.238 C 
ATOM     35  N   UNL     1       7.860   4.558  24.996  0.00  0.00    -0.184 N 
ATOM     36  O   UNL     1       5.671   4.452  24.319  0.00  0.00    -0.274 OA
BRANCH  35  37
ATOM     37  O   UNL     1       9.171   4.181  24.644  0.00  0.00    -0.292 OA
ATOM     38  H   UNL     1       9.618   5.038  24.518  0.00  0.00    +0.242 HD
ENDBRANCH  35  37
BRANCH  35  39
ATOM     39  C   UNL     1       7.584   4.371  26.418  0.00  0.00    +0.139 C 
BRANCH  39  40
ATOM     40  C   UNL     1       6.980   2.999  26.720  0.00  0.00    +0.021 C 
BRANCH  40  41
ATOM     41  C   UNL     1       7.613   1.893  25.869  0.00  0.00    +0.003 C 
BRANCH  41  42
ATOM     42  C   UNL     1       6.725   0.647  25.806  0.00  0.00    +0.015 C 
BRANCH  42  43
ATOM     43  C   UNL     1       5.241   0.990  25.651  0.00  0.00    +0.077 C 
BRANCH  43  44
ATOM     44  N   UNL     1       4.933   1.466  24.307  0.00  0.00    -0.330 NA
ATOM     45  H   UNL     1       4.756   0.670  23.697  0.00  0.00    +0.118 HD
ATOM     46  H   UNL     1       4.073   2.013  24.324  0.00  0.00    +0.118 HD
ENDBRANCH  43  44
ENDBRANCH  42  43
ENDBRANCH  41  42
ENDBRANCH  40  41
ENDBRANCH  39  40
ENDBRANCH  35  39
ENDBRANCH  33  34
ENDBRANCH  32  33
ENDBRANCH  30  32
ENDBRANCH  27  28
ENDBRANCH  26  27
ENDBRANCH  25  26
ENDBRANCH  24  25
ENDBRANCH   1  24
TORSDOF 27
ENDMDL
MODEL 4
REMARK VINA RESULT:      -5.7      1.719      3.507
REMARK  Name = 
REMARK  28 active torsions:
REMARK  status: ('A' for Active; 'I' for Inactive)
REMARK    1  A    between atoms: C_1  and  C_2
REMARK    2  A    between atoms: N_4  and  O_5
REMARK    3  A    between atoms: N_4  and  C_6
REMARK    4  A    between atoms: C_6  and  C_7
REMARK    5  A    between atoms: C_7  and  C_8
REMARK    6  A    between atoms: C_8  and  C_9
REMARK    7  A    between atoms: C_9  and  C_10
REMARK    8  A    between atoms: C_10  and  N_11
REMARK    9  A    between atoms: C_12  and  C_14
REMARK   10  A    between atoms: C_14  and  C_15
REMARK   11  A    between atoms: C_15  and  C_16
REMARK   12  A    between atoms: N_18  and  O_19
REMARK   13  A    between atoms: N_18  and  C_20
REMARK   14  A    between atoms: C_20  and  C_21
REMARK   15  A    between atoms: C_21  and  C_22
REMARK   16  A    between atoms: C_22  and  C_23
REMARK   17  A    between atoms: C_23  and  C_24
REMARK   18  A    between atoms: C_24  and  N_25
REMARK   19  A    between atoms: C_26  and  C_28
REMARK   20  A    between atoms: C_28  and  C_29
REMARK   21  A    between atoms: C_29  and  C_30
REMARK   22  A    between atoms: N_32  and  O_33
REMARK   23  A    between atoms: N_32  and  C_34
REMARK   24  A    between atoms: C_34  and  C_35
REMARK   25  A    between atoms: C_35  and  C_36
REMARK   26  A    between atoms: C_36  and  C_37
REMARK   27  A    between atoms: C_37  and  C_38
REMARK   28  A    between atoms: C_38  and  N_39
REMARK                            x       y       z     vdW  Elec       q    Type
REMARK                         _______ _______ _______ _____ _____    ______ ____
ROOT
ATOM      1  C   UNL     1      10.000  -2.004  23.060  0.00  0.00    +0.139 C 
ENDROOT
BRANCH   1   3
ATOM      2  C   UNL     1       9.183  -3.482  24.892  0.00  0.00    +0.238 C 
ATOM      3  N   UNL     1       9.460  -2.237  24.391  0.00  0.00    -0.184 N 
ATOM      4  O   UNL     1       9.342  -4.513  24.235  0.00  0.00    -0.274 OA
BRANCH   3   5
ATOM      5  O   UNL     1       9.183  -1.032  25.058  0.00  0.00    -0.292 OA
ATOM      6  H   UNL     1       8.539  -1.242  25.752  0.00  0.00    +0.242 HD
ENDBRANCH   3   5
BRANCH   2   7
ATOM      7  C   UNL     1       8.706  -3.530  26.326  0.00  0.00    +0.107 C 
BRANCH   7   8
ATOM      8  C   UNL     1       7.187  -3.579  26.428  0.00  0.00    +0.105 C 
BRANCH   8  11
ATOM      9  N   UNL     1       5.371  -5.096  26.884  0.00  0.00    -0.315 N 
ATOM     10  H   UNL     1       4.856  -4.252  27.102  0.00  0.00    +0.149 HD
ATOM     11  C   UNL     1       6.725  -5.000  26.651  0.00  0.00    +0.213 C 
ATOM     12  O   UNL     1       7.477  -5.966  26.616  0.00  0.00    -0.276 OA
BRANCH   9  13
ATOM     13  C   UNL     1       4.767  -6.374  27.182  0.00  0.00    +0.104 C 
BRANCH  13  14
ATOM     14  C   UNL     1       3.669  -6.744  26.194  0.00  0.00    +0.019 C 
BRANCH  14  15
ATOM     15  C   UNL     1       4.219  -7.125  24.814  0.00  0.00    +0.003 C 
BRANCH  15  16
ATOM     16  C   UNL     1       3.884  -6.098  23.728  0.00  0.00    +0.021 C 
BRANCH  16  17
ATOM     17  C   UNL     1       5.132  -5.513  23.064  0.00  0.00    +0.139 C 
BRANCH  17  20
ATOM     18  C   UNL     1       6.216  -1.842  23.057  0.00  0.00    +0.111 C 
ATOM     19  C   UNL     1       6.244  -3.312  22.735  0.00  0.00    +0.235 C 
ATOM     20  N   UNL     1       5.276  -4.087  23.316  0.00  0.00    -0.184 N 
ATOM     21  O   UNL     1       7.085  -3.763  21.959  0.00  0.00    -0.274 OA
BRANCH  20  22
ATOM     22  O   UNL     1       4.387  -3.639  24.308  0.00  0.00    -0.292 OA
ATOM     23  H   UNL     1       3.747  -4.357  24.437  0.00  0.00    +0.242 HD
ENDBRANCH  20  22
ENDBRANCH  17  20
ENDBRANCH  16  17
ENDBRANCH  15  16
ENDBRANCH  14  15
ENDBRANCH  13  14
ENDBRANCH   9  13
ENDBRANCH   8  11
ENDBRANCH   7   8
ENDBRANCH   2   7
ENDBRANCH   1   3
BRANCH   1  24
ATOM     24  C   UNL     1      10.269  -0.522  22.789  0.00  0.00    +0.021 C 
BRANCH  24  25
ATOM     25  C   UNL     1       9.415   0.036  21.644  0.00  0.00    +0.003 C 
BRANCH  25  26
ATOM     26  C   UNL     1       9.273   1.562  21.676  0.00  0.00    +0.019 C 
BRANCH  26  27
ATOM     27  C   UNL     1      10.353   2.209  22.541  0.00  0.00    +0.104 C 
BRANCH  27  28
ATOM     28  N   UNL     1       9.848   3.371  23.247  0.00  0.00    -0.315 N 
ATOM     29  H   UNL     1       8.849   3.450  23.394  0.00  0.00    +0.149 HD
ATOM     30  C   UNL     1      10.665   4.437  23.552  0.00  0.00    +0.213 C 
ATOM     31  O   UNL     1      11.864   4.469  23.281  0.00  0.00    -0.276 OA
BRANCH  30  32
ATOM     32  C   UNL     1       9.969   5.581  24.257  0.00  0.00    +0.105 C 
BRANCH  32  33
ATOM     33  C   UNL     1       9.116   6.346  23.256  0.00  0.00    +0.107 C 
BRANCH  33  34
ATOM     34  C   UNL     1       7.648   6.205  23.592  0.00  0.00    +0.238 C 
ATOM     35  N   UNL     1       6.959   5.159  23.022  0.00  0.00    -0.184 N 
ATOM     36  O   UNL     1       7.141   6.964  24.425  0.00  0.00    -0.274 OA
BRANCH  35  37
ATOM     37  O   UNL     1       7.422   4.622  21.804  0.00  0.00    -0.292 OA
ATOM     38  H   UNL     1       6.656   4.112  21.485  0.00  0.00    +0.242 HD
ENDBRANCH  35  37
BRANCH  35  39
ATOM     39  C   UNL     1       5.523   4.970  23.208  0.00  0.00    +0.139 C 
BRANCH  39  40
ATOM     40  C   UNL     1       5.204   3.994  24.342  0.00  0.00    +0.021 C 
BRANCH  40  41
ATOM     41  C   UNL     1       5.063   2.554  23.837  0.00  0.00    +0.003 C 
BRANCH  41  42
ATOM     42  C   UNL     1       6.382   1.783  23.948  0.00  0.00    +0.015 C 
BRANCH  42  43
ATOM     43  C   UNL     1       6.851   1.624  25.396  0.00  0.00    +0.077 C 
BRANCH  43  44
ATOM     44  N   UNL     1       8.271   1.921  25.541  0.00  0.00    -0.330 NA
ATOM     45  H   UNL     1       8.796   1.435  24.817  0.00  0.00    +0.118 HD
ATOM     46  H   UNL     1       8.431   2.917  25.394  0.00  0.00    +0.118 HD
ENDBRANCH  43  44
ENDBRANCH  42  43
ENDBRANCH  41  42
ENDBRANCH  40  41
ENDBRANCH  39  40
ENDBRANCH  35  39
ENDBRANCH  33  34
ENDBRANCH  32  33
ENDBRANCH  30  32
ENDBRANCH  27  28
ENDBRANCH  26  27
ENDBRANCH  25  26
ENDBRANCH  24  25
ENDBRANCH   1  24
TORSDOF 27
ENDMDL
MODEL 5
REMARK VINA RESULT:      -5.7      2.013      4.638
REMARK  Name = 
REMARK  28 active torsions:
REMARK  status: ('A' for Active; 'I' for Inactive)
REMARK    1  A    between atoms: C_1  and  C_2
REMARK    2  A    between atoms: N_4  and  O_5
REMARK    3  A    between atoms: N_4  and  C_6
REMARK    4  A    between atoms: C_6  and  C_7
REMARK    5  A    between atoms: C_7  and  C_8
REMARK    6  A    between atoms: C_8  and  C_9
REMARK    7  A    between atoms: C_9  and  C_10
REMARK    8  A    between atoms: C_10  and  N_11
REMARK    9  A    between atoms: C_12  and  C_14
REMARK   10  A    between atoms: C_14  and  C_15
REMARK   11  A    between atoms: C_15  and  C_16
REMARK   12  A    between atoms: N_18  and  O_19
REMARK   13  A    between atoms: N_18  and  C_20
REMARK   14  A    between atoms: C_20  and  C_21
REMARK   15  A    between atoms: C_21  and  C_22
REMARK   16  A    between atoms: C_22  and  C_23
REMARK   17  A    between atoms: C_23  and  C_24
REMARK   18  A    between atoms: C_24  and  N_25
REMARK   19  A    between atoms: C_26  and  C_28
REMARK   20  A    between atoms: C_28  and  C_29
REMARK   21  A    between atoms: C_29  and  C_30
REMARK   22  A    between atoms: N_32  and  O_33
REMARK   23  A    between atoms: N_32  and  C_34
REMARK   24  A    between atoms: C_34  and  C_35
REMARK   25  A    between atoms: C_35  and  C_36
REMARK   26  A    between atoms: C_36  and  C_37
REMARK   27  A    between atoms: C_37  and  C_38
REMARK   28  A    between atoms: C_38  and  N_39
REMARK                            x       y       z     vdW  Elec       q    Type
REMARK                         _______ _______ _______ _____ _____    ______ ____
ROOT
ATOM      1  C   UNL     1       9.817  -1.901  22.781  0.00  0.00    +0.139 C 
ENDROOT
BRANCH   1   3
ATOM      2  C   UNL     1       8.989  -3.589  24.417  0.00  0.00    +0.238 C 
ATOM      3  N   UNL     1       8.769  -2.539  23.564  0.00  0.00    -0.184 N 
ATOM      4  O   UNL     1      10.100  -4.102  24.567  0.00  0.00    -0.274 OA
BRANCH   3   5
ATOM      5  O   UNL     1       7.504  -2.003  23.273  0.00  0.00    -0.292 OA
ATOM      6  H   UNL     1       7.016  -1.975  24.112  0.00  0.00    +0.242 HD
ENDBRANCH   3   5
BRANCH   2   7
ATOM      7  C   UNL     1       7.791  -4.065  25.207  0.00  0.00    +0.107 C 
BRANCH   7   8
ATOM      8  C   UNL     1       8.179  -5.032  26.319  0.00  0.00    +0.105 C 
BRANCH   8  11
ATOM      9  N   UNL     1       6.059  -6.174  26.239  0.00  0.00    -0.315 N 
ATOM     10  H   UNL     1       6.177  -6.109  25.236  0.00  0.00    +0.149 HD
ATOM     11  C   UNL     1       6.946  -5.504  27.053  0.00  0.00    +0.213 C 
ATOM     12  O   UNL     1       6.763  -5.320  28.249  0.00  0.00    -0.276 OA
BRANCH   9  13
ATOM     13  C   UNL     1       4.795  -6.640  26.761  0.00  0.00    +0.104 C 
BRANCH  13  14
ATOM     14  C   UNL     1       3.761  -6.867  25.666  0.00  0.00    +0.019 C 
BRANCH  14  15
ATOM     15  C   UNL     1       2.935  -5.611  25.362  0.00  0.00    +0.003 C 
BRANCH  15  16
ATOM     16  C   UNL     1       3.154  -5.076  23.943  0.00  0.00    +0.021 C 
BRANCH  16  17
ATOM     17  C   UNL     1       4.373  -4.157  23.842  0.00  0.00    +0.139 C 
BRANCH  17  20
ATOM     18  C   UNL     1       6.534  -5.688  21.077  0.00  0.00    +0.111 C 
ATOM     19  C   UNL     1       5.824  -5.574  22.400  0.00  0.00    +0.235 C 
ATOM     20  N   UNL     1       5.153  -4.403  22.638  0.00  0.00    -0.184 N 
ATOM     21  O   UNL     1       5.833  -6.513  23.194  0.00  0.00    -0.274 OA
BRANCH  20  22
ATOM     22  O   UNL     1       5.230  -3.262  21.823  0.00  0.00    -0.292 OA
ATOM     23  H   UNL     1       4.423  -2.752  21.999  0.00  0.00    +0.242 HD
ENDBRANCH  20  22
ENDBRANCH  17  20
ENDBRANCH  16  17
ENDBRANCH  15  16
ENDBRANCH  14  15
ENDBRANCH  13  14
ENDBRANCH   9  13
ENDBRANCH   8  11
ENDBRANCH   7   8
ENDBRANCH   2   7
ENDBRANCH   1   3
BRANCH   1  24
ATOM     24  C   UNL     1       9.271  -1.198  21.537  0.00  0.00    +0.021 C 
BRANCH  24  25
ATOM     25  C   UNL     1       9.489   0.319  21.570  0.00  0.00    +0.003 C 
BRANCH  25  26
ATOM     26  C   UNL     1      10.181   0.809  22.847  0.00  0.00    +0.019 C 
BRANCH  26  27
ATOM     27  C   UNL     1      10.215   2.335  22.918  0.00  0.00    +0.104 C 
BRANCH  27  28
ATOM     28  N   UNL     1       8.979   2.921  22.436  0.00  0.00    -0.315 N 
ATOM     29  H   UNL     1       8.673   2.697  21.497  0.00  0.00    +0.149 HD
ATOM     30  C   UNL     1       8.324   3.903  23.146  0.00  0.00    +0.213 C 
ATOM     31  O   UNL     1       8.714   4.324  24.234  0.00  0.00    -0.276 OA
BRANCH  30  32
ATOM     32  C   UNL     1       7.071   4.429  22.483  0.00  0.00    +0.105 C 
BRANCH  32  33
ATOM     33  C   UNL     1       6.089   3.284  22.277  0.00  0.00    +0.107 C 
BRANCH  33  34
ATOM     34  C   UNL     1       5.491   2.854  23.598  0.00  0.00    +0.238 C 
ATOM     35  N   UNL     1       5.854   1.622  24.094  0.00  0.00    -0.184 N 
ATOM     36  O   UNL     1       4.779   3.644  24.228  0.00  0.00    -0.274 OA
BRANCH  35  37
ATOM     37  O   UNL     1       6.278   0.625  23.194  0.00  0.00    -0.292 OA
ATOM     38  H   UNL     1       6.742   1.135  22.505  0.00  0.00    +0.242 HD
ENDBRANCH  35  37
BRANCH  35  39
ATOM     39  C   UNL     1       5.279   1.067  25.316  0.00  0.00    +0.139 C 
BRANCH  39  40
ATOM     40  C   UNL     1       6.087  -0.114  25.858  0.00  0.00    +0.021 C 
BRANCH  40  41
ATOM     41  C   UNL     1       5.243  -1.390  25.955  0.00  0.00    +0.003 C 
BRANCH  41  42
ATOM     42  C   UNL     1       4.473  -1.461  27.277  0.00  0.00    +0.015 C 
BRANCH  42  43
ATOM     43  C   UNL     1       3.876  -2.847  27.535  0.00  0.00    +0.077 C 
BRANCH  43  44
ATOM     44  N   UNL     1       4.435  -3.462  28.733  0.00  0.00    -0.330 NA
ATOM     45  H   UNL     1       4.325  -4.473  28.680  0.00  0.00    +0.118 HD
ATOM     46  H   UNL     1       5.438  -3.283  28.776  0.00  0.00    +0.118 HD
ENDBRANCH  43  44
ENDBRANCH  42  43
ENDBRANCH  41  42
ENDBRANCH  40  41
ENDBRANCH  39  40
ENDBRANCH  35  39
ENDBRANCH  33  34
ENDBRANCH  32  33
ENDBRANCH  30  32
ENDBRANCH  27  28
ENDBRANCH  26  27
ENDBRANCH  25  26
ENDBRANCH  24  25
ENDBRANCH   1  24
TORSDOF 27
ENDMDL
MODEL 6
REMARK VINA RESULT:      -5.6      1.447      3.599
REMARK  Name = 
REMARK  28 active torsions:
REMARK  status: ('A' for Active; 'I' for Inactive)
REMARK    1  A    between atoms: C_1  and  C_2
REMARK    2  A    between atoms: N_4  and  O_5
REMARK    3  A    between atoms: N_4  and  C_6
REMARK    4  A    between atoms: C_6  and  C_7
REMARK    5  A    between atoms: C_7  and  C_8
REMARK    6  A    between atoms: C_8  and  C_9
REMARK    7  A    between atoms: C_9  and  C_10
REMARK    8  A    between atoms: C_10  and  N_11
REMARK    9  A    between atoms: C_12  and  C_14
REMARK   10  A    between atoms: C_14  and  C_15
REMARK   11  A    between atoms: C_15  and  C_16
REMARK   12  A    between atoms: N_18  and  O_19
REMARK   13  A    between atoms: N_18  and  C_20
REMARK   14  A    between atoms: C_20  and  C_21
REMARK   15  A    between atoms: C_21  and  C_22
REMARK   16  A    between atoms: C_22  and  C_23
REMARK   17  A    between atoms: C_23  and  C_24
REMARK   18  A    between atoms: C_24  and  N_25
REMARK   19  A    between atoms: C_26  and  C_28
REMARK   20  A    between atoms: C_28  and  C_29
REMARK   21  A    between atoms: C_29  and  C_30
REMARK   22  A    between atoms: N_32  and  O_33
REMARK   23  A    between atoms: N_32  and  C_34
REMARK   24  A    between atoms: C_34  and  C_35
REMARK   25  A    between atoms: C_35  and  C_36
REMARK   26  A    between atoms: C_36  and  C_37
REMARK   27  A    between atoms: C_37  and  C_38
REMARK   28  A    between atoms: C_38  and  N_39
REMARK                            x       y       z     vdW  Elec       q    Type
REMARK                         _______ _______ _______ _____ _____    ______ ____
ROOT
ATOM      1  C   UNL     1       9.917  -0.976  22.535  0.00  0.00    +0.139 C 
ENDROOT
BRANCH   1   3
ATOM      2  C   UNL     1       9.118  -2.994  23.759  0.00  0.00    +0.238 C 
ATOM      3  N   UNL     1       8.882  -1.905  22.960  0.00  0.00    -0.184 N 
ATOM      4  O   UNL     1      10.245  -3.292  24.160  0.00  0.00    -0.274 OA
BRANCH   3   5
ATOM      5  O   UNL     1       7.638  -1.596  22.385  0.00  0.00    -0.292 OA
ATOM      6  H   UNL     1       7.418  -2.332  21.791  0.00  0.00    +0.242 HD
ENDBRANCH   3   5
BRANCH   2   7
ATOM      7  C   UNL     1       7.903  -3.797  24.164  0.00  0.00    +0.107 C 
BRANCH   7   8
ATOM      8  C   UNL     1       8.268  -5.017  25.000  0.00  0.00    +0.105 C 
BRANCH   8  11
ATOM      9  N   UNL     1       6.432  -6.017  26.196  0.00  0.00    -0.315 N 
ATOM     10  H   UNL     1       6.207  -6.432  25.301  0.00  0.00    +0.149 HD
ATOM     11  C   UNL     1       7.424  -5.063  26.252  0.00  0.00    +0.213 C 
ATOM     12  O   UNL     1       7.611  -4.336  27.218  0.00  0.00    -0.276 OA
BRANCH   9  13
ATOM     13  C   UNL     1       5.488  -6.157  27.282  0.00  0.00    +0.104 C 
BRANCH  13  14
ATOM     14  C   UNL     1       4.075  -6.443  26.792  0.00  0.00    +0.019 C 
BRANCH  14  15
ATOM     15  C   UNL     1       3.430  -5.233  26.107  0.00  0.00    +0.003 C 
BRANCH  15  16
ATOM     16  C   UNL     1       3.202  -5.442  24.606  0.00  0.00    +0.021 C 
BRANCH  16  17
ATOM     17  C   UNL     1       4.127  -4.581  23.744  0.00  0.00    +0.139 C 
BRANCH  17  20
ATOM     18  C   UNL     1       6.673  -5.846  21.181  0.00  0.00    +0.111 C 
ATOM     19  C   UNL     1       5.706  -4.905  21.849  0.00  0.00    +0.235 C 
ATOM     20  N   UNL     1       5.051  -5.380  22.954  0.00  0.00    -0.184 N 
ATOM     21  O   UNL     1       5.557  -3.761  21.424  0.00  0.00    -0.274 OA
BRANCH  20  22
ATOM     22  O   UNL     1       5.090  -6.716  23.389  0.00  0.00    -0.292 OA
ATOM     23  H   UNL     1       5.360  -7.240  22.618  0.00  0.00    +0.242 HD
ENDBRANCH  20  22
ENDBRANCH  17  20
ENDBRANCH  16  17
ENDBRANCH  15  16
ENDBRANCH  14  15
ENDBRANCH  13  14
ENDBRANCH   9  13
ENDBRANCH   8  11
ENDBRANCH   7   8
ENDBRANCH   2   7
ENDBRANCH   1   3
BRANCH   1  24
ATOM     24  C   UNL     1       9.416   0.018  21.485  0.00  0.00    +0.021 C 
BRANCH  24  25
ATOM     25  C   UNL     1       9.667   1.478  21.883  0.00  0.00    +0.003 C 
BRANCH  25  26
ATOM     26  C   UNL     1      10.282   1.633  23.279  0.00  0.00    +0.019 C 
BRANCH  26  27
ATOM     27  C   UNL     1      10.959   2.992  23.447  0.00  0.00    +0.104 C 
BRANCH  27  28
ATOM     28  N   UNL     1      10.009   4.081  23.327  0.00  0.00    -0.315 N 
ATOM     29  H   UNL     1       9.122   3.901  22.873  0.00  0.00    +0.149 HD
ATOM     30  C   UNL     1      10.357   5.376  23.644  0.00  0.00    +0.213 C 
ATOM     31  O   UNL     1      11.466   5.692  24.072  0.00  0.00    -0.276 OA
BRANCH  30  32
ATOM     32  C   UNL     1       9.259   6.394  23.426  0.00  0.00    +0.105 C 
BRANCH  32  33
ATOM     33  C   UNL     1       8.241   6.286  24.552  0.00  0.00    +0.107 C 
BRANCH  33  34
ATOM     34  C   UNL     1       7.093   5.388  24.147  0.00  0.00    +0.238 C 
ATOM     35  N   UNL     1       6.883   4.245  24.885  0.00  0.00    -0.184 N 
ATOM     36  O   UNL     1       6.333   5.747  23.241  0.00  0.00    -0.274 OA
BRANCH  35  37
ATOM     37  O   UNL     1       7.970   3.672  25.575  0.00  0.00    -0.292 OA
ATOM     38  H   UNL     1       8.699   3.743  24.931  0.00  0.00    +0.242 HD
ENDBRANCH  35  37
BRANCH  35  39
ATOM     39  C   UNL     1       5.859   3.264  24.538  0.00  0.00    +0.139 C 
BRANCH  39  40
ATOM     40  C   UNL     1       5.748   2.144  25.575  0.00  0.00    +0.021 C 
BRANCH  40  41
ATOM     41  C   UNL     1       6.070   0.771  24.973  0.00  0.00    +0.003 C 
BRANCH  41  42
ATOM     42  C   UNL     1       7.442   0.262  25.424  0.00  0.00    +0.015 C 
BRANCH  42  43
ATOM     43  C   UNL     1       7.341  -0.871  26.448  0.00  0.00    +0.077 C 
BRANCH  43  44
ATOM     44  N   UNL     1       8.656  -1.376  26.828  0.00  0.00    -0.330 NA
ATOM     45  H   UNL     1       8.611  -1.772  27.765  0.00  0.00    +0.118 HD
ATOM     46  H   UNL     1       8.926  -2.137  26.206  0.00  0.00    +0.118 HD
ENDBRANCH  43  44
ENDBRANCH  42  43
ENDBRANCH  41  42
ENDBRANCH  40  41
ENDBRANCH  39  40
ENDBRANCH  35  39
ENDBRANCH  33  34
ENDBRANCH  32  33
ENDBRANCH  30  32
ENDBRANCH  27  28
ENDBRANCH  26  27
ENDBRANCH  25  26
ENDBRANCH  24  25
ENDBRANCH   1  24
TORSDOF 27
ENDMDL
MODEL 7
REMARK VINA RESULT:      -5.6      2.514      4.151
REMARK  Name = 
REMARK  28 active torsions:
REMARK  status: ('A' for Active; 'I' for Inactive)
REMARK    1  A    between atoms: C_1  and  C_2
REMARK    2  A    between atoms: N_4  and  O_5
REMARK    3  A    between atoms: N_4  and  C_6
REMARK    4  A    between atoms: C_6  and  C_7
REMARK    5  A    between atoms: C_7  and  C_8
REMARK    6  A    between atoms: C_8  and  C_9
REMARK    7  A    between atoms: C_9  and  C_10
REMARK    8  A    between atoms: C_10  and  N_11
REMARK    9  A    between atoms: C_12  and  C_14
REMARK   10  A    between atoms: C_14  and  C_15
REMARK   11  A    between atoms: C_15  and  C_16
REMARK   12  A    between atoms: N_18  and  O_19
REMARK   13  A    between atoms: N_18  and  C_20
REMARK   14  A    between atoms: C_20  and  C_21
REMARK   15  A    between atoms: C_21  and  C_22
REMARK   16  A    between atoms: C_22  and  C_23
REMARK   17  A    between atoms: C_23  and  C_24
REMARK   18  A    between atoms: C_24  and  N_25
REMARK   19  A    between atoms: C_26  and  C_28
REMARK   20  A    between atoms: C_28  and  C_29
REMARK   21  A    between atoms: C_29  and  C_30
REMARK   22  A    between atoms: N_32  and  O_33
REMARK   23  A    between atoms: N_32  and  C_34
REMARK   24  A    between atoms: C_34  and  C_35
REMARK   25  A    between atoms: C_35  and  C_36
REMARK   26  A    between atoms: C_36  and  C_37
REMARK   27  A    between atoms: C_37  and  C_38
REMARK   28  A    between atoms: C_38  and  N_39
REMARK                            x       y       z     vdW  Elec       q    Type
REMARK                         _______ _______ _______ _____ _____    ______ ____
ROOT
ATOM      1  C   UNL     1       9.818  -1.517  23.358  0.00  0.00    +0.139 C 
ENDROOT
BRANCH   1   3
ATOM      2  C   UNL     1       9.304  -3.338  24.979  0.00  0.00    +0.238 C 
ATOM      3  N   UNL     1       9.074  -2.086  24.471  0.00  0.00    -0.184 N 
ATOM      4  O   UNL     1      10.150  -4.101  24.508  0.00  0.00    -0.274 OA
BRANCH   3   5
ATOM      5  O   UNL     1       8.043  -1.232  24.897  0.00  0.00    -0.292 OA
ATOM      6  H   UNL     1       8.242  -0.355  24.530  0.00  0.00    +0.242 HD
ENDBRANCH   3   5
BRANCH   2   7
ATOM      7  C   UNL     1       8.486  -3.723  26.191  0.00  0.00    +0.107 C 
BRANCH   7   8
ATOM      8  C   UNL     1       8.285  -5.230  26.297  0.00  0.00    +0.105 C 
BRANCH   8  11
ATOM      9  N   UNL     1       5.880  -5.278  26.435  0.00  0.00    -0.315 N 
ATOM     10  H   UNL     1       5.922  -4.729  25.586  0.00  0.00    +0.149 HD
ATOM     11  C   UNL     1       7.051  -5.535  27.113  0.00  0.00    +0.213 C 
ATOM     12  O   UNL     1       7.090  -5.975  28.255  0.00  0.00    -0.276 OA
BRANCH   9  13
ATOM     13  C   UNL     1       4.602  -5.453  27.086  0.00  0.00    +0.104 C 
BRANCH  13  14
ATOM     14  C   UNL     1       3.837  -6.657  26.555  0.00  0.00    +0.019 C 
BRANCH  14  15
ATOM     15  C   UNL     1       4.211  -7.005  25.109  0.00  0.00    +0.003 C 
BRANCH  15  16
ATOM     16  C   UNL     1       3.213  -6.458  24.082  0.00  0.00    +0.021 C 
BRANCH  16  17
ATOM     17  C   UNL     1       3.661  -5.126  23.479  0.00  0.00    +0.139 C 
BRANCH  17  20
ATOM     18  C   UNL     1       7.278  -4.673  22.310  0.00  0.00    +0.111 C 
ATOM     19  C   UNL     1       6.000  -4.392  23.055  0.00  0.00    +0.235 C 
ATOM     20  N   UNL     1       4.945  -5.228  22.802  0.00  0.00    -0.184 N 
ATOM     21  O   UNL     1       5.945  -3.472  23.870  0.00  0.00    -0.274 OA
BRANCH  20  22
ATOM     22  O   UNL     1       4.924  -6.198  21.786  0.00  0.00    -0.292 OA
ATOM     23  H   UNL     1       5.798  -6.622  21.803  0.00  0.00    +0.242 HD
ENDBRANCH  20  22
ENDBRANCH  17  20
ENDBRANCH  16  17
ENDBRANCH  15  16
ENDBRANCH  14  15
ENDBRANCH  13  14
ENDBRANCH   9  13
ENDBRANCH   8  11
ENDBRANCH   7   8
ENDBRANCH   2   7
ENDBRANCH   1   3
BRANCH   1  24
ATOM     24  C   UNL     1       8.998  -1.470  22.068  0.00  0.00    +0.021 C 
BRANCH  24  25
ATOM     25  C   UNL     1       9.444  -0.348  21.122  0.00  0.00    +0.003 C 
BRANCH  25  26
ATOM     26  C   UNL     1       8.883   1.027  21.500  0.00  0.00    +0.019 C 
BRANCH  26  27
ATOM     27  C   UNL     1       9.938   1.896  22.182  0.00  0.00    +0.104 C 
BRANCH  27  28
ATOM     28  N   UNL     1       9.332   2.945  22.980  0.00  0.00    -0.315 N 
ATOM     29  H   UNL     1       9.304   3.884  22.603  0.00  0.00    +0.149 HD
ATOM     30  C   UNL     1       8.969   2.731  24.292  0.00  0.00    +0.213 C 
ATOM     31  O   UNL     1       9.100   1.649  24.861  0.00  0.00    -0.276 OA
BRANCH  30  32
ATOM     32  C   UNL     1       8.386   3.941  24.989  0.00  0.00    +0.105 C 
BRANCH  32  33
ATOM     33  C   UNL     1       8.088   5.022  23.959  0.00  0.00    +0.107 C 
BRANCH  33  34
ATOM     34  C   UNL     1       6.595   5.208  23.801  0.00  0.00    +0.238 C 
ATOM     35  N   UNL     1       5.945   4.412  22.885  0.00  0.00    -0.184 N 
ATOM     36  O   UNL     1       5.999   5.988  24.551  0.00  0.00    -0.274 OA
BRANCH  35  37
ATOM     37  O   UNL     1       6.674   3.891  21.798  0.00  0.00    -0.292 OA
ATOM     38  H   UNL     1       6.000   3.823  21.097  0.00  0.00    +0.242 HD
ENDBRANCH  35  37
BRANCH  35  39
ATOM     39  C   UNL     1       4.522   4.558  22.589  0.00  0.00    +0.139 C 
BRANCH  39  40
ATOM     40  C   UNL     1       3.745   3.257  22.799  0.00  0.00    +0.021 C 
BRANCH  40  41
ATOM     41  C   UNL     1       2.379   3.286  22.105  0.00  0.00    +0.003 C 
BRANCH  41  42
ATOM     42  C   UNL     1       2.318   4.362  21.017  0.00  0.00    +0.015 C 
BRANCH  42  43
ATOM     43  C   UNL     1       1.564   3.895  19.770  0.00  0.00    +0.077 C 
BRANCH  43  44
ATOM     44  N   UNL     1       2.419   3.896  18.588  0.00  0.00    -0.330 NA
ATOM     45  H   UNL     1       2.853   2.980  18.482  0.00  0.00    +0.118 HD
ATOM     46  H   UNL     1       1.853   4.045  17.754  0.00  0.00    +0.118 HD
ENDBRANCH  43  44
ENDBRANCH  42  43
ENDBRANCH  41  42
ENDBRANCH  40  41
ENDBRANCH  39  40
ENDBRANCH  35  39
ENDBRANCH  33  34
ENDBRANCH  32  33
ENDBRANCH  30  32
ENDBRANCH  27  28
ENDBRANCH  26  27
ENDBRANCH  25  26
ENDBRANCH  24  25
ENDBRANCH   1  24
TORSDOF 27
ENDMDL
MODEL 8
REMARK VINA RESULT:      -5.6      2.033      9.392
REMARK  Name = 
REMARK  28 active torsions:
REMARK  status: ('A' for Active; 'I' for Inactive)
REMARK    1  A    between atoms: C_1  and  C_2
REMARK    2  A    between atoms: N_4  and  O_5
REMARK    3  A    between atoms: N_4  and  C_6
REMARK    4  A    between atoms: C_6  and  C_7
REMARK    5  A    between atoms: C_7  and  C_8
REMARK    6  A    between atoms: C_8  and  C_9
REMARK    7  A    between atoms: C_9  and  C_10
REMARK    8  A    between atoms: C_10  and  N_11
REMARK    9  A    between atoms: C_12  and  C_14
REMARK   10  A    between atoms: C_14  and  C_15
REMARK   11  A    between atoms: C_15  and  C_16
REMARK   12  A    between atoms: N_18  and  O_19
REMARK   13  A    between atoms: N_18  and  C_20
REMARK   14  A    between atoms: C_20  and  C_21
REMARK   15  A    between atoms: C_21  and  C_22
REMARK   16  A    between atoms: C_22  and  C_23
REMARK   17  A    between atoms: C_23  and  C_24
REMARK   18  A    between atoms: C_24  and  N_25
REMARK   19  A    between atoms: C_26  and  C_28
REMARK   20  A    between atoms: C_28  and  C_29
REMARK   21  A    between atoms: C_29  and  C_30
REMARK   22  A    between atoms: N_32  and  O_33
REMARK   23  A    between atoms: N_32  and  C_34
REMARK   24  A    between atoms: C_34  and  C_35
REMARK   25  A    between atoms: C_35  and  C_36
REMARK   26  A    between atoms: C_36  and  C_37
REMARK   27  A    between atoms: C_37  and  C_38
REMARK   28  A    between atoms: C_38  and  N_39
REMARK                            x       y       z     vdW  Elec       q    Type
REMARK                         _______ _______ _______ _____ _____    ______ ____
ROOT
ATOM      1  C   UNL     1       9.163  -1.576  25.613  0.00  0.00    +0.139 C 
ENDROOT
BRANCH   1   3
ATOM      2  C   UNL     1       9.987  -0.598  23.475  0.00  0.00    +0.238 C 
ATOM      3  N   UNL     1       9.506  -0.456  24.751  0.00  0.00    -0.184 N 
ATOM      4  O   UNL     1      10.199  -1.699  22.963  0.00  0.00    -0.274 OA
BRANCH   3   5
ATOM      5  O   UNL     1       9.363   0.774  25.415  0.00  0.00    -0.292 OA
ATOM      6  H   UNL     1       8.428   0.844  25.668  0.00  0.00    +0.242 HD
ENDBRANCH   3   5
BRANCH   2   7
ATOM      7  C   UNL     1      10.208   0.683  22.702  0.00  0.00    +0.107 C 
BRANCH   7   8
ATOM      8  C   UNL     1       9.251   0.819  21.525  0.00  0.00    +0.105 C 
BRANCH   8  11
ATOM      9  N   UNL     1       7.969   2.844  21.769  0.00  0.00    -0.315 N 
ATOM     10  H   UNL     1       8.847   3.305  21.566  0.00  0.00    +0.149 HD
ATOM     11  C   UNL     1       7.969   1.482  21.969  0.00  0.00    +0.213 C 
ATOM     12  O   UNL     1       7.024   0.868  22.447  0.00  0.00    -0.276 OA
BRANCH   9  13
ATOM     13  C   UNL     1       6.847   3.649  22.195  0.00  0.00    +0.104 C 
BRANCH  13  14
ATOM     14  C   UNL     1       7.243   4.705  23.218  0.00  0.00    +0.019 C 
BRANCH  14  15
ATOM     15  C   UNL     1       7.582   4.105  24.588  0.00  0.00    +0.003 C 
BRANCH  15  16
ATOM     16  C   UNL     1       8.855   4.696  25.204  0.00  0.00    +0.021 C 
BRANCH  16  17
ATOM     17  C   UNL     1       9.559   5.682  24.271  0.00  0.00    +0.139 C 
BRANCH  17  20
ATOM     18  C   UNL     1      13.195   4.985  23.297  0.00  0.00    +0.111 C 
ATOM     19  C   UNL     1      12.017   5.712  23.890  0.00  0.00    +0.235 C 
ATOM     20  N   UNL     1      10.787   5.136  23.714  0.00  0.00    -0.184 N 
ATOM     21  O   UNL     1      12.184   6.752  24.526  0.00  0.00    -0.274 OA
BRANCH  20  22
ATOM     22  O   UNL     1      10.538   4.029  22.884  0.00  0.00    -0.292 OA
ATOM     23  H   UNL     1      11.163   3.340  23.163  0.00  0.00    +0.242 HD
ENDBRANCH  20  22
ENDBRANCH  17  20
ENDBRANCH  16  17
ENDBRANCH  15  16
ENDBRANCH  14  15
ENDBRANCH  13  14
ENDBRANCH   9  13
ENDBRANCH   8  11
ENDBRANCH   7   8
ENDBRANCH   2   7
ENDBRANCH   1   3
BRANCH   1  24
ATOM     24  C   UNL     1       7.793  -1.407  26.275  0.00  0.00    +0.021 C 
BRANCH  24  25
ATOM     25  C   UNL     1       7.201  -2.736  26.760  0.00  0.00    +0.003 C 
BRANCH  25  26
ATOM     26  C   UNL     1       8.088  -3.947  26.452  0.00  0.00    +0.019 C 
BRANCH  26  27
ATOM     27  C   UNL     1       7.407  -5.257  26.848  0.00  0.00    +0.104 C 
BRANCH  27  28
ATOM     28  N   UNL     1       6.311  -5.581  25.955  0.00  0.00    -0.315 N 
ATOM     29  H   UNL     1       6.209  -5.046  25.102  0.00  0.00    +0.149 HD
ATOM     30  C   UNL     1       5.318  -6.461  26.326  0.00  0.00    +0.213 C 
ATOM     31  O   UNL     1       5.305  -7.047  27.407  0.00  0.00    -0.276 OA
BRANCH  30  32
ATOM     32  C   UNL     1       4.233  -6.658  25.291  0.00  0.00    +0.105 C 
BRANCH  32  33
ATOM     33  C   UNL     1       3.468  -5.355  25.107  0.00  0.00    +0.107 C 
BRANCH  33  34
ATOM     34  C   UNL     1       4.018  -4.578  23.932  0.00  0.00    +0.238 C 
ATOM     35  N   UNL     1       4.728  -3.429  24.200  0.00  0.00    -0.184 N 
ATOM     36  O   UNL     1       3.897  -5.036  22.791  0.00  0.00    -0.274 OA
BRANCH  35  37
ATOM     37  O   UNL     1       4.473  -2.737  25.401  0.00  0.00    -0.292 OA
ATOM     38  H   UNL     1       4.824  -1.846  25.218  0.00  0.00    +0.242 HD
ENDBRANCH  35  37
BRANCH  35  39
ATOM     39  C   UNL     1       5.235  -2.555  23.146  0.00  0.00    +0.139 C 
BRANCH  39  40
ATOM     40  C   UNL     1       6.761  -2.598  23.036  0.00  0.00    +0.021 C 
BRANCH  40  41
ATOM     41  C   UNL     1       7.236  -3.690  22.070  0.00  0.00    +0.003 C 
BRANCH  41  42
ATOM     42  C   UNL     1       7.574  -4.990  22.806  0.00  0.00    +0.015 C 
BRANCH  42  43
ATOM     43  C   UNL     1       7.364  -6.231  21.935  0.00  0.00    +0.077 C 
BRANCH  43  44
ATOM     44  N   UNL     1       5.995  -6.727  22.020  0.00  0.00    -0.330 NA
ATOM     45  H   UNL     1       5.414  -6.241  21.340  0.00  0.00    +0.118 HD
ATOM     46  H   UNL     1       5.970  -7.714  21.769  0.00  0.00    +0.118 HD
ENDBRANCH  43  44
ENDBRANCH  42  43
ENDBRANCH  41  42
ENDBRANCH  40  41
ENDBRANCH  39  40
ENDBRANCH  35  39
ENDBRANCH  33  34
ENDBRANCH  32  33
ENDBRANCH  30  32
ENDBRANCH  27  28
ENDBRANCH  26  27
ENDBRANCH  25  26
ENDBRANCH  24  25
ENDBRANCH   1  24
TORSDOF 27
ENDMDL
MODEL 9
REMARK VINA RESULT:      -5.6      2.125      3.528
REMARK  Name = 
REMARK  28 active torsions:
REMARK  status: ('A' for Active; 'I' for Inactive)
REMARK    1  A    between atoms: C_1  and  C_2
REMARK    2  A    between atoms: N_4  and  O_5
REMARK    3  A    between atoms: N_4  and  C_6
REMARK    4  A    between atoms: C_6  and  C_7
REMARK    5  A    between atoms: C_7  and  C_8
REMARK    6  A    between atoms: C_8  and  C_9
REMARK    7  A    between atoms: C_9  and  C_10
REMARK    8  A    between atoms: C_10  and  N_11
REMARK    9  A    between atoms: C_12  and  C_14
REMARK   10  A    between atoms: C_14  and  C_15
REMARK   11  A    between atoms: C_15  and  C_16
REMARK   12  A    between atoms: N_18  and  O_19
REMARK   13  A    between atoms: N_18  and  C_20
REMARK   14  A    between atoms: C_20  and  C_21
REMARK   15  A    between atoms: C_21  and  C_22
REMARK   16  A    between atoms: C_22  and  C_23
REMARK   17  A    between atoms: C_23  and  C_24
REMARK   18  A    between atoms: C_24  and  N_25
REMARK   19  A    between atoms: C_26  and  C_28
REMARK   20  A    between atoms: C_28  and  C_29
REMARK   21  A    between atoms: C_29  and  C_30
REMARK   22  A    between atoms: N_32  and  O_33
REMARK   23  A    between atoms: N_32  and  C_34
REMARK   24  A    between atoms: C_34  and  C_35
REMARK   25  A    between atoms: C_35  and  C_36
REMARK   26  A    between atoms: C_36  and  C_37
REMARK   27  A    between atoms: C_37  and  C_38
REMARK   28  A    between atoms: C_38  and  N_39
REMARK                            x       y       z     vdW  Elec       q    Type
REMARK                         _______ _______ _______ _____ _____    ______ ____
ROOT
ATOM      1  C   UNL     1       7.931  -0.905  24.502  0.00  0.00    +0.139 C 
ENDROOT
BRANCH   1   3
ATOM      2  C   UNL     1       5.878  -1.210  25.880  0.00  0.00    +0.238 C 
ATOM      3  N   UNL     1       7.240  -1.250  25.734  0.00  0.00    -0.184 N 
ATOM      4  O   UNL     1       5.123  -0.844  24.977  0.00  0.00    -0.274 OA
BRANCH   3   5
ATOM      5  O   UNL     1       8.143  -1.545  26.770  0.00  0.00    -0.292 OA
ATOM      6  H   UNL     1       8.252  -0.727  27.282  0.00  0.00    +0.242 HD
ENDBRANCH   3   5
BRANCH   2   7
ATOM      7  C   UNL     1       5.338  -1.685  27.210  0.00  0.00    +0.107 C 
BRANCH   7   8
ATOM      8  C   UNL     1       3.830  -1.894  27.181  0.00  0.00    +0.105 C 
BRANCH   8  11
ATOM      9  N   UNL     1       3.189  -3.408  25.420  0.00  0.00    -0.315 N 
ATOM     10  H   UNL     1       2.984  -2.562  24.905  0.00  0.00    +0.149 HD
ATOM     11  C   UNL     1       3.507  -3.307  26.756  0.00  0.00    +0.213 C 
ATOM     12  O   UNL     1       3.539  -4.264  27.520  0.00  0.00    -0.276 OA
BRANCH   9  13
ATOM     13  C   UNL     1       2.791  -4.678  24.855  0.00  0.00    +0.104 C 
BRANCH  13  14
ATOM     14  C   UNL     1       3.837  -5.247  23.908  0.00  0.00    +0.019 C 
BRANCH  14  15
ATOM     15  C   UNL     1       4.560  -4.161  23.101  0.00  0.00    +0.003 C 
BRANCH  15  16
ATOM     16  C   UNL     1       6.006  -3.937  23.556  0.00  0.00    +0.021 C 
BRANCH  16  17
ATOM     17  C   UNL     1       6.399  -4.831  24.733  0.00  0.00    +0.139 C 
BRANCH  17  20
ATOM     18  C   UNL     1      10.039  -5.117  25.882  0.00  0.00    +0.111 C 
ATOM     19  C   UNL     1       8.570  -4.795  25.948  0.00  0.00    +0.235 C 
ATOM     20  N   UNL     1       7.837  -5.036  24.816  0.00  0.00    -0.184 N 
ATOM     21  O   UNL     1       8.072  -4.371  26.989  0.00  0.00    -0.274 OA
BRANCH  20  22
ATOM     22  O   UNL     1       8.387  -5.388  23.572  0.00  0.00    -0.292 OA
ATOM     23  H   UNL     1       7.706  -5.185  22.911  0.00  0.00    +0.242 HD
ENDBRANCH  20  22
ENDBRANCH  17  20
ENDBRANCH  16  17
ENDBRANCH  15  16
ENDBRANCH  14  15
ENDBRANCH  13  14
ENDBRANCH   9  13
ENDBRANCH   8  11
ENDBRANCH   7   8
ENDBRANCH   2   7
ENDBRANCH   1   3
BRANCH   1  24
ATOM     24  C   UNL     1       9.400  -1.333  24.514  0.00  0.00    +0.021 C 
BRANCH  24  25
ATOM     25  C   UNL     1       9.819  -2.050  23.225  0.00  0.00    +0.003 C 
BRANCH  25  26
ATOM     26  C   UNL     1       9.159  -1.478  21.965  0.00  0.00    +0.019 C 
BRANCH  26  27
ATOM     27  C   UNL     1       9.824  -0.175  21.525  0.00  0.00    +0.104 C 
BRANCH  27  28
ATOM     28  N   UNL     1       8.850   0.879  21.316  0.00  0.00    -0.315 N 
ATOM     29  H   UNL     1       8.355   0.910  20.433  0.00  0.00    +0.149 HD
ATOM     30  C   UNL     1       8.723   1.926  22.202  0.00  0.00    +0.213 C 
ATOM     31  O   UNL     1       9.390   2.027  23.229  0.00  0.00    -0.276 OA
BRANCH  30  32
ATOM     32  C   UNL     1       7.685   2.956  21.813  0.00  0.00    +0.105 C 
BRANCH  32  33
ATOM     33  C   UNL     1       6.866   3.334  23.039  0.00  0.00    +0.107 C 
BRANCH  33  34
ATOM     34  C   UNL     1       7.200   4.739  23.489  0.00  0.00    +0.238 C 
ATOM     35  N   UNL     1       8.116   4.884  24.506  0.00  0.00    -0.184 N 
ATOM     36  O   UNL     1       6.720   5.701  22.879  0.00  0.00    -0.274 OA
BRANCH  35  37
ATOM     37  O   UNL     1       8.286   3.829  25.424  0.00  0.00    -0.292 OA
ATOM     38  H   UNL     1       7.733   3.120  25.046  0.00  0.00    +0.242 HD
ENDBRANCH  35  37
BRANCH  35  39
ATOM     39  C   UNL     1       8.454   6.185  25.078  0.00  0.00    +0.139 C 
BRANCH  39  40
ATOM     40  C   UNL     1       9.964   6.427  25.123  0.00  0.00    +0.021 C 
BRANCH  40  41
ATOM     41  C   UNL     1      10.658   5.968  23.835  0.00  0.00    +0.003 C 
BRANCH  41  42
ATOM     42  C   UNL     1      12.182   5.948  23.989  0.00  0.00    +0.015 C 
BRANCH  42  43
ATOM     43  C   UNL     1      12.883   5.281  22.802  0.00  0.00    +0.077 C 
BRANCH  43  44
ATOM     44  N   UNL     1      14.308   5.095  23.051  0.00  0.00    -0.330 NA
ATOM     45  H   UNL     1      14.698   5.948  23.449  0.00  0.00    +0.118 HD
ATOM     46  H   UNL     1      14.444   4.363  23.747  0.00  0.00    +0.118 HD
ENDBRANCH  43  44
ENDBRANCH  42  43
ENDBRANCH  41  42
ENDBRANCH  40  41
ENDBRANCH  39  40
ENDBRANCH  35  39
ENDBRANCH  33  34
ENDBRANCH  32  33
ENDBRANCH  30  32
ENDBRANCH  27  28
ENDBRANCH  26  27
ENDBRANCH  25  26
ENDBRANCH  24  25
ENDBRANCH   1  24
TORSDOF 27
ENDMDL
