MODEL 1
REMARK VINA RESULT:      -6.8      0.000      0.000
REMARK  Name = 
REMARK  9 active torsions:
REMARK  status: ('A' for Active; 'I' for Inactive)
REMARK    1  A    between atoms: C_1  and  C_2
REMARK    2  A    between atoms: C_2  and  N_4
REMARK    3  A    between atoms: C_7  and  C_8
REMARK    4  A    between atoms: C_9  and  C_11
REMARK    5  A    between atoms: C_13  and  S_18
REMARK    6  A    between atoms: S_18  and  N_21
REMARK    7  A    between atoms: N_21  and  C_22
REMARK    8  A    between atoms: C_22  and  C_23
REMARK    9  A    between atoms: C_23  and  O_24
REMARK                            x       y       z     vdW  Elec       q    Type
REMARK                         _______ _______ _______ _____ _____    ______ ____
ROOT
ATOM      1  C   UNL     1       8.498   1.393  24.692  0.00  0.00    -0.008 A 
ATOM      2  C   UNL     1       7.386   1.434  25.538  0.00  0.00    +0.010 A 
ATOM      3  C   UNL     1       6.864   2.663  25.953  0.00  0.00    +0.022 A 
ATOM      4  C   UNL     1       7.442   3.864  25.527  0.00  0.00    +0.067 A 
ATOM      5 CL   UNL     1       6.702   5.318  26.089  0.00  0.00    -0.082 Cl
ATOM      6  C   UNL     1       8.552   3.824  24.681  0.00  0.00    +0.124 A 
ATOM      7  C   UNL     1       9.076   2.590  24.261  0.00  0.00    +0.039 A 
ENDROOT
BRANCH   1  11
ATOM      8  N   UNL     1       9.658  -3.636  24.201  0.00  0.00    -0.157 NA
ATOM      9  C   UNL     1       9.577  -2.348  24.159  0.00  0.00    +0.164 A 
ATOM     10  S   UNL     1       8.873  -1.249  25.372  0.00  0.00    -0.052 S 
ATOM     11  C   UNL     1       9.066   0.114  24.297  0.00  0.00    +0.041 A 
ATOM     12  C   UNL     1       9.705  -0.223  23.161  0.00  0.00    +0.029 A 
ATOM     13  C   UNL     1      10.013   0.692  22.023  0.00  0.00    +0.064 C 
ATOM     14  N   UNL     1      10.033  -1.570  23.117  0.00  0.00    -0.339 N 
ATOM     15  H   UNL     1      10.362  -2.001  22.265  0.00  0.00    +0.167 HD
BRANCH   8  17
ATOM     16  C   UNL     1       7.657  -4.726  24.976  0.00  0.00    +0.111 C 
ATOM     17  C   UNL     1       9.083  -4.326  25.241  0.00  0.00    +0.235 C 
ATOM     18  O   UNL     1       9.584  -4.506  26.347  0.00  0.00    -0.274 OA
ENDBRANCH   8  17
ENDBRANCH   1  11
BRANCH   6  19
ATOM     19  S   UNL     1       9.394   5.290  24.165  0.00  0.00    +0.060 S 
ATOM     20  O   UNL     1       9.828   6.010  25.346  0.00  0.00    -0.153 OA
ATOM     21  O   UNL     1       8.598   5.944  23.152  0.00  0.00    -0.153 OA
BRANCH  19  22
ATOM     22  N   UNL     1      10.780   4.707  23.398  0.00  0.00    -0.188 NA
ATOM     23  H   UNL     1      10.589   4.631  22.397  0.00  0.00    +0.148 HD
BRANCH  22  24
ATOM     24  C   UNL     1      12.064   5.326  23.783  0.00  0.00    +0.133 C 
BRANCH  24  25
ATOM     25  C   UNL     1      13.042   5.304  22.607  0.00  0.00    +0.172 C 
BRANCH  25  26
ATOM     26  O   UNL     1      14.380   5.120  23.067  0.00  0.00    -0.394 OA
ATOM     27  H   UNL     1      14.971   5.389  22.344  0.00  0.00    +0.209 HD
ENDBRANCH  25  26
ENDBRANCH  24  25
ENDBRANCH  22  24
ENDBRANCH  19  22
ENDBRANCH   6  19
TORSDOF 7
ENDMDL
MODEL 2
REMARK VINA RESULT:      -6.7      4.023      5.614
REMARK  Name = 
REMARK  9 active torsions:
REMARK  status: ('A' for Active; 'I' for Inactive)
REMARK    1  A    between atoms: C_1  and  C_2
REMARK    2  A    between atoms: C_2  and  N_4
REMARK    3  A    between atoms: C_7  and  C_8
REMARK    4  A    between atoms: C_9  and  C_11
REMARK    5  A    between atoms: C_13  and  S_18
REMARK    6  A    between atoms: S_18  and  N_21
REMARK    7  A    between atoms: N_21  and  C_22
REMARK    8  A    between atoms: C_22  and  C_23
REMARK    9  A    between atoms: C_23  and  O_24
REMARK                            x       y       z     vdW  Elec       q    Type
REMARK                         _______ _______ _______ _____ _____    ______ ____
ROOT
ATOM      1  C   UNL     1       8.131  -2.204  23.462  0.00  0.00    -0.008 A 
ATOM      2  C   UNL     1       9.384  -2.203  22.841  0.00  0.00    +0.010 A 
ATOM      3  C   UNL     1       9.935  -1.008  22.371  0.00  0.00    +0.022 A 
ATOM      4  C   UNL     1       9.245   0.201  22.516  0.00  0.00    +0.067 A 
ATOM      5 CL   UNL     1      10.032   1.614  21.913  0.00  0.00    -0.082 Cl
ATOM      6  C   UNL     1       7.994   0.202  23.137  0.00  0.00    +0.124 A 
ATOM      7  C   UNL     1       7.440  -0.998  23.612  0.00  0.00    +0.039 A 
ENDROOT
BRANCH   1  11
ATOM      8  N   UNL     1       6.075  -6.051  26.263  0.00  0.00    -0.157 NA
ATOM      9  C   UNL     1       6.584  -5.272  25.367  0.00  0.00    +0.164 A 
ATOM     10  S   UNL     1       7.636  -3.855  25.608  0.00  0.00    -0.052 S 
ATOM     11  C   UNL     1       7.540  -3.454  23.912  0.00  0.00    +0.041 A 
ATOM     12  C   UNL     1       6.855  -4.377  23.210  0.00  0.00    +0.029 A 
ATOM     13  C   UNL     1       6.568  -4.331  21.747  0.00  0.00    +0.064 C 
ATOM     14  N   UNL     1       6.379  -5.404  24.011  0.00  0.00    -0.339 N 
ATOM     15  H   UNL     1       5.711  -6.075  23.659  0.00  0.00    +0.167 HD
BRANCH   8  17
ATOM     16  C   UNL     1       5.197  -4.880  28.173  0.00  0.00    +0.111 C 
ATOM     17  C   UNL     1       6.260  -5.775  27.596  0.00  0.00    +0.235 C 
ATOM     18  O   UNL     1       7.242  -6.082  28.265  0.00  0.00    -0.274 OA
ENDBRANCH   8  17
ENDBRANCH   1  11
BRANCH   6  19
ATOM     19  S   UNL     1       7.021   1.670  23.285  0.00  0.00    +0.060 S 
ATOM     20  O   UNL     1       6.729   2.163  21.953  0.00  0.00    -0.153 OA
ATOM     21  O   UNL     1       7.631   2.529  24.273  0.00  0.00    -0.153 OA
BRANCH  19  22
ATOM     22  N   UNL     1       5.567   1.121  23.944  0.00  0.00    -0.188 NA
ATOM     23  H   UNL     1       5.668   0.131  24.173  0.00  0.00    +0.148 HD
BRANCH  22  24
ATOM     24  C   UNL     1       4.934   1.977  24.967  0.00  0.00    +0.133 C 
BRANCH  24  25
ATOM     25  C   UNL     1       4.013   3.005  24.309  0.00  0.00    +0.172 C 
BRANCH  25  26
ATOM     26  O   UNL     1       3.772   2.666  22.945  0.00  0.00    -0.394 OA
ATOM     27  H   UNL     1       4.637   2.587  22.511  0.00  0.00    +0.209 HD
ENDBRANCH  25  26
ENDBRANCH  24  25
ENDBRANCH  22  24
ENDBRANCH  19  22
ENDBRANCH   6  19
TORSDOF 7
ENDMDL
MODEL 3
REMARK VINA RESULT:      -6.6      4.100      6.058
REMARK  Name = 
REMARK  9 active torsions:
REMARK  status: ('A' for Active; 'I' for Inactive)
REMARK    1  A    between atoms: C_1  and  C_2
REMARK    2  A    between atoms: C_2  and  N_4
REMARK    3  A    between atoms: C_7  and  C_8
REMARK    4  A    between atoms: C_9  and  C_11
REMARK    5  A    between atoms: C_13  and  S_18
REMARK    6  A    between atoms: S_18  and  N_21
REMARK    7  A    between atoms: N_21  and  C_22
REMARK    8  A    between atoms: C_22  and  C_23
REMARK    9  A    between atoms: C_23  and  O_24
REMARK                            x       y       z     vdW  Elec       q    Type
REMARK                         _______ _______ _______ _____ _____    ______ ____
ROOT
ATOM      1  C   UNL     1       7.919  -2.927  24.248  0.00  0.00    -0.008 A 
ATOM      2  C   UNL     1       8.142  -3.172  22.890  0.00  0.00    +0.010 A 
ATOM      3  C   UNL     1       8.587  -2.144  22.055  0.00  0.00    +0.022 A 
ATOM      4  C   UNL     1       8.818  -0.860  22.564  0.00  0.00    +0.067 A 
ATOM      5 CL   UNL     1       9.383   0.324  21.442  0.00  0.00    -0.082 Cl
ATOM      6  C   UNL     1       8.597  -0.615  23.921  0.00  0.00    +0.124 A 
ATOM      7  C   UNL     1       8.152  -1.649  24.762  0.00  0.00    +0.039 A 
ENDROOT
BRANCH   1  11
ATOM      8  N   UNL     1       5.204  -6.822  26.331  0.00  0.00    -0.157 NA
ATOM      9  C   UNL     1       6.010  -5.854  26.046  0.00  0.00    +0.164 A 
ATOM     10  S   UNL     1       5.770  -4.528  24.880  0.00  0.00    -0.052 S 
ATOM     11  C   UNL     1       7.415  -3.987  25.107  0.00  0.00    +0.041 A 
ATOM     12  C   UNL     1       8.052  -4.690  26.063  0.00  0.00    +0.029 A 
ATOM     13  C   UNL     1       9.469  -4.502  26.491  0.00  0.00    +0.064 C 
ATOM     14  N   UNL     1       7.253  -5.680  26.614  0.00  0.00    -0.339 N 
ATOM     15  H   UNL     1       7.642  -6.390  27.218  0.00  0.00    +0.167 HD
BRANCH   8  17
ATOM     16  C   UNL     1       2.838  -6.385  26.352  0.00  0.00    +0.111 C 
ATOM     17  C   UNL     1       4.028  -6.962  25.636  0.00  0.00    +0.235 C 
ATOM     18  O   UNL     1       3.878  -7.603  24.600  0.00  0.00    -0.274 OA
ENDBRANCH   8  17
ENDBRANCH   1  11
BRANCH   6  19
ATOM     19  S   UNL     1       8.783   0.994  24.627  0.00  0.00    +0.060 S 
ATOM     20  O   UNL     1       8.002   1.932  23.844  0.00  0.00    -0.153 OA
ATOM     21  O   UNL     1      10.186   1.228  24.875  0.00  0.00    -0.153 OA
BRANCH  19  22
ATOM     22  N   UNL     1       8.035   0.858  26.134  0.00  0.00    -0.188 NA
ATOM     23  H   UNL     1       8.739   0.998  26.860  0.00  0.00    +0.148 HD
BRANCH  22  24
ATOM     24  C   UNL     1       6.753   1.572  26.308  0.00  0.00    +0.133 C 
BRANCH  24  25
ATOM     25  C   UNL     1       5.580   0.662  25.943  0.00  0.00    +0.172 C 
BRANCH  25  26
ATOM     26  O   UNL     1       5.212   0.838  24.576  0.00  0.00    -0.394 OA
ATOM     27  H   UNL     1       5.933   1.325  24.145  0.00  0.00    +0.209 HD
ENDBRANCH  25  26
ENDBRANCH  24  25
ENDBRANCH  22  24
ENDBRANCH  19  22
ENDBRANCH   6  19
TORSDOF 7
ENDMDL
MODEL 4
REMARK VINA RESULT:      -6.5      3.372      4.826
REMARK  Name = 
REMARK  9 active torsions:
REMARK  status: ('A' for Active; 'I' for Inactive)
REMARK    1  A    between atoms: C_1  and  C_2
REMARK    2  A    between atoms: C_2  and  N_4
REMARK    3  A    between atoms: C_7  and  C_8
REMARK    4  A    between atoms: C_9  and  C_11
REMARK    5  A    between atoms: C_13  and  S_18
REMARK    6  A    between atoms: S_18  and  N_21
REMARK    7  A    between atoms: N_21  and  C_22
REMARK    8  A    between atoms: C_22  and  C_23
REMARK    9  A    between atoms: C_23  and  O_24
REMARK                            x       y       z     vdW  Elec       q    Type
REMARK                         _______ _______ _______ _____ _____    ______ ____
ROOT
ATOM      1  C   UNL     1       8.232  -2.238  23.529  0.00  0.00    -0.008 A 
ATOM      2  C   UNL     1       9.520  -2.233  22.985  0.00  0.00    +0.010 A 
ATOM      3  C   UNL     1      10.076  -1.043  22.510  0.00  0.00    +0.022 A 
ATOM      4  C   UNL     1       9.357   0.157  22.572  0.00  0.00    +0.067 A 
ATOM      5 CL   UNL     1      10.153   1.565  21.972  0.00  0.00    -0.082 Cl
ATOM      6  C   UNL     1       8.071   0.153  23.117  0.00  0.00    +0.124 A 
ATOM      7  C   UNL     1       7.512  -1.043  23.598  0.00  0.00    +0.039 A 
ENDROOT
BRANCH   1  11
ATOM      8  N   UNL     1       6.131  -6.055  26.339  0.00  0.00    -0.157 NA
ATOM      9  C   UNL     1       6.656  -5.287  25.444  0.00  0.00    +0.164 A 
ATOM     10  S   UNL     1       7.694  -3.859  25.689  0.00  0.00    -0.052 S 
ATOM     11  C   UNL     1       7.638  -3.486  23.984  0.00  0.00    +0.041 A 
ATOM     12  C   UNL     1       6.976  -4.424  23.280  0.00  0.00    +0.029 A 
ATOM     13  C   UNL     1       6.726  -4.403  21.810  0.00  0.00    +0.064 C 
ATOM     14  N   UNL     1       6.487  -5.441  24.085  0.00  0.00    -0.339 N 
ATOM     15  H   UNL     1       5.831  -6.122  23.727  0.00  0.00    +0.167 HD
BRANCH   8  17
ATOM     16  C   UNL     1       5.277  -4.755  28.175  0.00  0.00    +0.111 C 
ATOM     17  C   UNL     1       6.280  -5.757  27.672  0.00  0.00    +0.235 C 
ATOM     18  O   UNL     1       7.201  -6.129  28.393  0.00  0.00    -0.274 OA
ENDBRANCH   8  17
ENDBRANCH   1  11
BRANCH   6  19
ATOM     19  S   UNL     1       7.064   1.604  23.158  0.00  0.00    +0.060 S 
ATOM     20  O   UNL     1       5.874   1.315  23.933  0.00  0.00    -0.153 OA
ATOM     21  O   UNL     1       6.962   2.131  21.816  0.00  0.00    -0.153 OA
BRANCH  19  22
ATOM     22  N   UNL     1       7.984   2.705  24.048  0.00  0.00    -0.188 NA
ATOM     23  H   UNL     1       8.955   2.641  23.738  0.00  0.00    +0.148 HD
BRANCH  22  24
ATOM     24  C   UNL     1       7.427   4.063  24.207  0.00  0.00    +0.133 C 
BRANCH  24  25
ATOM     25  C   UNL     1       8.201   5.063  23.348  0.00  0.00    +0.172 C 
BRANCH  25  26
ATOM     26  O   UNL     1       7.795   4.977  21.984  0.00  0.00    -0.394 OA
ATOM     27  H   UNL     1       8.582   4.746  21.463  0.00  0.00    +0.209 HD
ENDBRANCH  25  26
ENDBRANCH  24  25
ENDBRANCH  22  24
ENDBRANCH  19  22
ENDBRANCH   6  19
TORSDOF 7
ENDMDL
MODEL 5
REMARK VINA RESULT:      -6.3      4.292      8.313
REMARK  Name = 
REMARK  9 active torsions:
REMARK  status: ('A' for Active; 'I' for Inactive)
REMARK    1  A    between atoms: C_1  and  C_2
REMARK    2  A    between atoms: C_2  and  N_4
REMARK    3  A    between atoms: C_7  and  C_8
REMARK    4  A    between atoms: C_9  and  C_11
REMARK    5  A    between atoms: C_13  and  S_18
REMARK    6  A    between atoms: S_18  and  N_21
REMARK    7  A    between atoms: N_21  and  C_22
REMARK    8  A    between atoms: C_22  and  C_23
REMARK    9  A    between atoms: C_23  and  O_24
REMARK                            x       y       z     vdW  Elec       q    Type
REMARK                         _______ _______ _______ _____ _____    ______ ____
ROOT
ATOM      1  C   UNL     1       7.791  -0.498  23.982  0.00  0.00    -0.008 A 
ATOM      2  C   UNL     1       8.661  -0.616  25.070  0.00  0.00    +0.010 A 
ATOM      3  C   UNL     1       8.598  -1.736  25.902  0.00  0.00    +0.022 A 
ATOM      4  C   UNL     1       7.669  -2.754  25.659  0.00  0.00    +0.067 A 
ATOM      5 CL   UNL     1       7.695  -4.097  26.743  0.00  0.00    -0.082 Cl
ATOM      6  C   UNL     1       6.800  -2.639  24.572  0.00  0.00    +0.124 A 
ATOM      7  C   UNL     1       6.864  -1.514  23.733  0.00  0.00    +0.039 A 
ENDROOT
BRANCH   1  11
ATOM      8  N   UNL     1       7.298   4.285  22.043  0.00  0.00    -0.157 NA
ATOM      9  C   UNL     1       7.510   3.033  22.281  0.00  0.00    +0.164 A 
ATOM     10  S   UNL     1       6.731   1.997  23.503  0.00  0.00    -0.052 S 
ATOM     11  C   UNL     1       7.829   0.688  23.142  0.00  0.00    +0.041 A 
ATOM     12  C   UNL     1       8.644   0.981  22.111  0.00  0.00    +0.029 A 
ATOM     13  C   UNL     1       9.712   0.097  21.561  0.00  0.00    +0.064 C 
ATOM     14  N   UNL     1       8.424   2.253  21.607  0.00  0.00    -0.339 N 
ATOM     15  H   UNL     1       9.066   2.673  20.948  0.00  0.00    +0.167 HD
BRANCH   8  17
ATOM     16  C   UNL     1       7.111   5.662  24.008  0.00  0.00    +0.111 C 
ATOM     17  C   UNL     1       6.436   4.997  22.839  0.00  0.00    +0.235 C 
ATOM     18  O   UNL     1       5.212   5.014  22.738  0.00  0.00    -0.274 OA
ENDBRANCH   8  17
ENDBRANCH   1  11
BRANCH   6  19
ATOM     19  S   UNL     1       5.542  -3.836  24.244  0.00  0.00    +0.060 S 
ATOM     20  O   UNL     1       4.856  -3.459  23.024  0.00  0.00    -0.153 OA
ATOM     21  O   UNL     1       4.805  -4.075  25.463  0.00  0.00    -0.153 OA
BRANCH  19  22
ATOM     22  N   UNL     1       6.410  -5.247  23.912  0.00  0.00    -0.188 NA
ATOM     23  H   UNL     1       5.763  -6.036  23.927  0.00  0.00    +0.148 HD
BRANCH  22  24
ATOM     24  C   UNL     1       7.363  -5.192  22.786  0.00  0.00    +0.133 C 
BRANCH  24  25
ATOM     25  C   UNL     1       6.811  -5.956  21.581  0.00  0.00    +0.172 C 
BRANCH  25  26
ATOM     26  O   UNL     1       5.960  -5.120  20.800  0.00  0.00    -0.394 OA
ATOM     27  H   UNL     1       5.133  -5.609  20.653  0.00  0.00    +0.209 HD
ENDBRANCH  25  26
ENDBRANCH  24  25
ENDBRANCH  22  24
ENDBRANCH  19  22
ENDBRANCH   6  19
TORSDOF 7
ENDMDL
MODEL 6
REMARK VINA RESULT:      -6.3      3.660      5.378
REMARK  Name = 
REMARK  9 active torsions:
REMARK  status: ('A' for Active; 'I' for Inactive)
REMARK    1  A    between atoms: C_1  and  C_2
REMARK    2  A    between atoms: C_2  and  N_4
REMARK    3  A    between atoms: C_7  and  C_8
REMARK    4  A    between atoms: C_9  and  C_11
REMARK    5  A    between atoms: C_13  and  S_18
REMARK    6  A    between atoms: S_18  and  N_21
REMARK    7  A    between atoms: N_21  and  C_22
REMARK    8  A    between atoms: C_22  and  C_23
REMARK    9  A    between atoms: C_23  and  O_24
REMARK                            x       y       z     vdW  Elec       q    Type
REMARK                         _______ _______ _______ _____ _____    ______ ____
ROOT
ATOM      1  C   UNL     1       8.070  -2.821  24.350  0.00  0.00    -0.008 A 
ATOM      2  C   UNL     1       8.338  -3.042  22.996  0.00  0.00    +0.010 A 
ATOM      3  C   UNL     1       8.631  -1.966  22.153  0.00  0.00    +0.022 A 
ATOM      4  C   UNL     1       8.662  -0.658  22.650  0.00  0.00    +0.067 A 
ATOM      5 CL   UNL     1       9.053   0.587  21.521  0.00  0.00    -0.082 Cl
ATOM      6  C   UNL     1       8.396  -0.436  24.003  0.00  0.00    +0.124 A 
ATOM      7  C   UNL     1       8.104  -1.517  24.852  0.00  0.00    +0.039 A 
ENDROOT
BRANCH   1  11
ATOM      8  N   UNL     1       5.619  -6.619  26.889  0.00  0.00    -0.157 NA
ATOM      9  C   UNL     1       6.432  -5.732  26.420  0.00  0.00    +0.164 A 
ATOM     10  S   UNL     1       6.039  -4.204  25.592  0.00  0.00    -0.052 S 
ATOM     11  C   UNL     1       7.723  -3.936  25.216  0.00  0.00    +0.041 A 
ATOM     12  C   UNL     1       8.520  -4.873  25.765  0.00  0.00    +0.029 A 
ATOM     13  C   UNL     1      10.003  -4.954  25.624  0.00  0.00    +0.064 C 
ATOM     14  N   UNL     1       7.806  -5.827  26.473  0.00  0.00    -0.339 N 
ATOM     15  H   UNL     1       8.247  -6.678  26.796  0.00  0.00    +0.167 HD
BRANCH   8  17
ATOM     16  C   UNL     1       3.758  -7.192  25.475  0.00  0.00    +0.111 C 
ATOM     17  C   UNL     1       4.266  -6.477  26.697  0.00  0.00    +0.235 C 
ATOM     18  O   UNL     1       3.521  -5.743  27.341  0.00  0.00    -0.274 OA
ENDBRANCH   8  17
ENDBRANCH   1  11
BRANCH   6  19
ATOM     19  S   UNL     1       8.333   1.189  24.694  0.00  0.00    +0.060 S 
ATOM     20  O   UNL     1       9.588   1.857  24.413  0.00  0.00    -0.153 OA
ATOM     21  O   UNL     1       7.833   1.095  26.046  0.00  0.00    -0.153 OA
BRANCH  19  22
ATOM     22  N   UNL     1       7.140   1.964  23.784  0.00  0.00    -0.188 NA
ATOM     23  H   UNL     1       6.232   1.577  24.042  0.00  0.00    +0.148 HD
BRANCH  22  24
ATOM     24  C   UNL     1       7.230   3.435  23.684  0.00  0.00    +0.133 C 
BRANCH  24  25
ATOM     25  C   UNL     1       7.048   3.885  22.234  0.00  0.00    +0.172 C 
BRANCH  25  26
ATOM     26  O   UNL     1       7.797   5.071  21.976  0.00  0.00    -0.394 OA
ATOM     27  H   UNL     1       8.501   4.835  21.349  0.00  0.00    +0.209 HD
ENDBRANCH  25  26
ENDBRANCH  24  25
ENDBRANCH  22  24
ENDBRANCH  19  22
ENDBRANCH   6  19
TORSDOF 7
ENDMDL
MODEL 7
REMARK VINA RESULT:      -6.3      2.992      8.035
REMARK  Name = 
REMARK  9 active torsions:
REMARK  status: ('A' for Active; 'I' for Inactive)
REMARK    1  A    between atoms: C_1  and  C_2
REMARK    2  A    between atoms: C_2  and  N_4
REMARK    3  A    between atoms: C_7  and  C_8
REMARK    4  A    between atoms: C_9  and  C_11
REMARK    5  A    between atoms: C_13  and  S_18
REMARK    6  A    between atoms: S_18  and  N_21
REMARK    7  A    between atoms: N_21  and  C_22
REMARK    8  A    between atoms: C_22  and  C_23
REMARK    9  A    between atoms: C_23  and  O_24
REMARK                            x       y       z     vdW  Elec       q    Type
REMARK                         _______ _______ _______ _____ _____    ______ ____
ROOT
ATOM      1  C   UNL     1       8.702   1.295  22.864  0.00  0.00    -0.008 A 
ATOM      2  C   UNL     1       9.426   0.604  21.887  0.00  0.00    +0.010 A 
ATOM      3  C   UNL     1       9.267  -0.776  21.739  0.00  0.00    +0.022 A 
ATOM      4  C   UNL     1       8.383  -1.485  22.561  0.00  0.00    +0.067 A 
ATOM      5 CL   UNL     1       8.257  -3.182  22.275  0.00  0.00    -0.082 Cl
ATOM      6  C   UNL     1       7.659  -0.796  23.536  0.00  0.00    +0.124 A 
ATOM      7  C   UNL     1       7.816   0.592  23.684  0.00  0.00    +0.039 A 
ENDROOT
BRANCH   1  11
ATOM      8  N   UNL     1      10.709   6.035  23.479  0.00  0.00    -0.157 NA
ATOM      9  C   UNL     1       9.976   4.977  23.372  0.00  0.00    +0.164 A 
ATOM     10  S   UNL     1      10.448   3.279  23.634  0.00  0.00    -0.052 S 
ATOM     11  C   UNL     1       8.901   2.724  23.045  0.00  0.00    +0.041 A 
ATOM     12  C   UNL     1       8.066   3.744  22.774  0.00  0.00    +0.029 A 
ATOM     13  C   UNL     1       6.680   3.623  22.235  0.00  0.00    +0.064 C 
ATOM     14  N   UNL     1       8.647   4.981  23.010  0.00  0.00    -0.339 N 
ATOM     15  H   UNL     1       8.206   5.834  22.696  0.00  0.00    +0.167 HD
BRANCH   8  17
ATOM     16  C   UNL     1      12.867   5.511  22.553  0.00  0.00    +0.111 C 
ATOM     17  C   UNL     1      12.050   5.916  23.749  0.00  0.00    +0.235 C 
ATOM     18  O   UNL     1      12.568   5.983  24.860  0.00  0.00    -0.274 OA
ENDBRANCH   8  17
ENDBRANCH   1  11
BRANCH   6  19
ATOM     19  S   UNL     1       6.587  -1.626  24.670  0.00  0.00    +0.060 S 
ATOM     20  O   UNL     1       5.682  -2.468  23.913  0.00  0.00    -0.153 OA
ATOM     21  O   UNL     1       6.079  -0.658  25.614  0.00  0.00    -0.153 OA
BRANCH  19  22
ATOM     22  N   UNL     1       7.622  -2.648  25.526  0.00  0.00    -0.188 NA
ATOM     23  H   UNL     1       7.914  -2.173  26.381  0.00  0.00    +0.148 HD
BRANCH  22  24
ATOM     24  C   UNL     1       7.204  -4.058  25.660  0.00  0.00    +0.133 C 
BRANCH  24  25
ATOM     25  C   UNL     1       8.422  -4.959  25.874  0.00  0.00    +0.172 C 
BRANCH  25  26
ATOM     26  O   UNL     1       8.318  -5.663  27.110  0.00  0.00    -0.394 OA
ATOM     27  H   UNL     1       8.034  -6.568  26.901  0.00  0.00    +0.209 HD
ENDBRANCH  25  26
ENDBRANCH  24  25
ENDBRANCH  22  24
ENDBRANCH  19  22
ENDBRANCH   6  19
TORSDOF 7
ENDMDL
MODEL 8
REMARK VINA RESULT:      -6.2      4.483      8.941
REMARK  Name = 
REMARK  9 active torsions:
REMARK  status: ('A' for Active; 'I' for Inactive)
REMARK    1  A    between atoms: C_1  and  C_2
REMARK    2  A    between atoms: C_2  and  N_4
REMARK    3  A    between atoms: C_7  and  C_8
REMARK    4  A    between atoms: C_9  and  C_11
REMARK    5  A    between atoms: C_13  and  S_18
REMARK    6  A    between atoms: S_18  and  N_21
REMARK    7  A    between atoms: N_21  and  C_22
REMARK    8  A    between atoms: C_22  and  C_23
REMARK    9  A    between atoms: C_23  and  O_24
REMARK                            x       y       z     vdW  Elec       q    Type
REMARK                         _______ _______ _______ _____ _____    ______ ____
ROOT
ATOM      1  C   UNL     1       7.497  -0.683  23.565  0.00  0.00    -0.008 A 
ATOM      2  C   UNL     1       7.975  -0.834  24.870  0.00  0.00    +0.010 A 
ATOM      3  C   UNL     1       7.808  -2.047  25.544  0.00  0.00    +0.022 A 
ATOM      4  C   UNL     1       7.164  -3.125  24.924  0.00  0.00    +0.067 A 
ATOM      5 CL   UNL     1       7.031  -4.577  25.846  0.00  0.00    -0.082 Cl
ATOM      6  C   UNL     1       6.687  -2.975  23.620  0.00  0.00    +0.124 A 
ATOM      7  C   UNL     1       6.857  -1.757  22.941  0.00  0.00    +0.039 A 
ENDROOT
BRANCH   1  11
ATOM      8  N   UNL     1       7.201   4.292  22.138  0.00  0.00    -0.157 NA
ATOM      9  C   UNL     1       7.399   3.022  22.259  0.00  0.00    +0.164 A 
ATOM     10  S   UNL     1       6.471   1.850  23.228  0.00  0.00    -0.052 S 
ATOM     11  C   UNL     1       7.634   0.594  22.882  0.00  0.00    +0.041 A 
ATOM     12  C   UNL     1       8.584   1.005  22.021  0.00  0.00    +0.029 A 
ATOM     13  C   UNL     1       9.736   0.193  21.533  0.00  0.00    +0.064 C 
ATOM     14  N   UNL     1       8.415   2.328  21.640  0.00  0.00    -0.339 N 
ATOM     15  H   UNL     1       9.137   2.822  21.134  0.00  0.00    +0.167 HD
BRANCH   8  17
ATOM     16  C   UNL     1       6.711   5.446  24.193  0.00  0.00    +0.111 C 
ATOM     17  C   UNL     1       6.219   4.907  22.877  0.00  0.00    +0.235 C 
ATOM     18  O   UNL     1       5.022   4.923  22.608  0.00  0.00    -0.274 OA
ENDBRANCH   8  17
ENDBRANCH   1  11
BRANCH   6  19
ATOM     19  S   UNL     1       5.789  -4.255  22.796  0.00  0.00    +0.060 S 
ATOM     20  O   UNL     1       6.566  -5.477  22.864  0.00  0.00    -0.153 OA
ATOM     21  O   UNL     1       5.323  -3.745  21.527  0.00  0.00    -0.153 OA
BRANCH  19  22
ATOM     22  N   UNL     1       4.426  -4.476  23.766  0.00  0.00    -0.188 NA
ATOM     23  H   UNL     1       4.117  -3.563  24.104  0.00  0.00    +0.148 HD
BRANCH  22  24
ATOM     24  C   UNL     1       3.379  -5.380  23.248  0.00  0.00    +0.133 C 
BRANCH  24  25
ATOM     25  C   UNL     1       3.326  -6.665  24.074  0.00  0.00    +0.172 C 
BRANCH  25  26
ATOM     26  O   UNL     1       4.518  -7.429  23.896  0.00  0.00    -0.394 OA
ATOM     27  H   UNL     1       5.267  -6.818  23.989  0.00  0.00    +0.209 HD
ENDBRANCH  25  26
ENDBRANCH  24  25
ENDBRANCH  22  24
ENDBRANCH  19  22
ENDBRANCH   6  19
TORSDOF 7
ENDMDL
MODEL 9
REMARK VINA RESULT:      -6.2      4.859     10.109
REMARK  Name = 
REMARK  9 active torsions:
REMARK  status: ('A' for Active; 'I' for Inactive)
REMARK    1  A    between atoms: C_1  and  C_2
REMARK    2  A    between atoms: C_2  and  N_4
REMARK    3  A    between atoms: C_7  and  C_8
REMARK    4  A    between atoms: C_9  and  C_11
REMARK    5  A    between atoms: C_13  and  S_18
REMARK    6  A    between atoms: S_18  and  N_21
REMARK    7  A    between atoms: N_21  and  C_22
REMARK    8  A    between atoms: C_22  and  C_23
REMARK    9  A    between atoms: C_23  and  O_24
REMARK                            x       y       z     vdW  Elec       q    Type
REMARK                         _______ _______ _______ _____ _____    ______ ____
ROOT
ATOM      1  C   UNL     1       6.873  -4.613  24.716  0.00  0.00    -0.008 A 
ATOM      2  C   UNL     1       6.094  -5.232  23.735  0.00  0.00    +0.010 A 
ATOM      3  C   UNL     1       5.060  -6.099  24.101  0.00  0.00    +0.022 A 
ATOM      4  C   UNL     1       4.790  -6.357  25.450  0.00  0.00    +0.067 A 
ATOM      5 CL   UNL     1       3.479  -7.430  25.782  0.00  0.00    -0.082 Cl
ATOM      6  C   UNL     1       5.567  -5.739  26.431  0.00  0.00    +0.124 A 
ATOM      7  C   UNL     1       6.604  -4.865  26.064  0.00  0.00    +0.039 A 
ENDROOT
BRANCH   1  11
ATOM      8  N   UNL     1       9.821  -0.603  23.265  0.00  0.00    -0.157 NA
ATOM      9  C   UNL     1       9.311  -1.743  23.594  0.00  0.00    +0.164 A 
ATOM     10  S   UNL     1       7.608  -2.258  23.494  0.00  0.00    -0.052 S 
ATOM     11  C   UNL     1       7.975  -3.746  24.333  0.00  0.00    +0.041 A 
ATOM     12  C   UNL     1       9.294  -3.881  24.571  0.00  0.00    +0.029 A 
ATOM     13  C   UNL     1       9.942  -5.020  25.284  0.00  0.00    +0.064 C 
ATOM     14  N   UNL     1      10.029  -2.800  24.111  0.00  0.00    -0.339 N 
ATOM     15  H   UNL     1      11.000  -2.682  24.364  0.00  0.00    +0.167 HD
BRANCH   8  17
ATOM     16  C   UNL     1       9.042   0.652  21.366  0.00  0.00    +0.111 C 
ATOM     17  C   UNL     1       9.003   0.420  22.852  0.00  0.00    +0.235 C 
ATOM     18  O   UNL     1       8.388   1.189  23.584  0.00  0.00    -0.274 OA
ENDBRANCH   8  17
ENDBRANCH   1  11
BRANCH   6  19
ATOM     19  S   UNL     1       5.348  -6.074  28.152  0.00  0.00    +0.060 S 
ATOM     20  O   UNL     1       6.176  -5.156  28.908  0.00  0.00    -0.153 OA
ATOM     21  O   UNL     1       5.448  -7.500  28.359  0.00  0.00    -0.153 OA
BRANCH  19  22
ATOM     22  N   UNL     1       3.739  -5.649  28.441  0.00  0.00    -0.188 NA
ATOM     23  H   UNL     1       3.163  -6.034  27.691  0.00  0.00    +0.148 HD
BRANCH  22  24
ATOM     24  C   UNL     1       3.241  -5.828  29.820  0.00  0.00    +0.133 C 
BRANCH  24  25
ATOM     25  C   UNL     1       2.186  -6.935  29.867  0.00  0.00    +0.172 C 
BRANCH  25  26
ATOM     26  O   UNL     1       2.613  -8.071  29.118  0.00  0.00    -0.394 OA
ATOM     27  H   UNL     1       3.174  -7.744  28.395  0.00  0.00    +0.209 HD
ENDBRANCH  25  26
ENDBRANCH  24  25
ENDBRANCH  22  24
ENDBRANCH  19  22
ENDBRANCH   6  19
TORSDOF 7
ENDMDL
