MODEL 1
REMARK VINA RESULT:      -5.0      0.000      0.000
REMARK  Name = 
REMARK  5 active torsions:
REMARK  status: ('A' for Active; 'I' for Inactive)
REMARK    1  A    between atoms: C_2  and  C_11
REMARK    2  A    between atoms: C_5  and  C_7
REMARK    3  A    between atoms: C_7  and  N_8
REMARK    4  A    between atoms: C_9  and  C_10
REMARK    5  A    between atoms: C_11  and  O_12
REMARK                            x       y       z     vdW  Elec       q    Type
REMARK                         _______ _______ _______ _____ _____    ______ ____
ROOT
ATOM      1  C   UNK     1       8.580  -4.630  24.330  0.00  0.00    +0.224 C 
ATOM      2  N   UNK     1       9.641  -3.574  24.212  0.00  0.00    -0.260 NA
ATOM      3  C   UNK     1       9.135  -2.539  23.618  0.00  0.00    +0.113 C 
ATOM      4  S   UNK     1       7.406  -2.569  23.299  0.00  0.00    -0.102 S 
ATOM      5  C   UNK     1       7.211  -3.984  24.394  0.00  0.00    +0.114 C 
ENDROOT
BRANCH   3   6
ATOM      6  C   UNK     1       9.873  -1.270  23.230  0.00  0.00    +0.052 C 
ATOM      7  C   UNK     1      10.131  -0.405  24.226  0.00  0.00    -0.005 C 
ATOM      8  C   UNK     1      10.860   0.897  24.116  0.00  0.00    +0.037 C 
BRANCH   6   9
ATOM      9  N   UNK     1      10.242  -1.082  21.910  0.00  0.00    -0.356 N 
ATOM     10  H   UNK     1      11.198  -1.355  21.702  0.00  0.00    +0.142 HD
ATOM     11  H   UNK     1      10.014  -0.148  21.568  0.00  0.00    +0.142 HD
ENDBRANCH   6   9
ENDBRANCH   3   6
BRANCH   1  12
ATOM     12  C   UNK     1       8.832  -5.416  25.608  0.00  0.00    +0.330 C 
ATOM     13  O   UNK     1       7.960  -5.783  26.381  0.00  0.00    -0.249 OA
BRANCH  12  14
ATOM     14  O   UNK     1      10.152  -5.659  25.804  0.00  0.00    -0.479 OA
ATOM     15  H   UNK     1      10.643  -5.100  25.151  0.00  0.00    +0.295 HD
ENDBRANCH  12  14
ENDBRANCH   1  12
TORSDOF 4
ENDMDL
MODEL 2
REMARK VINA RESULT:      -4.7      2.644      2.975
REMARK  Name = 
REMARK  5 active torsions:
REMARK  status: ('A' for Active; 'I' for Inactive)
REMARK    1  A    between atoms: C_2  and  C_11
REMARK    2  A    between atoms: C_5  and  C_7
REMARK    3  A    between atoms: C_7  and  N_8
REMARK    4  A    between atoms: C_9  and  C_10
REMARK    5  A    between atoms: C_11  and  O_12
REMARK                            x       y       z     vdW  Elec       q    Type
REMARK                         _______ _______ _______ _____ _____    ______ ____
ROOT
ATOM      1  C   UNK     1       7.071  -4.232  22.950  0.00  0.00    +0.224 C 
ATOM      2  N   UNK     1       7.754  -3.048  22.327  0.00  0.00    -0.260 NA
ATOM      3  C   UNK     1       8.694  -2.644  23.122  0.00  0.00    +0.113 C 
ATOM      4  S   UNK     1       9.026  -3.636  24.535  0.00  0.00    -0.102 S 
ATOM      5  C   UNK     1       8.039  -4.976  23.846  0.00  0.00    +0.114 C 
ENDROOT
BRANCH   3   6
ATOM      6  C   UNK     1       9.587  -1.433  22.921  0.00  0.00    +0.052 C 
ATOM      7  C   UNK     1       9.911  -0.744  24.029  0.00  0.00    -0.005 C 
ATOM      8  C   UNK     1      10.790   0.465  24.109  0.00  0.00    +0.037 C 
BRANCH   6   9
ATOM      9  N   UNK     1      10.021  -1.118  21.646  0.00  0.00    -0.356 N 
ATOM     10  H   UNK     1       9.273  -0.894  20.996  0.00  0.00    +0.142 HD
ATOM     11  H   UNK     1      10.677  -1.804  21.273  0.00  0.00    +0.142 HD
ENDBRANCH   6   9
ENDBRANCH   3   6
BRANCH   1  12
ATOM     12  C   UNK     1       6.603  -5.153  21.832  0.00  0.00    +0.330 C 
ATOM     13  O   UNK     1       6.890  -6.337  21.742  0.00  0.00    -0.249 OA
BRANCH  12  14
ATOM     14  O   UNK     1       5.831  -4.502  20.927  0.00  0.00    -0.479 OA
ATOM     15  H   UNK     1       4.891  -4.658  21.191  0.00  0.00    +0.295 HD
ENDBRANCH  12  14
ENDBRANCH   1  12
TORSDOF 4
ENDMDL
MODEL 3
REMARK VINA RESULT:      -4.7      3.709      6.000
REMARK  Name = 
REMARK  5 active torsions:
REMARK  status: ('A' for Active; 'I' for Inactive)
REMARK    1  A    between atoms: C_2  and  C_11
REMARK    2  A    between atoms: C_5  and  C_7
REMARK    3  A    between atoms: C_7  and  N_8
REMARK    4  A    between atoms: C_9  and  C_10
REMARK    5  A    between atoms: C_11  and  O_12
REMARK                            x       y       z     vdW  Elec       q    Type
REMARK                         _______ _______ _______ _____ _____    ______ ____
ROOT
ATOM      1  C   UNK     1       8.542  -4.552  26.390  0.00  0.00    +0.224 C 
ATOM      2  N   UNK     1       7.700  -5.782  26.211  0.00  0.00    -0.260 NA
ATOM      3  C   UNK     1       6.489  -5.516  26.590  0.00  0.00    +0.113 C 
ATOM      4  S   UNK     1       6.131  -3.846  27.006  0.00  0.00    -0.102 S 
ATOM      5  C   UNK     1       7.681  -3.312  26.262  0.00  0.00    +0.114 C 
ENDROOT
BRANCH   3   6
ATOM      6  C   UNK     1       5.326  -6.491  26.647  0.00  0.00    +0.052 C 
ATOM      7  C   UNK     1       4.574  -6.583  25.537  0.00  0.00    -0.005 C 
ATOM      8  C   UNK     1       3.394  -7.480  25.326  0.00  0.00    +0.037 C 
BRANCH   6   9
ATOM      9  N   UNK     1       5.115  -7.222  27.802  0.00  0.00    -0.356 N 
ATOM     10  H   UNK     1       4.476  -6.786  28.461  0.00  0.00    +0.142 HD
ATOM     11  H   UNK     1       5.985  -7.529  28.239  0.00  0.00    +0.142 HD
ENDBRANCH   6   9
ENDBRANCH   3   6
BRANCH   1  12
ATOM     12  C   UNK     1       9.608  -4.545  25.304  0.00  0.00    +0.330 C 
ATOM     13  O   UNK     1       9.660  -3.741  24.385  0.00  0.00    -0.249 OA
BRANCH  12  14
ATOM     14  O   UNK     1      10.503  -5.552  25.464  0.00  0.00    -0.479 OA
ATOM     15  H   UNK     1      10.061  -6.237  26.024  0.00  0.00    +0.295 HD
ENDBRANCH  12  14
ENDBRANCH   1  12
TORSDOF 4
ENDMDL
MODEL 4
REMARK VINA RESULT:      -4.6      3.886      5.609
REMARK  Name = 
REMARK  5 active torsions:
REMARK  status: ('A' for Active; 'I' for Inactive)
REMARK    1  A    between atoms: C_2  and  C_11
REMARK    2  A    between atoms: C_5  and  C_7
REMARK    3  A    between atoms: C_7  and  N_8
REMARK    4  A    between atoms: C_9  and  C_10
REMARK    5  A    between atoms: C_11  and  O_12
REMARK                            x       y       z     vdW  Elec       q    Type
REMARK                         _______ _______ _______ _____ _____    ______ ____
ROOT
ATOM      1  C   UNK     1       9.845  -0.901  22.340  0.00  0.00    +0.224 C 
ATOM      2  N   UNK     1       8.579  -1.497  21.797  0.00  0.00    -0.260 NA
ATOM      3  C   UNK     1       8.247  -2.513  22.532  0.00  0.00    +0.113 C 
ATOM      4  S   UNK     1       9.198  -2.790  23.984  0.00  0.00    -0.102 S 
ATOM      5  C   UNK     1       9.941  -1.157  23.830  0.00  0.00    +0.114 C 
ENDROOT
BRANCH   3   6
ATOM      6  C   UNK     1       7.076  -3.450  22.301  0.00  0.00    +0.052 C 
ATOM      7  C   UNK     1       7.367  -4.761  22.240  0.00  0.00    -0.005 C 
ATOM      8  C   UNK     1       6.400  -5.886  22.047  0.00  0.00    +0.037 C 
BRANCH   6   9
ATOM      9  N   UNK     1       5.803  -2.922  22.181  0.00  0.00    -0.356 N 
ATOM     10  H   UNK     1       5.690  -2.279  21.403  0.00  0.00    +0.142 HD
ATOM     11  H   UNK     1       5.449  -2.545  23.060  0.00  0.00    +0.142 HD
ENDBRANCH   6   9
ENDBRANCH   3   6
BRANCH   1  12
ATOM     12  C   UNK     1       9.813   0.598  22.083  0.00  0.00    +0.330 C 
ATOM     13  O   UNK     1      10.384   1.433  22.768  0.00  0.00    -0.249 OA
BRANCH  12  14
ATOM     14  O   UNK     1       9.059   0.912  21.000  0.00  0.00    -0.479 OA
ATOM     15  H   UNK     1       8.316   0.259  20.973  0.00  0.00    +0.295 HD
ENDBRANCH  12  14
ENDBRANCH   1  12
TORSDOF 4
ENDMDL
MODEL 5
REMARK VINA RESULT:      -4.5      2.517      3.379
REMARK  Name = 
REMARK  5 active torsions:
REMARK  status: ('A' for Active; 'I' for Inactive)
REMARK    1  A    between atoms: C_2  and  C_11
REMARK    2  A    between atoms: C_5  and  C_7
REMARK    3  A    between atoms: C_7  and  N_8
REMARK    4  A    between atoms: C_9  and  C_10
REMARK    5  A    between atoms: C_11  and  O_12
REMARK                            x       y       z     vdW  Elec       q    Type
REMARK                         _______ _______ _______ _____ _____    ______ ____
ROOT
ATOM      1  C   UNK     1       9.989  -1.959  23.363  0.00  0.00    +0.224 C 
ATOM      2  N   UNK     1       9.995  -0.746  24.248  0.00  0.00    -0.260 NA
ATOM      3  C   UNK     1       9.805   0.306  23.514  0.00  0.00    +0.113 C 
ATOM      4  S   UNK     1       9.426   0.037  21.818  0.00  0.00    -0.102 S 
ATOM      5  C   UNK     1       9.125  -1.708  22.145  0.00  0.00    +0.114 C 
ENDROOT
BRANCH   3   6
ATOM      6  C   UNK     1       9.809   1.748  23.986  0.00  0.00    +0.052 C 
ATOM      7  C   UNK     1      10.632   2.585  23.330  0.00  0.00    -0.005 C 
ATOM      8  C   UNK     1      10.806   4.051  23.579  0.00  0.00    +0.037 C 
BRANCH   6   9
ATOM      9  N   UNK     1       8.981   2.120  25.029  0.00  0.00    -0.356 N 
ATOM     10  H   UNK     1       8.109   2.551  24.736  0.00  0.00    +0.142 HD
ATOM     11  H   UNK     1       9.467   2.660  25.745  0.00  0.00    +0.142 HD
ENDBRANCH   6   9
ENDBRANCH   3   6
BRANCH   1  12
ATOM     12  C   UNK     1       9.420  -3.124  24.159  0.00  0.00    +0.330 C 
ATOM     13  O   UNK     1      10.053  -4.116  24.488  0.00  0.00    -0.249 OA
BRANCH  12  14
ATOM     14  O   UNK     1       8.109  -2.945  24.456  0.00  0.00    -0.479 OA
ATOM     15  H   UNK     1       7.922  -1.980  24.341  0.00  0.00    +0.295 HD
ENDBRANCH  12  14
ENDBRANCH   1  12
TORSDOF 4
ENDMDL
MODEL 6
REMARK VINA RESULT:      -4.5      2.517      3.226
REMARK  Name = 
REMARK  5 active torsions:
REMARK  status: ('A' for Active; 'I' for Inactive)
REMARK    1  A    between atoms: C_2  and  C_11
REMARK    2  A    between atoms: C_5  and  C_7
REMARK    3  A    between atoms: C_7  and  N_8
REMARK    4  A    between atoms: C_9  and  C_10
REMARK    5  A    between atoms: C_11  and  O_12
REMARK                            x       y       z     vdW  Elec       q    Type
REMARK                         _______ _______ _______ _____ _____    ______ ____
ROOT
ATOM      1  C   UNK     1       8.296  -1.539  23.796  0.00  0.00    +0.224 C 
ATOM      2  N   UNK     1       9.125  -0.655  22.911  0.00  0.00    -0.260 NA
ATOM      3  C   UNK     1       9.177   0.529  23.436  0.00  0.00    +0.113 C 
ATOM      4  S   UNK     1       8.471   0.725  25.034  0.00  0.00    -0.102 S 
ATOM      5  C   UNK     1       8.382  -1.062  25.232  0.00  0.00    +0.114 C 
ENDROOT
BRANCH   3   6
ATOM      6  C   UNK     1       9.849   1.753  22.838  0.00  0.00    +0.052 C 
ATOM      7  C   UNK     1      10.564   2.512  23.687  0.00  0.00    -0.005 C 
ATOM      8  C   UNK     1      11.337   3.748  23.351  0.00  0.00    +0.037 C 
BRANCH   6   9
ATOM      9  N   UNK     1       9.704   2.009  21.487  0.00  0.00    -0.356 N 
ATOM     10  H   UNK     1      10.520   1.773  20.929  0.00  0.00    +0.142 HD
ATOM     11  H   UNK     1       9.356   2.950  21.300  0.00  0.00    +0.142 HD
ENDBRANCH   6   9
ENDBRANCH   3   6
BRANCH   1  12
ATOM     12  C   UNK     1       8.841  -2.956  23.698  0.00  0.00    +0.330 C 
ATOM     13  O   UNK     1       8.158  -3.953  23.517  0.00  0.00    -0.249 OA
BRANCH  12  14
ATOM     14  O   UNK     1      10.189  -2.994  23.848  0.00  0.00    -0.479 OA
ATOM     15  H   UNK     1      10.577  -2.637  23.010  0.00  0.00    +0.295 HD
ENDBRANCH  12  14
ENDBRANCH   1  12
TORSDOF 4
ENDMDL
MODEL 7
REMARK VINA RESULT:      -4.5      3.974      5.315
REMARK  Name = 
REMARK  5 active torsions:
REMARK  status: ('A' for Active; 'I' for Inactive)
REMARK    1  A    between atoms: C_2  and  C_11
REMARK    2  A    between atoms: C_5  and  C_7
REMARK    3  A    between atoms: C_7  and  N_8
REMARK    4  A    between atoms: C_9  and  C_10
REMARK    5  A    between atoms: C_11  and  O_12
REMARK                            x       y       z     vdW  Elec       q    Type
REMARK                         _______ _______ _______ _____ _____    ______ ____
ROOT
ATOM      1  C   UNK     1       7.264  -4.933  22.551  0.00  0.00    +0.224 C 
ATOM      2  N   UNK     1       6.750  -5.469  23.856  0.00  0.00    -0.260 NA
ATOM      3  C   UNK     1       7.341  -4.844  24.825  0.00  0.00    +0.113 C 
ATOM      4  S   UNK     1       8.378  -3.493  24.388  0.00  0.00    -0.102 S 
ATOM      5  C   UNK     1       7.701  -3.492  22.719  0.00  0.00    +0.114 C 
ENDROOT
BRANCH   3   6
ATOM      6  C   UNK     1       7.176  -5.117  26.309  0.00  0.00    +0.052 C 
ATOM      7  C   UNK     1       6.037  -4.676  26.871  0.00  0.00    -0.005 C 
ATOM      8  C   UNK     1       5.621  -4.838  28.300  0.00  0.00    +0.037 C 
BRANCH   6   9
ATOM      9  N   UNK     1       8.173  -5.797  26.985  0.00  0.00    -0.356 N 
ATOM     10  H   UNK     1       9.020  -5.942  26.443  0.00  0.00    +0.142 HD
ATOM     11  H   UNK     1       7.836  -6.653  27.427  0.00  0.00    +0.142 HD
ENDBRANCH   6   9
ENDBRANCH   3   6
BRANCH   1  12
ATOM     12  C   UNK     1       6.137  -5.006  21.531  0.00  0.00    +0.330 C 
ATOM     13  O   UNK     1       5.672  -4.044  20.939  0.00  0.00    -0.249 OA
BRANCH  12  14
ATOM     14  O   UNK     1       5.690  -6.274  21.357  0.00  0.00    -0.479 OA
ATOM     15  H   UNK     1       5.194  -6.515  22.178  0.00  0.00    +0.295 HD
ENDBRANCH  12  14
ENDBRANCH   1  12
TORSDOF 4
ENDMDL
MODEL 8
REMARK VINA RESULT:      -4.4      3.161      5.134
REMARK  Name = 
REMARK  5 active torsions:
REMARK  status: ('A' for Active; 'I' for Inactive)
REMARK    1  A    between atoms: C_2  and  C_11
REMARK    2  A    between atoms: C_5  and  C_7
REMARK    3  A    between atoms: C_7  and  N_8
REMARK    4  A    between atoms: C_9  and  C_10
REMARK    5  A    between atoms: C_11  and  O_12
REMARK                            x       y       z     vdW  Elec       q    Type
REMARK                         _______ _______ _______ _____ _____    ______ ____
ROOT
ATOM      1  C   UNK     1       9.900  -2.057  23.860  0.00  0.00    +0.224 C 
ATOM      2  N   UNK     1       9.105  -3.132  23.177  0.00  0.00    -0.260 NA
ATOM      3  C   UNK     1       8.248  -3.616  24.022  0.00  0.00    +0.113 C 
ATOM      4  S   UNK     1       8.121  -2.810  25.579  0.00  0.00    -0.102 S 
ATOM      5  C   UNK     1       9.072  -1.415  24.954  0.00  0.00    +0.114 C 
ENDROOT
BRANCH   3   6
ATOM      6  C   UNK     1       7.292  -4.769  23.777  0.00  0.00    +0.052 C 
ATOM      7  C   UNK     1       7.224  -5.226  22.514  0.00  0.00    -0.005 C 
ATOM      8  C   UNK     1       6.385  -6.361  22.015  0.00  0.00    +0.037 C 
BRANCH   6   9
ATOM      9  N   UNK     1       6.570  -5.284  24.838  0.00  0.00    -0.356 N 
ATOM     10  H   UNK     1       6.937  -6.156  25.208  0.00  0.00    +0.142 HD
ATOM     11  H   UNK     1       5.568  -5.326  24.648  0.00  0.00    +0.142 HD
ENDBRANCH   6   9
ENDBRANCH   3   6
BRANCH   1  12
ATOM     12  C   UNK     1      10.270  -1.008  22.821  0.00  0.00    +0.330 C 
ATOM     13  O   UNK     1      10.511   0.163  23.071  0.00  0.00    -0.249 OA
BRANCH  12  14
ATOM     14  O   UNK     1      10.291  -1.521  21.566  0.00  0.00    -0.479 OA
ATOM     15  H   UNK     1      10.249  -0.753  20.944  0.00  0.00    +0.295 HD
ENDBRANCH  12  14
ENDBRANCH   1  12
TORSDOF 4
ENDMDL
MODEL 9
REMARK VINA RESULT:      -4.4      6.262      7.932
REMARK  Name = 
REMARK  5 active torsions:
REMARK  status: ('A' for Active; 'I' for Inactive)
REMARK    1  A    between atoms: C_2  and  C_11
REMARK    2  A    between atoms: C_5  and  C_7
REMARK    3  A    between atoms: C_7  and  N_8
REMARK    4  A    between atoms: C_9  and  C_10
REMARK    5  A    between atoms: C_11  and  O_12
REMARK                            x       y       z     vdW  Elec       q    Type
REMARK                         _______ _______ _______ _____ _____    ______ ____
ROOT
ATOM      1  C   UNK     1      10.992   4.349  23.951  0.00  0.00    +0.224 C 
ATOM      2  N   UNK     1      11.106   3.135  23.075  0.00  0.00    -0.260 NA
ATOM      3  C   UNK     1       9.920   2.649  22.880  0.00  0.00    +0.113 C 
ATOM      4  S   UNK     1       8.564   3.585  23.493  0.00  0.00    -0.102 S 
ATOM      5  C   UNK     1       9.640   5.004  23.755  0.00  0.00    +0.114 C 
ENDROOT
BRANCH   3   6
ATOM      6  C   UNK     1       9.578   1.384  22.114  0.00  0.00    +0.052 C 
ATOM      7  C   UNK     1      10.104   0.241  22.589  0.00  0.00    -0.005 C 
ATOM      8  C   UNK     1       9.903  -1.136  22.038  0.00  0.00    +0.037 C 
BRANCH   6   9
ATOM      9  N   UNK     1       8.755   1.468  21.006  0.00  0.00    -0.356 N 
ATOM     10  H   UNK     1       8.579   2.417  20.688  0.00  0.00    +0.142 HD
ATOM     11  H   UNK     1       7.900   0.921  21.108  0.00  0.00    +0.142 HD
ENDBRANCH   6   9
ENDBRANCH   3   6
BRANCH   1  12
ATOM     12  C   UNK     1      12.092   5.324  23.557  0.00  0.00    +0.330 C 
ATOM     13  O   UNK     1      12.750   5.985  24.345  0.00  0.00    -0.249 OA
BRANCH  12  14
ATOM     14  O   UNK     1      12.255   5.390  22.212  0.00  0.00    -0.479 OA
ATOM     15  H   UNK     1      11.349   5.362  21.815  0.00  0.00    +0.295 HD
ENDBRANCH  12  14
ENDBRANCH   1  12
TORSDOF 4
ENDMDL
