MODEL 1
REMARK VINA RESULT:      -5.0      0.000      0.000
REMARK  Name = 
REMARK  39 active torsions:
REMARK  status: ('A' for Active; 'I' for Inactive)
REMARK    1  A    between atoms: C_1  and  C_2
REMARK    2  A    between atoms: C_2  and  C_3
REMARK    3  A    between atoms: C_3  and  C_4
REMARK    4  A    between atoms: C_4  and  C_5
REMARK    5  A    between atoms: C_5  and  C_6
REMARK    6  A    between atoms: C_6  and  C_7
REMARK    7  A    between atoms: C_7  and  C_8
REMARK    8  A    between atoms: C_8  and  C_9
REMARK    9  A    between atoms: C_9  and  C_10
REMARK   10  A    between atoms: C_10  and  C_11
REMARK   11  A    between atoms: C_11  and  C_12
REMARK   12  A    between atoms: C_12  and  S_14
REMARK   13  A    between atoms: S_14  and  C_15
REMARK   14  A    between atoms: C_15  and  C_16
REMARK   15  A    between atoms: C_16  and  N_17
REMARK   16  A    between atoms: C_18  and  C_20
REMARK   17  A    between atoms: C_20  and  C_21
REMARK   18  A    between atoms: C_21  and  N_22
REMARK   19  A    between atoms: C_23  and  C_25
REMARK   20  A    between atoms: C_25  and  O_27
REMARK   21  A    between atoms: C_25  and  C_28
REMARK   22  A    between atoms: C_28  and  C_29
REMARK   23  A    between atoms: C_28  and  C_30
REMARK   24  A    between atoms: C_28  and  C_31
REMARK   25  A    between atoms: C_31  and  O_32
REMARK   26  A    between atoms: O_32  and  P_33
REMARK   27  A    between atoms: P_33  and  O_34
REMARK   28  A    between atoms: P_33  and  O_36
REMARK   29  A    between atoms: O_36  and  P_37
REMARK   30  A    between atoms: P_37  and  O_38
REMARK   31  A    between atoms: P_37  and  O_40
REMARK   32  A    between atoms: O_40  and  C_41
REMARK   33  A    between atoms: C_41  and  C_42
REMARK   34  A    between atoms: C_45  and  N_57
REMARK   35  A    between atoms: C_47  and  O_49
REMARK   36  A    between atoms: C_50  and  O_52
REMARK   37  A    between atoms: O_52  and  P_53
REMARK   38  A    between atoms: P_53  and  O_54
REMARK   39  A    between atoms: P_53  and  O_55
REMARK                            x       y       z     vdW  Elec       q    Type
REMARK                         _______ _______ _______ _____ _____    ______ ____
ROOT
ATOM      1  P   UNL     1       2.091   1.377  28.532  0.00  0.00    +0.483 P 
ATOM      2  O   UNL     1       2.754   1.409  29.910  0.00  0.00    -0.227 OA
ENDROOT
BRANCH   1   3
ATOM      3  O   UNL     1       1.083   2.688  29.038  0.00  0.00    -0.302 OA
ATOM      4  H   UNL     1       1.308   3.411  28.418  0.00  0.00    +0.222 HD
ENDBRANCH   1   3
BRANCH   1   5
ATOM      5  O   UNL     1       3.099   0.065  28.025  0.00  0.00    -0.186 OA
BRANCH   5   6
ATOM      6  P   UNL     1       2.157  -1.382  27.928  0.00  0.00    +0.483 P 
ATOM      7  O   UNL     1       2.108  -1.244  26.407  0.00  0.00    -0.227 OA
BRANCH   6   8
ATOM      8  O   UNL     1       0.879  -0.445  28.362  0.00  0.00    -0.302 OA
ATOM      9  H   UNL     1       0.080  -0.933  28.061  0.00  0.00    +0.222 HD
ENDBRANCH   6   8
BRANCH   6  10
ATOM     10  O   UNL     1       1.216  -2.830  27.831  0.00  0.00    -0.284 OA
BRANCH  10  11
ATOM     11  C   UNL     1       1.286  -3.425  26.507  0.00  0.00    +0.206 C 
BRANCH  11  12
ATOM     12  C   UNL     1       2.064  -4.711  26.346  0.00  0.00    +0.179 C 
ATOM     13  C   UNL     1       2.032  -5.239  24.932  0.00  0.00    +0.194 C 
ATOM     14  C   UNL     1       3.482  -5.237  24.501  0.00  0.00    +0.196 C 
ATOM     15  C   UNL     1       4.195  -4.373  25.543  0.00  0.00    +0.253 C 
ATOM     16  O   UNL     1       3.415  -4.462  26.738  0.00  0.00    -0.346 OA
BRANCH  15  17
ATOM     17  N   UNL     1       5.532  -4.827  25.861  0.00  0.00    -0.286 N 
ATOM     18  C   UNL     1       6.646  -4.553  25.115  0.00  0.00    +0.167 A 
ATOM     19  N   UNL     1       6.709  -3.870  23.960  0.00  0.00    -0.216 NA
ATOM     20  C   UNL     1       7.977  -3.862  23.493  0.00  0.00    +0.225 A 
ATOM     21  N   UNL     1       9.085  -4.390  24.050  0.00  0.00    -0.219 NA
ATOM     22  C   UNL     1       8.960  -5.059  25.214  0.00  0.00    +0.147 A 
ATOM     23  N   UNL     1      10.102  -5.637  25.758  0.00  0.00    -0.341 N 
ATOM     24  H   UNL     1       9.887  -6.449  26.331  0.00  0.00    +0.144 HD
ATOM     25  H   UNL     1      10.816  -5.761  25.038  0.00  0.00    +0.144 HD
ATOM     26  C   UNL     1       7.685  -5.177  25.785  0.00  0.00    +0.147 A 
ATOM     27  N   UNL     1       7.217  -5.837  26.901  0.00  0.00    -0.231 NA
ATOM     28  C   UNL     1       5.924  -5.606  26.913  0.00  0.00    +0.203 A 
ENDBRANCH  15  17
BRANCH  14  29
ATOM     29  O   UNL     1       3.550  -4.742  23.166  0.00  0.00    -0.385 OA
ATOM     30  H   UNL     1       4.221  -5.295  22.710  0.00  0.00    +0.210 HD
ENDBRANCH  14  29
BRANCH  13  31
ATOM     31  O   UNL     1       1.505  -6.560  24.967  0.00  0.00    -0.278 OA
BRANCH  31  32
ATOM     32  P   UNL     1       1.616  -7.482  23.666  0.00  0.00    +0.473 P 
ATOM     33  O   UNL     1       1.535  -6.776  22.358  0.00  0.00    -0.228 OA
BRANCH  32  34
ATOM     34  O   UNL     1       0.542  -8.631  23.898  0.00  0.00    -0.303 OA
ATOM     35  H   UNL     1      -0.219  -8.556  23.290  0.00  0.00    +0.222 HD
ENDBRANCH  32  34
BRANCH  32  36
ATOM     36  O   UNL     1       3.013  -8.211  23.922  0.00  0.00    -0.303 OA
ATOM     37  H   UNL     1       3.569  -7.693  24.528  0.00  0.00    +0.222 HD
ENDBRANCH  32  36
ENDBRANCH  31  32
ENDBRANCH  13  31
ENDBRANCH  11  12
ENDBRANCH  10  11
ENDBRANCH   6  10
ENDBRANCH   5   6
ENDBRANCH   1   5
BRANCH   1  38
ATOM     38  O   UNL     1       2.878   2.414  27.504  0.00  0.00    -0.286 OA
BRANCH  38  39
ATOM     39  C   UNL     1       2.621   2.369  26.100  0.00  0.00    +0.181 C 
BRANCH  39  40
ATOM     40  C   UNL     1       3.852   2.806  25.233  0.00  0.00    +0.024 C 
ATOM     41  C   UNL     1       3.464   3.021  23.760  0.00  0.00    +0.016 C 
ATOM     42  C   UNL     1       4.372   4.179  25.722  0.00  0.00    +0.016 C 
BRANCH  40  43
ATOM     43  C   UNL     1       5.021   1.768  25.339  0.00  0.00    +0.208 C 
BRANCH  43  46
ATOM     44  N   UNL     1       5.750   1.682  27.696  0.00  0.00    -0.313 N 
ATOM     45  H   UNL     1       4.808   1.325  27.838  0.00  0.00    +0.149 HD
ATOM     46  C   UNL     1       6.085   2.079  26.420  0.00  0.00    +0.242 C 
ATOM     47  O   UNL     1       7.140   2.640  26.151  0.00  0.00    -0.273 OA
BRANCH  44  48
ATOM     48  C   UNL     1       6.602   1.868  28.867  0.00  0.00    +0.113 C 
BRANCH  48  49
ATOM     49  C   UNL     1       6.182   2.966  29.833  0.00  0.00    +0.114 C 
BRANCH  49  52
ATOM     50  N   UNL     1       6.568   4.928  28.489  0.00  0.00    -0.314 N 
ATOM     51  H   UNL     1       6.036   4.392  27.805  0.00  0.00    +0.149 HD
ATOM     52  C   UNL     1       6.984   4.224  29.593  0.00  0.00    +0.215 C 
ATOM     53  O   UNL     1       7.876   4.593  30.347  0.00  0.00    -0.276 OA
BRANCH  50  54
ATOM     54  C   UNL     1       7.319   6.049  27.954  0.00  0.00    +0.115 C 
BRANCH  54  55
ATOM     55  C   UNL     1       7.328   6.104  26.435  0.00  0.00    +0.096 C 
BRANCH  55  56
ATOM     56  S   UNL     1       9.050   6.208  25.849  0.00  0.00    -0.087 S 
BRANCH  56  57
ATOM     57  C   UNL     1       8.785   5.992  24.151  0.00  0.00    +0.189 C 
ATOM     58  O   UNL     1       9.490   6.533  23.298  0.00  0.00    -0.285 OA
BRANCH  57  59
ATOM     59  C   UNL     1       7.601   5.125  23.870  0.00  0.00    +0.086 C 
BRANCH  59  60
ATOM     60  C   UNL     1       8.049   3.997  22.987  0.00  0.00    +0.008 C 
BRANCH  60  61
ATOM     61  C   UNL     1       6.845   3.255  22.470  0.00  0.00    +0.000 C 
BRANCH  61  62
ATOM     62  C   UNL     1       7.334   1.893  22.060  0.00  0.00    +0.000 C 
BRANCH  62  63
ATOM     63  C   UNL     1       8.757   1.961  21.581  0.00  0.00    +0.000 C 
BRANCH  63  64
ATOM     64  C   UNL     1       9.330   0.566  21.699  0.00  0.00    +0.000 C 
BRANCH  64  65
ATOM     65  C   UNL     1      10.230   0.487  22.910  0.00  0.00    -0.000 C 
BRANCH  65  66
ATOM     66  C   UNL     1       9.852  -0.715  23.756  0.00  0.00    -0.000 C 
BRANCH  66  67
ATOM     67  C   UNL     1       8.579  -0.411  24.526  0.00  0.00    -0.000 C 
BRANCH  67  69
ATOM     68  C   UNL     1       7.854  -1.396  26.700  0.00  0.00    +0.004 C 
ATOM     69  C   UNL     1       8.833  -0.457  26.025  0.00  0.00    -0.003 C 
ENDBRANCH  67  69
ENDBRANCH  66  67
ENDBRANCH  65  66
ENDBRANCH  64  65
ENDBRANCH  63  64
ENDBRANCH  62  63
ENDBRANCH  61  62
ENDBRANCH  60  61
ENDBRANCH  59  60
ENDBRANCH  57  59
ENDBRANCH  56  57
ENDBRANCH  55  56
ENDBRANCH  54  55
ENDBRANCH  50  54
ENDBRANCH  49  52
ENDBRANCH  48  49
ENDBRANCH  44  48
ENDBRANCH  43  46
BRANCH  43  70
ATOM     70  O   UNL     1       4.500   0.444  25.533  0.00  0.00    -0.382 OA
ATOM     71  H   UNL     1       3.533   0.533  25.600  0.00  0.00    +0.210 HD
ENDBRANCH  43  70
ENDBRANCH  40  43
ENDBRANCH  39  40
ENDBRANCH  38  39
ENDBRANCH   1  38
TORSDOF 36
ENDMDL
MODEL 2
REMARK VINA RESULT:      -4.9      1.887      3.365
REMARK  Name = 
REMARK  39 active torsions:
REMARK  status: ('A' for Active; 'I' for Inactive)
REMARK    1  A    between atoms: C_1  and  C_2
REMARK    2  A    between atoms: C_2  and  C_3
REMARK    3  A    between atoms: C_3  and  C_4
REMARK    4  A    between atoms: C_4  and  C_5
REMARK    5  A    between atoms: C_5  and  C_6
REMARK    6  A    between atoms: C_6  and  C_7
REMARK    7  A    between atoms: C_7  and  C_8
REMARK    8  A    between atoms: C_8  and  C_9
REMARK    9  A    between atoms: C_9  and  C_10
REMARK   10  A    between atoms: C_10  and  C_11
REMARK   11  A    between atoms: C_11  and  C_12
REMARK   12  A    between atoms: C_12  and  S_14
REMARK   13  A    between atoms: S_14  and  C_15
REMARK   14  A    between atoms: C_15  and  C_16
REMARK   15  A    between atoms: C_16  and  N_17
REMARK   16  A    between atoms: C_18  and  C_20
REMARK   17  A    between atoms: C_20  and  C_21
REMARK   18  A    between atoms: C_21  and  N_22
REMARK   19  A    between atoms: C_23  and  C_25
REMARK   20  A    between atoms: C_25  and  O_27
REMARK   21  A    between atoms: C_25  and  C_28
REMARK   22  A    between atoms: C_28  and  C_29
REMARK   23  A    between atoms: C_28  and  C_30
REMARK   24  A    between atoms: C_28  and  C_31
REMARK   25  A    between atoms: C_31  and  O_32
REMARK   26  A    between atoms: O_32  and  P_33
REMARK   27  A    between atoms: P_33  and  O_34
REMARK   28  A    between atoms: P_33  and  O_36
REMARK   29  A    between atoms: O_36  and  P_37
REMARK   30  A    between atoms: P_37  and  O_38
REMARK   31  A    between atoms: P_37  and  O_40
REMARK   32  A    between atoms: O_40  and  C_41
REMARK   33  A    between atoms: C_41  and  C_42
REMARK   34  A    between atoms: C_45  and  N_57
REMARK   35  A    between atoms: C_47  and  O_49
REMARK   36  A    between atoms: C_50  and  O_52
REMARK   37  A    between atoms: O_52  and  P_53
REMARK   38  A    between atoms: P_53  and  O_54
REMARK   39  A    between atoms: P_53  and  O_55
REMARK                            x       y       z     vdW  Elec       q    Type
REMARK                         _______ _______ _______ _____ _____    ______ ____
ROOT
ATOM      1  P   UNL     1       1.986   1.646  27.243  0.00  0.00    +0.483 P 
ATOM      2  O   UNL     1       3.048   2.002  28.283  0.00  0.00    -0.227 OA
ENDROOT
BRANCH   1   3
ATOM      3  O   UNL     1       1.057   2.995  27.798  0.00  0.00    -0.302 OA
ATOM      4  H   UNL     1       0.468   3.200  27.044  0.00  0.00    +0.222 HD
ENDBRANCH   1   3
BRANCH   1   5
ATOM      5  O   UNL     1       2.915   0.296  26.686  0.00  0.00    -0.186 OA
BRANCH   5   6
ATOM      6  P   UNL     1       2.449  -1.123  27.558  0.00  0.00    +0.483 P 
ATOM      7  O   UNL     1       1.680  -1.619  26.334  0.00  0.00    -0.227 OA
BRANCH   6   8
ATOM      8  O   UNL     1       1.312  -0.175  28.270  0.00  0.00    -0.302 OA
ATOM      9  H   UNL     1       1.616   0.750  28.132  0.00  0.00    +0.222 HD
ENDBRANCH   6   8
BRANCH   6  10
ATOM     10  O   UNL     1       1.984  -2.543  28.430  0.00  0.00    -0.284 OA
BRANCH  10  11
ATOM     11  C   UNL     1       1.544  -3.600  27.534  0.00  0.00    +0.206 C 
BRANCH  11  12
ATOM     12  C   UNL     1       2.380  -4.857  27.454  0.00  0.00    +0.179 C 
ATOM     13  C   UNL     1       2.188  -5.601  26.154  0.00  0.00    +0.194 C 
ATOM     14  C   UNL     1       3.560  -5.599  25.518  0.00  0.00    +0.196 C 
ATOM     15  C   UNL     1       4.350  -4.549  26.302  0.00  0.00    +0.253 C 
ATOM     16  O   UNL     1       3.752  -4.485  27.599  0.00  0.00    -0.346 OA
BRANCH  15  17
ATOM     17  N   UNL     1       5.746  -4.882  26.482  0.00  0.00    -0.286 N 
ATOM     18  C   UNL     1       6.706  -4.770  25.513  0.00  0.00    +0.167 A 
ATOM     19  N   UNL     1       6.539  -4.382  24.238  0.00  0.00    -0.216 NA
ATOM     20  C   UNL     1       7.712  -4.456  23.572  0.00  0.00    +0.225 A 
ATOM     21  N   UNL     1       8.926  -4.811  24.037  0.00  0.00    -0.219 NA
ATOM     22  C   UNL     1       9.033  -5.185  25.329  0.00  0.00    +0.147 A 
ATOM     23  N   UNL     1      10.282  -5.591  25.787  0.00  0.00    -0.341 N 
ATOM     24  H   UNL     1      10.214  -6.246  26.561  0.00  0.00    +0.144 HD
ATOM     25  H   UNL     1      10.877  -5.867  25.004  0.00  0.00    +0.144 HD
ATOM     26  C   UNL     1       7.877  -5.192  26.121  0.00  0.00    +0.147 A 
ATOM     27  N   UNL     1       7.637  -5.576  27.423  0.00  0.00    -0.231 NA
ATOM     28  C   UNL     1       6.351  -5.378  27.603  0.00  0.00    +0.203 A 
ENDBRANCH  15  17
BRANCH  14  29
ATOM     29  O   UNL     1       3.407  -5.318  24.129  0.00  0.00    -0.385 OA
ATOM     30  H   UNL     1       4.262  -4.933  23.838  0.00  0.00    +0.210 HD
ENDBRANCH  14  29
BRANCH  13  31
ATOM     31  O   UNL     1       1.765  -6.924  26.464  0.00  0.00    -0.278 OA
BRANCH  31  32
ATOM     32  P   UNL     1       1.476  -7.952  25.274  0.00  0.00    +0.473 P 
ATOM     33  O   UNL     1       1.087  -7.348  23.970  0.00  0.00    -0.228 OA
BRANCH  32  34
ATOM     34  O   UNL     1       0.444  -8.993  25.888  0.00  0.00    -0.303 OA
ATOM     35  H   UNL     1       0.602  -9.156  26.839  0.00  0.00    +0.222 HD
ENDBRANCH  32  34
BRANCH  32  36
ATOM     36  O   UNL     1       2.850  -8.764  25.227  0.00  0.00    -0.303 OA
ATOM     37  H   UNL     1       2.861  -9.467  25.898  0.00  0.00    +0.222 HD
ENDBRANCH  32  36
ENDBRANCH  31  32
ENDBRANCH  13  31
ENDBRANCH  11  12
ENDBRANCH  10  11
ENDBRANCH   6  10
ENDBRANCH   5   6
ENDBRANCH   1   5
BRANCH   1  38
ATOM     38  O   UNL     1       2.283   2.466  25.831  0.00  0.00    -0.286 OA
BRANCH  38  39
ATOM     39  C   UNL     1       1.205   2.821  24.964  0.00  0.00    +0.181 C 
BRANCH  39  40
ATOM     40  C   UNL     1       1.509   4.084  24.086  0.00  0.00    +0.024 C 
ATOM     41  C   UNL     1       0.443   4.292  22.998  0.00  0.00    +0.016 C 
ATOM     42  C   UNL     1       1.447   5.356  24.966  0.00  0.00    +0.016 C 
BRANCH  40  43
ATOM     43  C   UNL     1       2.934   3.998  23.439  0.00  0.00    +0.208 C 
BRANCH  43  46
ATOM     44  N   UNL     1       4.630   4.112  25.230  0.00  0.00    -0.313 N 
ATOM     45  H   UNL     1       4.220   3.220  25.495  0.00  0.00    +0.149 HD
ATOM     46  C   UNL     1       4.044   4.784  24.180  0.00  0.00    +0.242 C 
ATOM     47  O   UNL     1       4.366   5.919  23.850  0.00  0.00    -0.273 OA
BRANCH  44  48
ATOM     48  C   UNL     1       5.699   4.657  26.062  0.00  0.00    +0.113 C 
BRANCH  48  49
ATOM     49  C   UNL     1       5.527   4.492  27.565  0.00  0.00    +0.114 C 
BRANCH  49  52
ATOM     50  N   UNL     1       5.853   2.106  27.654  0.00  0.00    -0.314 N 
ATOM     51  H   UNL     1       4.877   2.104  27.362  0.00  0.00    +0.149 HD
ATOM     52  C   UNL     1       6.339   3.321  28.070  0.00  0.00    +0.215 C 
ATOM     53  O   UNL     1       7.358   3.463  28.737  0.00  0.00    -0.276 OA
BRANCH  50  54
ATOM     54  C   UNL     1       6.349   0.849  28.182  0.00  0.00    +0.115 C 
BRANCH  54  55
ATOM     55  C   UNL     1       6.513  -0.232  27.124  0.00  0.00    +0.096 C 
BRANCH  55  56
ATOM     56  S   UNL     1       7.680   0.350  25.851  0.00  0.00    -0.087 S 
BRANCH  56  57
ATOM     57  C   UNL     1       8.732  -1.025  25.784  0.00  0.00    +0.189 C 
ATOM     58  O   UNL     1       8.652  -1.958  26.584  0.00  0.00    -0.285 OA
BRANCH  57  59
ATOM     59  C   UNL     1       9.741  -0.911  24.689  0.00  0.00    +0.086 C 
BRANCH  59  60
ATOM     60  C   UNL     1       9.035  -1.120  23.381  0.00  0.00    +0.008 C 
BRANCH  60  61
ATOM     61  C   UNL     1      10.004  -0.910  22.248  0.00  0.00    +0.000 C 
BRANCH  61  62
ATOM     62  C   UNL     1       9.346   0.065  21.308  0.00  0.00    +0.000 C 
BRANCH  62  63
ATOM     63  C   UNL     1       9.063   1.366  22.004  0.00  0.00    +0.000 C 
BRANCH  63  64
ATOM     64  C   UNL     1      10.390   2.069  22.183  0.00  0.00    +0.000 C 
BRANCH  64  65
ATOM     65  C   UNL     1      10.373   2.868  23.465  0.00  0.00    -0.000 C 
BRANCH  65  66
ATOM     66  C   UNL     1       8.949   3.267  23.806  0.00  0.00    -0.000 C 
BRANCH  66  67
ATOM     67  C   UNL     1       8.894   4.760  24.075  0.00  0.00    -0.000 C 
BRANCH  67  69
ATOM     68  C   UNL     1       7.175   4.498  22.287  0.00  0.00    +0.004 C 
ATOM     69  C   UNL     1       8.093   5.473  22.996  0.00  0.00    -0.003 C 
ENDBRANCH  67  69
ENDBRANCH  66  67
ENDBRANCH  65  66
ENDBRANCH  64  65
ENDBRANCH  63  64
ENDBRANCH  62  63
ENDBRANCH  61  62
ENDBRANCH  60  61
ENDBRANCH  59  60
ENDBRANCH  57  59
ENDBRANCH  56  57
ENDBRANCH  55  56
ENDBRANCH  54  55
ENDBRANCH  50  54
ENDBRANCH  49  52
ENDBRANCH  48  49
ENDBRANCH  44  48
ENDBRANCH  43  46
BRANCH  43  70
ATOM     70  O   UNL     1       3.331   2.628  23.279  0.00  0.00    -0.382 OA
ATOM     71  H   UNL     1       2.873   2.123  23.974  0.00  0.00    +0.210 HD
ENDBRANCH  43  70
ENDBRANCH  40  43
ENDBRANCH  39  40
ENDBRANCH  38  39
ENDBRANCH   1  38
TORSDOF 36
ENDMDL
MODEL 3
REMARK VINA RESULT:      -4.8      3.310      6.040
REMARK  Name = 
REMARK  39 active torsions:
REMARK  status: ('A' for Active; 'I' for Inactive)
REMARK    1  A    between atoms: C_1  and  C_2
REMARK    2  A    between atoms: C_2  and  C_3
REMARK    3  A    between atoms: C_3  and  C_4
REMARK    4  A    between atoms: C_4  and  C_5
REMARK    5  A    between atoms: C_5  and  C_6
REMARK    6  A    between atoms: C_6  and  C_7
REMARK    7  A    between atoms: C_7  and  C_8
REMARK    8  A    between atoms: C_8  and  C_9
REMARK    9  A    between atoms: C_9  and  C_10
REMARK   10  A    between atoms: C_10  and  C_11
REMARK   11  A    between atoms: C_11  and  C_12
REMARK   12  A    between atoms: C_12  and  S_14
REMARK   13  A    between atoms: S_14  and  C_15
REMARK   14  A    between atoms: C_15  and  C_16
REMARK   15  A    between atoms: C_16  and  N_17
REMARK   16  A    between atoms: C_18  and  C_20
REMARK   17  A    between atoms: C_20  and  C_21
REMARK   18  A    between atoms: C_21  and  N_22
REMARK   19  A    between atoms: C_23  and  C_25
REMARK   20  A    between atoms: C_25  and  O_27
REMARK   21  A    between atoms: C_25  and  C_28
REMARK   22  A    between atoms: C_28  and  C_29
REMARK   23  A    between atoms: C_28  and  C_30
REMARK   24  A    between atoms: C_28  and  C_31
REMARK   25  A    between atoms: C_31  and  O_32
REMARK   26  A    between atoms: O_32  and  P_33
REMARK   27  A    between atoms: P_33  and  O_34
REMARK   28  A    between atoms: P_33  and  O_36
REMARK   29  A    between atoms: O_36  and  P_37
REMARK   30  A    between atoms: P_37  and  O_38
REMARK   31  A    between atoms: P_37  and  O_40
REMARK   32  A    between atoms: O_40  and  C_41
REMARK   33  A    between atoms: C_41  and  C_42
REMARK   34  A    between atoms: C_45  and  N_57
REMARK   35  A    between atoms: C_47  and  O_49
REMARK   36  A    between atoms: C_50  and  O_52
REMARK   37  A    between atoms: O_52  and  P_53
REMARK   38  A    between atoms: P_53  and  O_54
REMARK   39  A    between atoms: P_53  and  O_55
REMARK                            x       y       z     vdW  Elec       q    Type
REMARK                         _______ _______ _______ _____ _____    ______ ____
ROOT
ATOM      1  P   UNL     1       8.684  -0.813  25.566  0.00  0.00    +0.483 P 
ATOM      2  O   UNL     1      10.071  -0.171  25.523  0.00  0.00    -0.227 OA
ENDROOT
BRANCH   1   3
ATOM      3  O   UNL     1       8.214   0.391  26.715  0.00  0.00    -0.302 OA
ATOM      4  H   UNL     1       8.008   1.174  26.164  0.00  0.00    +0.222 HD
ENDBRANCH   1   3
BRANCH   1   5
ATOM      5  O   UNL     1       9.153  -2.018  24.417  0.00  0.00    -0.186 OA
BRANCH   5   6
ATOM      6  P   UNL     1       8.677  -3.578  24.990  0.00  0.00    +0.483 P 
ATOM      7  O   UNL     1       8.957  -3.134  26.425  0.00  0.00    -0.227 OA
BRANCH   6   8
ATOM      8  O   UNL     1      10.171  -4.081  24.527  0.00  0.00    -0.302 OA
ATOM      9  H   UNL     1      10.671  -4.223  25.362  0.00  0.00    +0.222 HD
ENDBRANCH   6   8
BRANCH   6  10
ATOM     10  O   UNL     1       8.198  -5.139  25.564  0.00  0.00    -0.284 OA
BRANCH  10  11
ATOM     11  C   UNL     1       7.591  -5.062  26.882  0.00  0.00    +0.206 C 
BRANCH  11  12
ATOM     12  C   UNL     1       6.168  -5.545  27.038  0.00  0.00    +0.179 C 
ATOM     13  C   UNL     1       5.275  -4.523  27.700  0.00  0.00    +0.194 C 
ATOM     14  C   UNL     1       4.219  -4.220  26.660  0.00  0.00    +0.196 C 
ATOM     15  C   UNL     1       4.781  -4.797  25.359  0.00  0.00    +0.253 C 
ATOM     16  O   UNL     1       5.662  -5.857  25.738  0.00  0.00    -0.346 OA
BRANCH  15  17
ATOM     17  N   UNL     1       3.772  -5.361  24.487  0.00  0.00    -0.286 N 
ATOM     18  C   UNL     1       3.087  -6.520  24.734  0.00  0.00    +0.167 A 
ATOM     19  N   UNL     1       3.241  -7.353  25.776  0.00  0.00    -0.216 NA
ATOM     20  C   UNL     1       2.426  -8.423  25.640  0.00  0.00    +0.225 A 
ATOM     21  N   UNL     1       1.530  -8.683  24.667  0.00  0.00    -0.219 NA
ATOM     22  C   UNL     1       1.416  -7.805  23.650  0.00  0.00    +0.147 A 
ATOM     23  N   UNL     1       0.520  -8.104  22.630  0.00  0.00    -0.341 N 
ATOM     24  H   UNL     1       0.791  -7.687  21.744  0.00  0.00    +0.144 HD
ATOM     25  H   UNL     1       0.311  -9.104  22.620  0.00  0.00    +0.144 HD
ATOM     26  C   UNL     1       2.238  -6.670  23.651  0.00  0.00    +0.147 A 
ATOM     27  N   UNL     1       2.414  -5.641  22.749  0.00  0.00    -0.231 NA
ATOM     28  C   UNL     1       3.341  -4.878  23.283  0.00  0.00    +0.203 A 
ENDBRANCH  15  17
BRANCH  14  29
ATOM     29  O   UNL     1       3.999  -2.812  26.644  0.00  0.00    -0.385 OA
ATOM     30  H   UNL     1       4.062  -2.542  25.702  0.00  0.00    +0.210 HD
ENDBRANCH  14  29
BRANCH  13  31
ATOM     31  O   UNL     1       4.704  -5.122  28.857  0.00  0.00    -0.278 OA
BRANCH  31  32
ATOM     32  P   UNL     1       5.279  -6.520  29.380  0.00  0.00    +0.473 P 
ATOM     33  O   UNL     1       6.627  -6.475  30.009  0.00  0.00    -0.228 OA
BRANCH  32  34
ATOM     34  O   UNL     1       5.128  -7.502  28.139  0.00  0.00    -0.303 OA
ATOM     35  H   UNL     1       4.214  -7.529  27.796  0.00  0.00    +0.222 HD
ENDBRANCH  32  34
BRANCH  32  36
ATOM     36  O   UNL     1       4.116  -6.980  30.371  0.00  0.00    -0.303 OA
ATOM     37  H   UNL     1       3.561  -7.665  29.961  0.00  0.00    +0.222 HD
ENDBRANCH  32  36
ENDBRANCH  31  32
ENDBRANCH  13  31
ENDBRANCH  11  12
ENDBRANCH  10  11
ENDBRANCH   6  10
ENDBRANCH   5   6
ENDBRANCH   1   5
BRANCH   1  38
ATOM     38  O   UNL     1       7.695  -0.092  24.446  0.00  0.00    -0.286 OA
BRANCH  38  39
ATOM     39  C   UNL     1       8.125   0.050  23.092  0.00  0.00    +0.181 C 
BRANCH  39  40
ATOM     40  C   UNL     1       8.519   1.522  22.720  0.00  0.00    +0.024 C 
ATOM     41  C   UNL     1      10.044   1.717  22.708  0.00  0.00    +0.016 C 
ATOM     42  C   UNL     1       8.056   1.835  21.277  0.00  0.00    +0.016 C 
BRANCH  40  43
ATOM     43  C   UNL     1       7.849   2.554  23.691  0.00  0.00    +0.208 C 
BRANCH  43  46
ATOM     44  N   UNL     1       5.976   1.993  25.199  0.00  0.00    -0.313 N 
ATOM     45  H   UNL     1       6.732   1.781  25.845  0.00  0.00    +0.149 HD
ATOM     46  C   UNL     1       6.330   2.357  23.918  0.00  0.00    +0.242 C 
ATOM     47  O   UNL     1       5.513   2.511  23.018  0.00  0.00    -0.273 OA
BRANCH  44  48
ATOM     48  C   UNL     1       4.604   1.759  25.639  0.00  0.00    +0.113 C 
BRANCH  48  49
ATOM     49  C   UNL     1       4.408   0.651  26.663  0.00  0.00    +0.114 C 
BRANCH  49  52
ATOM     50  N   UNL     1       5.919   1.170  28.467  0.00  0.00    -0.314 N 
ATOM     51  H   UNL     1       6.529   0.536  27.951  0.00  0.00    +0.149 HD
ATOM     52  C   UNL     1       4.606   1.178  28.066  0.00  0.00    +0.215 C 
ATOM     53  O   UNL     1       3.683   1.617  28.742  0.00  0.00    -0.276 OA
BRANCH  50  54
ATOM     54  C   UNL     1       6.315   1.437  29.837  0.00  0.00    +0.115 C 
BRANCH  54  55
ATOM     55  C   UNL     1       7.395   2.500  29.961  0.00  0.00    +0.096 C 
BRANCH  55  56
ATOM     56  S   UNL     1       6.644   4.145  29.737  0.00  0.00    -0.087 S 
BRANCH  56  57
ATOM     57  C   UNL     1       6.772   4.281  28.014  0.00  0.00    +0.189 C 
ATOM     58  O   UNL     1       7.447   3.504  27.338  0.00  0.00    -0.285 OA
BRANCH  57  59
ATOM     59  C   UNL     1       6.011   5.452  27.482  0.00  0.00    +0.086 C 
BRANCH  59  60
ATOM     60  C   UNL     1       6.000   5.358  25.985  0.00  0.00    +0.008 C 
BRANCH  60  61
ATOM     61  C   UNL     1       5.466   6.642  25.405  0.00  0.00    +0.000 C 
BRANCH  61  62
ATOM     62  C   UNL     1       6.456   7.074  24.358  0.00  0.00    +0.000 C 
BRANCH  62  63
ATOM     63  C   UNL     1       6.599   6.022  23.294  0.00  0.00    +0.000 C 
BRANCH  63  64
ATOM     64  C   UNL     1       7.925   6.263  22.609  0.00  0.00    +0.000 C 
BRANCH  64  65
ATOM     65  C   UNL     1       8.924   6.800  23.607  0.00  0.00    -0.000 C 
BRANCH  65  66
ATOM     66  C   UNL     1       9.976   5.747  23.902  0.00  0.00    -0.000 C 
BRANCH  66  67
ATOM     67  C   UNL     1      11.085   6.360  24.738  0.00  0.00    -0.000 C 
BRANCH  67  69
ATOM     68  C   UNL     1      12.334   4.938  23.113  0.00  0.00    +0.004 C 
ATOM     69  C   UNL     1      12.447   6.051  24.136  0.00  0.00    -0.003 C 
ENDBRANCH  67  69
ENDBRANCH  66  67
ENDBRANCH  65  66
ENDBRANCH  64  65
ENDBRANCH  63  64
ENDBRANCH  62  63
ENDBRANCH  61  62
ENDBRANCH  60  61
ENDBRANCH  59  60
ENDBRANCH  57  59
ENDBRANCH  56  57
ENDBRANCH  55  56
ENDBRANCH  54  55
ENDBRANCH  50  54
ENDBRANCH  49  52
ENDBRANCH  48  49
ENDBRANCH  44  48
ENDBRANCH  43  46
BRANCH  43  70
ATOM     70  O   UNL     1       8.532   2.572  24.953  0.00  0.00    -0.382 OA
ATOM     71  H   UNL     1       7.849   2.685  25.638  0.00  0.00    +0.210 HD
ENDBRANCH  43  70
ENDBRANCH  40  43
ENDBRANCH  39  40
ENDBRANCH  38  39
ENDBRANCH   1  38
TORSDOF 36
ENDMDL
MODEL 4
REMARK VINA RESULT:      -4.7      3.782      9.383
REMARK  Name = 
REMARK  39 active torsions:
REMARK  status: ('A' for Active; 'I' for Inactive)
REMARK    1  A    between atoms: C_1  and  C_2
REMARK    2  A    between atoms: C_2  and  C_3
REMARK    3  A    between atoms: C_3  and  C_4
REMARK    4  A    between atoms: C_4  and  C_5
REMARK    5  A    between atoms: C_5  and  C_6
REMARK    6  A    between atoms: C_6  and  C_7
REMARK    7  A    between atoms: C_7  and  C_8
REMARK    8  A    between atoms: C_8  and  C_9
REMARK    9  A    between atoms: C_9  and  C_10
REMARK   10  A    between atoms: C_10  and  C_11
REMARK   11  A    between atoms: C_11  and  C_12
REMARK   12  A    between atoms: C_12  and  S_14
REMARK   13  A    between atoms: S_14  and  C_15
REMARK   14  A    between atoms: C_15  and  C_16
REMARK   15  A    between atoms: C_16  and  N_17
REMARK   16  A    between atoms: C_18  and  C_20
REMARK   17  A    between atoms: C_20  and  C_21
REMARK   18  A    between atoms: C_21  and  N_22
REMARK   19  A    between atoms: C_23  and  C_25
REMARK   20  A    between atoms: C_25  and  O_27
REMARK   21  A    between atoms: C_25  and  C_28
REMARK   22  A    between atoms: C_28  and  C_29
REMARK   23  A    between atoms: C_28  and  C_30
REMARK   24  A    between atoms: C_28  and  C_31
REMARK   25  A    between atoms: C_31  and  O_32
REMARK   26  A    between atoms: O_32  and  P_33
REMARK   27  A    between atoms: P_33  and  O_34
REMARK   28  A    between atoms: P_33  and  O_36
REMARK   29  A    between atoms: O_36  and  P_37
REMARK   30  A    between atoms: P_37  and  O_38
REMARK   31  A    between atoms: P_37  and  O_40
REMARK   32  A    between atoms: O_40  and  C_41
REMARK   33  A    between atoms: C_41  and  C_42
REMARK   34  A    between atoms: C_45  and  N_57
REMARK   35  A    between atoms: C_47  and  O_49
REMARK   36  A    between atoms: C_50  and  O_52
REMARK   37  A    between atoms: O_52  and  P_53
REMARK   38  A    between atoms: P_53  and  O_54
REMARK   39  A    between atoms: P_53  and  O_55
REMARK                            x       y       z     vdW  Elec       q    Type
REMARK                         _______ _______ _______ _____ _____    ______ ____
ROOT
ATOM      1  P   UNL     1       9.174  -4.268  24.735  0.00  0.00    +0.483 P 
ATOM      2  O   UNL     1       8.938  -3.917  26.204  0.00  0.00    -0.227 OA
ENDROOT
BRANCH   1   3
ATOM      3  O   UNL     1      10.101  -5.632  25.258  0.00  0.00    -0.302 OA
ATOM      4  H   UNL     1       9.444  -6.206  25.702  0.00  0.00    +0.222 HD
ENDBRANCH   1   3
BRANCH   1   5
ATOM      5  O   UNL     1       8.247  -2.905  24.211  0.00  0.00    -0.186 OA
BRANCH   5   6
ATOM      6  P   UNL     1       9.312  -1.676  23.620  0.00  0.00    +0.483 P 
ATOM      7  O   UNL     1       8.795  -1.913  22.202  0.00  0.00    -0.227 OA
BRANCH   6   8
ATOM      8  O   UNL     1      10.493  -2.815  23.710  0.00  0.00    -0.302 OA
ATOM      9  H   UNL     1      10.292  -3.460  22.995  0.00  0.00    +0.222 HD
ENDBRANCH   6   8
BRANCH   6  10
ATOM     10  O   UNL     1      10.377  -0.446  23.030  0.00  0.00    -0.284 OA
BRANCH  10  11
ATOM     11  C   UNL     1      10.037   0.859  23.571  0.00  0.00    +0.206 C 
BRANCH  11  12
ATOM     12  C   UNL     1       8.575   1.189  23.765  0.00  0.00    +0.179 C 
ATOM     13  C   UNL     1       8.223   1.449  25.210  0.00  0.00    +0.194 C 
ATOM     14  C   UNL     1       7.731   2.879  25.223  0.00  0.00    +0.196 C 
ATOM     15  C   UNL     1       8.177   3.454  23.877  0.00  0.00    +0.253 C 
ATOM     16  O   UNL     1       8.275   2.345  22.980  0.00  0.00    -0.346 OA
BRANCH  15  17
ATOM     17  N   UNL     1       7.238   4.395  23.304  0.00  0.00    -0.286 N 
ATOM     18  C   UNL     1       5.893   4.175  23.177  0.00  0.00    +0.167 A 
ATOM     19  N   UNL     1       5.211   3.066  23.509  0.00  0.00    -0.216 NA
ATOM     20  C   UNL     1       3.908   3.205  23.179  0.00  0.00    +0.225 A 
ATOM     21  N   UNL     1       3.284   4.269  22.637  0.00  0.00    -0.219 NA
ATOM     22  C   UNL     1       4.020   5.357  22.332  0.00  0.00    +0.147 A 
ATOM     23  N   UNL     1       3.374   6.433  21.734  0.00  0.00    -0.341 N 
ATOM     24  H   UNL     1       3.999   6.984  21.152  0.00  0.00    +0.144 HD
ATOM     25  H   UNL     1       2.498   6.129  21.305  0.00  0.00    +0.144 HD
ATOM     26  C   UNL     1       5.398   5.325  22.587  0.00  0.00    +0.147 A 
ATOM     27  N   UNL     1       6.417   6.220  22.336  0.00  0.00    -0.231 NA
ATOM     28  C   UNL     1       7.503   5.627  22.777  0.00  0.00    +0.203 A 
ENDBRANCH  15  17
BRANCH  14  29
ATOM     29  O   UNL     1       8.282   3.530  26.364  0.00  0.00    -0.385 OA
ATOM     30  H   UNL     1       7.607   4.182  26.652  0.00  0.00    +0.210 HD
ENDBRANCH  14  29
BRANCH  13  31
ATOM     31  O   UNL     1       7.191   0.543  25.581  0.00  0.00    -0.278 OA
BRANCH  31  32
ATOM     32  P   UNL     1       7.303  -0.250  26.965  0.00  0.00    +0.473 P 
ATOM     33  O   UNL     1       6.475   0.275  28.086  0.00  0.00    -0.228 OA
BRANCH  32  34
ATOM     34  O   UNL     1       8.865  -0.342  27.245  0.00  0.00    -0.303 OA
ATOM     35  H   UNL     1       9.389   0.179  26.605  0.00  0.00    +0.222 HD
ENDBRANCH  32  34
BRANCH  32  36
ATOM     36  O   UNL     1       6.912  -1.727  26.507  0.00  0.00    -0.303 OA
ATOM     37  H   UNL     1       7.602  -2.109  25.939  0.00  0.00    +0.222 HD
ENDBRANCH  32  36
ENDBRANCH  31  32
ENDBRANCH  13  31
ENDBRANCH  11  12
ENDBRANCH  10  11
ENDBRANCH   6  10
ENDBRANCH   5   6
ENDBRANCH   1   5
BRANCH   1  38
ATOM     38  O   UNL     1       7.994  -5.307  24.207  0.00  0.00    -0.286 OA
BRANCH  38  39
ATOM     39  C   UNL     1       6.629  -4.887  24.169  0.00  0.00    +0.181 C 
BRANCH  39  40
ATOM     40  C   UNL     1       5.931  -5.178  22.795  0.00  0.00    +0.024 C 
ATOM     41  C   UNL     1       5.992  -3.961  21.857  0.00  0.00    +0.016 C 
ATOM     42  C   UNL     1       6.691  -6.304  22.054  0.00  0.00    +0.016 C 
BRANCH  40  43
ATOM     43  C   UNL     1       4.445  -5.633  22.996  0.00  0.00    +0.208 C 
BRANCH  43  46
ATOM     44  N   UNL     1       3.524  -5.758  25.283  0.00  0.00    -0.313 N 
ATOM     45  H   UNL     1       3.380  -4.763  25.139  0.00  0.00    +0.149 HD
ATOM     46  C   UNL     1       4.172  -6.450  24.283  0.00  0.00    +0.242 C 
ATOM     47  O   UNL     1       4.515  -7.621  24.395  0.00  0.00    -0.273 OA
BRANCH  44  48
ATOM     48  C   UNL     1       3.161  -6.330  26.577  0.00  0.00    +0.113 C 
BRANCH  48  49
ATOM     49  C   UNL     1       3.700  -5.607  27.803  0.00  0.00    +0.114 C 
BRANCH  49  52
ATOM     50  N   UNL     1       3.252  -3.261  27.480  0.00  0.00    -0.314 N 
ATOM     51  H   UNL     1       2.291  -3.596  27.428  0.00  0.00    +0.149 HD
ATOM     52  C   UNL     1       4.218  -4.237  27.430  0.00  0.00    +0.215 C 
ATOM     53  O   UNL     1       5.395  -4.026  27.166  0.00  0.00    -0.276 OA
BRANCH  50  54
ATOM     54  C   UNL     1       3.474  -1.922  26.968  0.00  0.00    +0.115 C 
BRANCH  54  55
ATOM     55  C   UNL     1       2.342  -0.956  27.284  0.00  0.00    +0.096 C 
BRANCH  55  56
ATOM     56  S   UNL     1       2.933   0.289  28.475  0.00  0.00    -0.087 S 
BRANCH  56  57
ATOM     57  C   UNL     1       3.302   1.578  27.377  0.00  0.00    +0.189 C 
ATOM     58  O   UNL     1       3.617   1.375  26.203  0.00  0.00    -0.285 OA
BRANCH  57  59
ATOM     59  C   UNL     1       3.228   2.918  28.032  0.00  0.00    +0.086 C 
BRANCH  59  60
ATOM     60  C   UNL     1       4.181   2.922  29.192  0.00  0.00    +0.008 C 
BRANCH  60  61
ATOM     61  C   UNL     1       5.445   3.641  28.801  0.00  0.00    +0.000 C 
BRANCH  61  62
ATOM     62  C   UNL     1       5.458   4.925  29.585  0.00  0.00    +0.000 C 
BRANCH  62  63
ATOM     63  C   UNL     1       6.848   5.493  29.651  0.00  0.00    +0.000 C 
BRANCH  63  64
ATOM     64  C   UNL     1       6.835   6.784  28.863  0.00  0.00    +0.000 C 
BRANCH  64  65
ATOM     65  C   UNL     1       7.744   6.657  27.663  0.00  0.00    -0.000 C 
BRANCH  65  66
ATOM     66  C   UNL     1       7.013   7.108  26.412  0.00  0.00    -0.000 C 
BRANCH  66  67
ATOM     67  C   UNL     1       5.849   6.171  26.142  0.00  0.00    -0.000 C 
BRANCH  67  69
ATOM     68  C   UNL     1       3.432   6.392  26.720  0.00  0.00    +0.004 C 
ATOM     69  C   UNL     1       4.571   6.956  25.894  0.00  0.00    -0.003 C 
ENDBRANCH  67  69
ENDBRANCH  66  67
ENDBRANCH  65  66
ENDBRANCH  64  65
ENDBRANCH  63  64
ENDBRANCH  62  63
ENDBRANCH  61  62
ENDBRANCH  60  61
ENDBRANCH  59  60
ENDBRANCH  57  59
ENDBRANCH  56  57
ENDBRANCH  55  56
ENDBRANCH  54  55
ENDBRANCH  50  54
ENDBRANCH  49  52
ENDBRANCH  48  49
ENDBRANCH  44  48
ENDBRANCH  43  46
BRANCH  43  70
ATOM     70  O   UNL     1       3.562  -4.502  22.939  0.00  0.00    -0.382 OA
ATOM     71  H   UNL     1       4.125  -3.714  22.847  0.00  0.00    +0.210 HD
ENDBRANCH  43  70
ENDBRANCH  40  43
ENDBRANCH  39  40
ENDBRANCH  38  39
ENDBRANCH   1  38
TORSDOF 36
ENDMDL
MODEL 5
REMARK VINA RESULT:      -4.7      4.231     10.314
REMARK  Name = 
REMARK  39 active torsions:
REMARK  status: ('A' for Active; 'I' for Inactive)
REMARK    1  A    between atoms: C_1  and  C_2
REMARK    2  A    between atoms: C_2  and  C_3
REMARK    3  A    between atoms: C_3  and  C_4
REMARK    4  A    between atoms: C_4  and  C_5
REMARK    5  A    between atoms: C_5  and  C_6
REMARK    6  A    between atoms: C_6  and  C_7
REMARK    7  A    between atoms: C_7  and  C_8
REMARK    8  A    between atoms: C_8  and  C_9
REMARK    9  A    between atoms: C_9  and  C_10
REMARK   10  A    between atoms: C_10  and  C_11
REMARK   11  A    between atoms: C_11  and  C_12
REMARK   12  A    between atoms: C_12  and  S_14
REMARK   13  A    between atoms: S_14  and  C_15
REMARK   14  A    between atoms: C_15  and  C_16
REMARK   15  A    between atoms: C_16  and  N_17
REMARK   16  A    between atoms: C_18  and  C_20
REMARK   17  A    between atoms: C_20  and  C_21
REMARK   18  A    between atoms: C_21  and  N_22
REMARK   19  A    between atoms: C_23  and  C_25
REMARK   20  A    between atoms: C_25  and  O_27
REMARK   21  A    between atoms: C_25  and  C_28
REMARK   22  A    between atoms: C_28  and  C_29
REMARK   23  A    between atoms: C_28  and  C_30
REMARK   24  A    between atoms: C_28  and  C_31
REMARK   25  A    between atoms: C_31  and  O_32
REMARK   26  A    between atoms: O_32  and  P_33
REMARK   27  A    between atoms: P_33  and  O_34
REMARK   28  A    between atoms: P_33  and  O_36
REMARK   29  A    between atoms: O_36  and  P_37
REMARK   30  A    between atoms: P_37  and  O_38
REMARK   31  A    between atoms: P_37  and  O_40
REMARK   32  A    between atoms: O_40  and  C_41
REMARK   33  A    between atoms: C_41  and  C_42
REMARK   34  A    between atoms: C_45  and  N_57
REMARK   35  A    between atoms: C_47  and  O_49
REMARK   36  A    between atoms: C_50  and  O_52
REMARK   37  A    between atoms: O_52  and  P_53
REMARK   38  A    between atoms: P_53  and  O_54
REMARK   39  A    between atoms: P_53  and  O_55
REMARK                            x       y       z     vdW  Elec       q    Type
REMARK                         _______ _______ _______ _____ _____    ______ ____
ROOT
ATOM      1  P   UNL     1       8.855  -1.900  23.025  0.00  0.00    +0.483 P 
ATOM      2  O   UNL     1      10.168  -2.401  23.627  0.00  0.00    -0.227 OA
ENDROOT
BRANCH   1   3
ATOM      3  O   UNL     1       9.686  -1.659  21.529  0.00  0.00    -0.302 OA
ATOM      4  H   UNL     1      10.630  -1.761  21.765  0.00  0.00    +0.222 HD
ENDBRANCH   1   3
BRANCH   1   5
ATOM      5  O   UNL     1       8.022  -2.142  24.523  0.00  0.00    -0.186 OA
BRANCH   5   6
ATOM      6  P   UNL     1       7.239  -0.673  24.991  0.00  0.00    +0.483 P 
ATOM      7  O   UNL     1       7.061  -0.302  23.519  0.00  0.00    -0.227 OA
BRANCH   6   8
ATOM      8  O   UNL     1       8.749  -0.090  25.273  0.00  0.00    -0.302 OA
ATOM      9  H   UNL     1       8.619   0.751  25.766  0.00  0.00    +0.222 HD
ENDBRANCH   6   8
BRANCH   6  10
ATOM     10  O   UNL     1       6.455   0.797  25.460  0.00  0.00    -0.284 OA
BRANCH  10  11
ATOM     11  C   UNL     1       7.412   1.794  25.908  0.00  0.00    +0.206 C 
BRANCH  11  12
ATOM     12  C   UNL     1       7.543   3.066  25.103  0.00  0.00    +0.179 C 
ATOM     13  C   UNL     1       8.198   2.841  23.761  0.00  0.00    +0.194 C 
ATOM     14  C   UNL     1       7.143   3.253  22.758  0.00  0.00    +0.196 C 
ATOM     15  C   UNL     1       5.848   3.331  23.568  0.00  0.00    +0.253 C 
ATOM     16  O   UNL     1       6.234   3.608  24.916  0.00  0.00    -0.346 OA
BRANCH  15  17
ATOM     17  N   UNL     1       4.957   4.391  23.145  0.00  0.00    -0.286 N 
ATOM     18  C   UNL     1       3.620   4.234  22.898  0.00  0.00    +0.167 A 
ATOM     19  N   UNL     1       2.906   3.098  22.958  0.00  0.00    -0.216 NA
ATOM     20  C   UNL     1       1.628   3.332  22.588  0.00  0.00    +0.225 A 
ATOM     21  N   UNL     1       1.051   4.499  22.238  0.00  0.00    -0.219 NA
ATOM     22  C   UNL     1       1.818   5.608  22.203  0.00  0.00    +0.147 A 
ATOM     23  N   UNL     1       1.223   6.798  21.799  0.00  0.00    -0.341 N 
ATOM     24  H   UNL     1       1.890   7.438  21.377  0.00  0.00    +0.144 HD
ATOM     25  H   UNL     1       0.371   6.608  21.267  0.00  0.00    +0.144 HD
ATOM     26  C   UNL     1       3.177   5.492  22.525  0.00  0.00    +0.147 A 
ATOM     27  N   UNL     1       4.220   6.393  22.520  0.00  0.00    -0.231 NA
ATOM     28  C   UNL     1       5.270   5.697  22.895  0.00  0.00    +0.203 A 
ENDBRANCH  15  17
BRANCH  14  29
ATOM     29  O   UNL     1       7.133   2.296  21.702  0.00  0.00    -0.385 OA
ATOM     30  H   UNL     1       6.671   2.730  20.953  0.00  0.00    +0.210 HD
ENDBRANCH  14  29
BRANCH  13  31
ATOM     31  O   UNL     1       9.342   3.682  23.683  0.00  0.00    -0.278 OA
BRANCH  31  32
ATOM     32  P   UNL     1      10.735   3.067  23.195  0.00  0.00    +0.473 P 
ATOM     33  O   UNL     1      11.916   3.968  23.294  0.00  0.00    -0.228 OA
BRANCH  32  34
ATOM     34  O   UNL     1      10.429   2.489  21.746  0.00  0.00    -0.303 OA
ATOM     35  H   UNL     1       9.571   2.799  21.396  0.00  0.00    +0.222 HD
ENDBRANCH  32  34
BRANCH  32  36
ATOM     36  O   UNL     1      10.836   1.764  24.110  0.00  0.00    -0.303 OA
ATOM     37  H   UNL     1      11.572   1.838  24.741  0.00  0.00    +0.222 HD
ENDBRANCH  32  36
ENDBRANCH  31  32
ENDBRANCH  13  31
ENDBRANCH  11  12
ENDBRANCH  10  11
ENDBRANCH   6  10
ENDBRANCH   5   6
ENDBRANCH   1   5
BRANCH   1  38
ATOM     38  O   UNL     1       8.033  -3.165  22.334  0.00  0.00    -0.286 OA
BRANCH  38  39
ATOM     39  C   UNL     1       7.633  -4.284  23.127  0.00  0.00    +0.181 C 
BRANCH  39  40
ATOM     40  C   UNL     1       6.108  -4.622  22.993  0.00  0.00    +0.024 C 
ATOM     41  C   UNL     1       5.298  -3.412  22.498  0.00  0.00    +0.016 C 
ATOM     42  C   UNL     1       5.911  -5.714  21.915  0.00  0.00    +0.016 C 
BRANCH  40  43
ATOM     43  C   UNL     1       5.520  -5.150  24.347  0.00  0.00    +0.208 C 
BRANCH  43  46
ATOM     44  N   UNL     1       3.184  -5.899  24.070  0.00  0.00    -0.313 N 
ATOM     45  H   UNL     1       2.991  -4.906  24.168  0.00  0.00    +0.149 HD
ATOM     46  C   UNL     1       4.493  -6.302  24.216  0.00  0.00    +0.242 C 
ATOM     47  O   UNL     1       4.831  -7.479  24.246  0.00  0.00    -0.273 OA
BRANCH  44  48
ATOM     48  C   UNL     1       2.054  -6.812  23.925  0.00  0.00    +0.113 C 
BRANCH  48  49
ATOM     49  C   UNL     1       1.177  -6.994  25.155  0.00  0.00    +0.114 C 
BRANCH  49  52
ATOM     50  N   UNL     1       2.430  -7.243  27.199  0.00  0.00    -0.314 N 
ATOM     51  H   UNL     1       2.121  -8.210  27.105  0.00  0.00    +0.149 HD
ATOM     52  C   UNL     1       1.812  -6.345  26.363  0.00  0.00    +0.215 C 
ATOM     53  O   UNL     1       1.813  -5.132  26.537  0.00  0.00    -0.276 OA
BRANCH  50  54
ATOM     54  C   UNL     1       2.923  -6.871  28.512  0.00  0.00    +0.115 C 
BRANCH  54  55
ATOM     55  C   UNL     1       4.417  -7.097  28.686  0.00  0.00    +0.096 C 
BRANCH  55  56
ATOM     56  S   UNL     1       5.104  -5.776  29.736  0.00  0.00    -0.087 S 
BRANCH  56  57
ATOM     57  C   UNL     1       5.605  -4.667  28.503  0.00  0.00    +0.189 C 
ATOM     58  O   UNL     1       6.707  -4.739  27.958  0.00  0.00    -0.285 OA
BRANCH  57  59
ATOM     59  C   UNL     1       4.572  -3.623  28.228  0.00  0.00    +0.086 C 
BRANCH  59  60
ATOM     60  C   UNL     1       5.081  -2.743  27.124  0.00  0.00    +0.008 C 
BRANCH  60  61
ATOM     61  C   UNL     1       3.946  -2.391  26.199  0.00  0.00    +0.000 C 
BRANCH  61  62
ATOM     62  C   UNL     1       2.876  -1.778  27.062  0.00  0.00    +0.000 C 
BRANCH  62  63
ATOM     63  C   UNL     1       3.176  -0.330  27.332  0.00  0.00    +0.000 C 
BRANCH  63  64
ATOM     64  C   UNL     1       2.864  -0.079  28.791  0.00  0.00    +0.000 C 
BRANCH  64  65
ATOM     65  C   UNL     1       4.137  -0.142  29.601  0.00  0.00    -0.000 C 
BRANCH  65  66
ATOM     66  C   UNL     1       5.246   0.600  28.878  0.00  0.00    -0.000 C 
BRANCH  66  67
ATOM     67  C   UNL     1       5.094   2.092  29.114  0.00  0.00    -0.000 C 
BRANCH  67  69
ATOM     68  C   UNL     1       7.294   2.913  29.958  0.00  0.00    +0.004 C 
ATOM     69  C   UNL     1       5.879   2.526  30.342  0.00  0.00    -0.003 C 
ENDBRANCH  67  69
ENDBRANCH  66  67
ENDBRANCH  65  66
ENDBRANCH  64  65
ENDBRANCH  63  64
ENDBRANCH  62  63
ENDBRANCH  61  62
ENDBRANCH  60  61
ENDBRANCH  59  60
ENDBRANCH  57  59
ENDBRANCH  56  57
ENDBRANCH  55  56
ENDBRANCH  54  55
ENDBRANCH  50  54
ENDBRANCH  49  52
ENDBRANCH  48  49
ENDBRANCH  44  48
ENDBRANCH  43  46
BRANCH  43  70
ATOM     70  O   UNL     1       6.578  -5.538  25.236  0.00  0.00    -0.382 OA
ATOM     71  H   UNL     1       6.271  -5.338  26.138  0.00  0.00    +0.210 HD
ENDBRANCH  43  70
ENDBRANCH  40  43
ENDBRANCH  39  40
ENDBRANCH  38  39
ENDBRANCH   1  38
TORSDOF 36
ENDMDL
MODEL 6
REMARK VINA RESULT:      -4.5      2.101      4.636
REMARK  Name = 
REMARK  39 active torsions:
REMARK  status: ('A' for Active; 'I' for Inactive)
REMARK    1  A    between atoms: C_1  and  C_2
REMARK    2  A    between atoms: C_2  and  C_3
REMARK    3  A    between atoms: C_3  and  C_4
REMARK    4  A    between atoms: C_4  and  C_5
REMARK    5  A    between atoms: C_5  and  C_6
REMARK    6  A    between atoms: C_6  and  C_7
REMARK    7  A    between atoms: C_7  and  C_8
REMARK    8  A    between atoms: C_8  and  C_9
REMARK    9  A    between atoms: C_9  and  C_10
REMARK   10  A    between atoms: C_10  and  C_11
REMARK   11  A    between atoms: C_11  and  C_12
REMARK   12  A    between atoms: C_12  and  S_14
REMARK   13  A    between atoms: S_14  and  C_15
REMARK   14  A    between atoms: C_15  and  C_16
REMARK   15  A    between atoms: C_16  and  N_17
REMARK   16  A    between atoms: C_18  and  C_20
REMARK   17  A    between atoms: C_20  and  C_21
REMARK   18  A    between atoms: C_21  and  N_22
REMARK   19  A    between atoms: C_23  and  C_25
REMARK   20  A    between atoms: C_25  and  O_27
REMARK   21  A    between atoms: C_25  and  C_28
REMARK   22  A    between atoms: C_28  and  C_29
REMARK   23  A    between atoms: C_28  and  C_30
REMARK   24  A    between atoms: C_28  and  C_31
REMARK   25  A    between atoms: C_31  and  O_32
REMARK   26  A    between atoms: O_32  and  P_33
REMARK   27  A    between atoms: P_33  and  O_34
REMARK   28  A    between atoms: P_33  and  O_36
REMARK   29  A    between atoms: O_36  and  P_37
REMARK   30  A    between atoms: P_37  and  O_38
REMARK   31  A    between atoms: P_37  and  O_40
REMARK   32  A    between atoms: O_40  and  C_41
REMARK   33  A    between atoms: C_41  and  C_42
REMARK   34  A    between atoms: C_45  and  N_57
REMARK   35  A    between atoms: C_47  and  O_49
REMARK   36  A    between atoms: C_50  and  O_52
REMARK   37  A    between atoms: O_52  and  P_53
REMARK   38  A    between atoms: P_53  and  O_54
REMARK   39  A    between atoms: P_53  and  O_55
REMARK                            x       y       z     vdW  Elec       q    Type
REMARK                         _______ _______ _______ _____ _____    ______ ____
ROOT
ATOM      1  P   UNL     1       2.645   2.556  26.755  0.00  0.00    +0.483 P 
ATOM      2  O   UNL     1       3.152   1.979  28.077  0.00  0.00    -0.227 OA
ENDROOT
BRANCH   1   3
ATOM      3  O   UNL     1       3.429   4.044  27.158  0.00  0.00    -0.302 OA
ATOM      4  H   UNL     1       3.807   3.877  28.046  0.00  0.00    +0.222 HD
ENDBRANCH   1   3
BRANCH   1   5
ATOM      5  O   UNL     1       1.861   1.068  26.351  0.00  0.00    -0.186 OA
BRANCH   5   6
ATOM      6  P   UNL     1       2.415  -0.182  27.410  0.00  0.00    +0.483 P 
ATOM      7  O   UNL     1       2.061  -1.230  26.355  0.00  0.00    -0.227 OA
BRANCH   6   8
ATOM      8  O   UNL     1       0.971  -0.018  28.175  0.00  0.00    -0.302 OA
ATOM      9  H   UNL     1       0.570   0.802  27.809  0.00  0.00    +0.222 HD
ENDBRANCH   6   8
BRANCH   6  10
ATOM     10  O   UNL     1       2.971  -1.433  28.469  0.00  0.00    -0.284 OA
BRANCH  10  11
ATOM     11  C   UNL     1       2.075  -2.577  28.461  0.00  0.00    +0.206 C 
BRANCH  11  12
ATOM     12  C   UNL     1       2.668  -3.941  28.196  0.00  0.00    +0.179 C 
ATOM     13  C   UNL     1       2.222  -4.525  26.876  0.00  0.00    +0.194 C 
ATOM     14  C   UNL     1       3.503  -4.690  26.090  0.00  0.00    +0.196 C 
ATOM     15  C   UNL     1       4.536  -3.859  26.852  0.00  0.00    +0.253 C 
ATOM     16  O   UNL     1       4.092  -3.815  28.210  0.00  0.00    -0.346 OA
BRANCH  15  17
ATOM     17  N   UNL     1       5.865  -4.432  26.848  0.00  0.00    -0.286 N 
ATOM     18  C   UNL     1       6.770  -4.295  25.830  0.00  0.00    +0.167 A 
ATOM     19  N   UNL     1       6.595  -3.659  24.660  0.00  0.00    -0.216 NA
ATOM     20  C   UNL     1       7.696  -3.792  23.889  0.00  0.00    +0.225 A 
ATOM     21  N   UNL     1       8.859  -4.410  24.177  0.00  0.00    -0.219 NA
ATOM     22  C   UNL     1       8.979  -5.025  25.371  0.00  0.00    +0.147 A 
ATOM     23  N   UNL     1      10.166  -5.696  25.641  0.00  0.00    -0.341 N 
ATOM     24  H   UNL     1      10.036  -6.463  26.295  0.00  0.00    +0.144 HD
ATOM     25  H   UNL     1      10.658  -5.913  24.772  0.00  0.00    +0.144 HD
ATOM     26  C   UNL     1       7.887  -4.998  26.251  0.00  0.00    +0.147 A 
ATOM     27  N   UNL     1       7.665  -5.571  27.485  0.00  0.00    -0.231 NA
ATOM     28  C   UNL     1       6.444  -5.212  27.810  0.00  0.00    +0.203 A 
ENDBRANCH  15  17
BRANCH  14  29
ATOM     29  O   UNL     1       3.263  -4.264  24.751  0.00  0.00    -0.385 OA
ATOM     30  H   UNL     1       2.673  -3.482  24.821  0.00  0.00    +0.210 HD
ENDBRANCH  14  29
BRANCH  13  31
ATOM     31  O   UNL     1       1.609  -5.782  27.136  0.00  0.00    -0.278 OA
BRANCH  31  32
ATOM     32  P   UNL     1       2.400  -7.126  26.784  0.00  0.00    +0.473 P 
ATOM     33  O   UNL     1       3.009  -7.188  25.427  0.00  0.00    -0.228 OA
BRANCH  32  34
ATOM     34  O   UNL     1       1.380  -8.293  27.137  0.00  0.00    -0.303 OA
ATOM     35  H   UNL     1       1.287  -8.937  26.408  0.00  0.00    +0.222 HD
ENDBRANCH  32  34
BRANCH  32  36
ATOM     36  O   UNL     1       3.463  -7.180  27.973  0.00  0.00    -0.303 OA
ATOM     37  H   UNL     1       4.371  -7.217  27.627  0.00  0.00    +0.222 HD
ENDBRANCH  32  36
ENDBRANCH  31  32
ENDBRANCH  13  31
ENDBRANCH  11  12
ENDBRANCH  10  11
ENDBRANCH   6  10
ENDBRANCH   5   6
ENDBRANCH   1   5
BRANCH   1  38
ATOM     38  O   UNL     1       3.776   2.314  25.565  0.00  0.00    -0.286 OA
BRANCH  38  39
ATOM     39  C   UNL     1       3.649   2.977  24.306  0.00  0.00    +0.181 C 
BRANCH  39  40
ATOM     40  C   UNL     1       5.006   3.557  23.775  0.00  0.00    +0.024 C 
ATOM     41  C   UNL     1       4.791   4.821  22.926  0.00  0.00    +0.016 C 
ATOM     42  C   UNL     1       5.880   4.010  24.968  0.00  0.00    +0.016 C 
BRANCH  40  43
ATOM     43  C   UNL     1       5.803   2.483  22.956  0.00  0.00    +0.208 C 
BRANCH  43  46
ATOM     44  N   UNL     1       8.189   1.945  23.291  0.00  0.00    -0.313 N 
ATOM     45  H   UNL     1       7.807   1.238  23.913  0.00  0.00    +0.149 HD
ATOM     46  C   UNL     1       7.295   2.816  22.708  0.00  0.00    +0.242 C 
ATOM     47  O   UNL     1       7.642   3.785  22.044  0.00  0.00    -0.273 OA
BRANCH  44  48
ATOM     48  C   UNL     1       9.640   2.062  23.184  0.00  0.00    +0.113 C 
BRANCH  48  49
ATOM     49  C   UNL     1      10.452   1.312  24.231  0.00  0.00    +0.114 C 
BRANCH  49  52
ATOM     50  N   UNL     1       9.242   0.171  25.974  0.00  0.00    -0.314 N 
ATOM     51  H   UNL     1       9.699   0.872  26.556  0.00  0.00    +0.149 HD
ATOM     52  C   UNL     1       9.717   0.074  24.689  0.00  0.00    +0.215 C 
ATOM     53  O   UNL     1       9.525  -0.890  23.957  0.00  0.00    -0.276 OA
BRANCH  50  54
ATOM     54  C   UNL     1       8.689  -0.966  26.687  0.00  0.00    +0.115 C 
BRANCH  54  55
ATOM     55  C   UNL     1       7.220  -0.803  27.044  0.00  0.00    +0.096 C 
BRANCH  55  56
ATOM     56  S   UNL     1       6.800   0.970  27.054  0.00  0.00    -0.087 S 
BRANCH  56  57
ATOM     57  C   UNL     1       6.431   1.162  28.737  0.00  0.00    +0.189 C 
ATOM     58  O   UNL     1       5.694   0.384  29.344  0.00  0.00    -0.285 OA
BRANCH  57  59
ATOM     59  C   UNL     1       7.071   2.379  29.320  0.00  0.00    +0.086 C 
BRANCH  59  60
ATOM     60  C   UNL     1       6.856   3.519  28.369  0.00  0.00    +0.008 C 
BRANCH  60  61
ATOM     61  C   UNL     1       6.282   4.694  29.116  0.00  0.00    +0.000 C 
BRANCH  61  62
ATOM     62  C   UNL     1       7.234   5.839  28.895  0.00  0.00    +0.000 C 
BRANCH  62  63
ATOM     63  C   UNL     1       7.011   6.461  27.545  0.00  0.00    +0.000 C 
BRANCH  63  64
ATOM     64  C   UNL     1       8.362   6.919  27.041  0.00  0.00    +0.000 C 
BRANCH  64  65
ATOM     65  C   UNL     1       8.790   6.057  25.877  0.00  0.00    -0.000 C 
BRANCH  65  66
ATOM     66  C   UNL     1       8.438   6.743  24.570  0.00  0.00    -0.000 C 
BRANCH  66  67
ATOM     67  C   UNL     1       9.507   6.439  23.536  0.00  0.00    -0.000 C 
BRANCH  67  69
ATOM     68  C   UNL     1      11.854   5.611  23.365  0.00  0.00    +0.004 C 
ATOM     69  C   UNL     1      10.533   5.463  24.092  0.00  0.00    -0.003 C 
ENDBRANCH  67  69
ENDBRANCH  66  67
ENDBRANCH  65  66
ENDBRANCH  64  65
ENDBRANCH  63  64
ENDBRANCH  62  63
ENDBRANCH  61  62
ENDBRANCH  60  61
ENDBRANCH  59  60
ENDBRANCH  57  59
ENDBRANCH  56  57
ENDBRANCH  55  56
ENDBRANCH  54  55
ENDBRANCH  50  54
ENDBRANCH  49  52
ENDBRANCH  48  49
ENDBRANCH  44  48
ENDBRANCH  43  46
BRANCH  43  70
ATOM     70  O   UNL     1       5.687   1.193  23.575  0.00  0.00    -0.382 OA
ATOM     71  H   UNL     1       5.968   1.302  24.501  0.00  0.00    +0.210 HD
ENDBRANCH  43  70
ENDBRANCH  40  43
ENDBRANCH  39  40
ENDBRANCH  38  39
ENDBRANCH   1  38
TORSDOF 36
ENDMDL
MODEL 7
REMARK VINA RESULT:      -4.4      4.081      9.982
REMARK  Name = 
REMARK  39 active torsions:
REMARK  status: ('A' for Active; 'I' for Inactive)
REMARK    1  A    between atoms: C_1  and  C_2
REMARK    2  A    between atoms: C_2  and  C_3
REMARK    3  A    between atoms: C_3  and  C_4
REMARK    4  A    between atoms: C_4  and  C_5
REMARK    5  A    between atoms: C_5  and  C_6
REMARK    6  A    between atoms: C_6  and  C_7
REMARK    7  A    between atoms: C_7  and  C_8
REMARK    8  A    between atoms: C_8  and  C_9
REMARK    9  A    between atoms: C_9  and  C_10
REMARK   10  A    between atoms: C_10  and  C_11
REMARK   11  A    between atoms: C_11  and  C_12
REMARK   12  A    between atoms: C_12  and  S_14
REMARK   13  A    between atoms: S_14  and  C_15
REMARK   14  A    between atoms: C_15  and  C_16
REMARK   15  A    between atoms: C_16  and  N_17
REMARK   16  A    between atoms: C_18  and  C_20
REMARK   17  A    between atoms: C_20  and  C_21
REMARK   18  A    between atoms: C_21  and  N_22
REMARK   19  A    between atoms: C_23  and  C_25
REMARK   20  A    between atoms: C_25  and  O_27
REMARK   21  A    between atoms: C_25  and  C_28
REMARK   22  A    between atoms: C_28  and  C_29
REMARK   23  A    between atoms: C_28  and  C_30
REMARK   24  A    between atoms: C_28  and  C_31
REMARK   25  A    between atoms: C_31  and  O_32
REMARK   26  A    between atoms: O_32  and  P_33
REMARK   27  A    between atoms: P_33  and  O_34
REMARK   28  A    between atoms: P_33  and  O_36
REMARK   29  A    between atoms: O_36  and  P_37
REMARK   30  A    between atoms: P_37  and  O_38
REMARK   31  A    between atoms: P_37  and  O_40
REMARK   32  A    between atoms: O_40  and  C_41
REMARK   33  A    between atoms: C_41  and  C_42
REMARK   34  A    between atoms: C_45  and  N_57
REMARK   35  A    between atoms: C_47  and  O_49
REMARK   36  A    between atoms: C_50  and  O_52
REMARK   37  A    between atoms: O_52  and  P_53
REMARK   38  A    between atoms: P_53  and  O_54
REMARK   39  A    between atoms: P_53  and  O_55
REMARK                            x       y       z     vdW  Elec       q    Type
REMARK                         _______ _______ _______ _____ _____    ______ ____
ROOT
ATOM      1  P   UNL     1       8.885  -1.563  22.950  0.00  0.00    +0.483 P 
ATOM      2  O   UNL     1      10.211  -1.813  23.670  0.00  0.00    -0.227 OA
ENDROOT
BRANCH   1   3
ATOM      3  O   UNL     1       9.776  -1.340  21.485  0.00  0.00    -0.302 OA
ATOM      4  H   UNL     1      10.000  -2.251  21.205  0.00  0.00    +0.222 HD
ENDBRANCH   1   3
BRANCH   1   5
ATOM      5  O   UNL     1       7.994  -1.786  24.417  0.00  0.00    -0.186 OA
BRANCH   5   6
ATOM      6  P   UNL     1       6.657  -0.690  24.451  0.00  0.00    +0.483 P 
ATOM      7  O   UNL     1       7.043  -0.179  23.063  0.00  0.00    -0.227 OA
BRANCH   6   8
ATOM      8  O   UNL     1       7.604   0.259  25.401  0.00  0.00    -0.302 OA
ATOM      9  H   UNL     1       7.270   0.131  26.317  0.00  0.00    +0.222 HD
ENDBRANCH   6   8
BRANCH   6  10
ATOM     10  O   UNL     1       5.318   0.407  24.485  0.00  0.00    -0.284 OA
BRANCH  10  11
ATOM     11  C   UNL     1       5.695   1.693  25.046  0.00  0.00    +0.206 C 
BRANCH  11  12
ATOM     12  C   UNL     1       6.125   2.785  24.094  0.00  0.00    +0.179 C 
ATOM     13  C   UNL     1       5.195   3.975  24.114  0.00  0.00    +0.194 C 
ATOM     14  C   UNL     1       6.068   5.122  24.571  0.00  0.00    +0.196 C 
ATOM     15  C   UNL     1       7.325   4.454  25.132  0.00  0.00    +0.253 C 
ATOM     16  O   UNL     1       7.444   3.197  24.461  0.00  0.00    -0.346 OA
BRANCH  15  17
ATOM     17  N   UNL     1       8.542   5.197  24.882  0.00  0.00    -0.286 N 
ATOM     18  C   UNL     1       9.658   4.684  24.278  0.00  0.00    +0.167 A 
ATOM     19  N   UNL     1       9.852   3.426  23.851  0.00  0.00    -0.216 NA
ATOM     20  C   UNL     1      11.104   3.287  23.363  0.00  0.00    +0.225 A 
ATOM     21  N   UNL     1      12.069   4.220  23.239  0.00  0.00    -0.219 NA
ATOM     22  C   UNL     1      11.814   5.469  23.679  0.00  0.00    +0.147 A 
ATOM     23  N   UNL     1      12.831   6.412  23.586  0.00  0.00    -0.341 N 
ATOM     24  H   UNL     1      12.751   7.137  24.295  0.00  0.00    +0.144 HD
ATOM     25  H   UNL     1      13.739   5.950  23.504  0.00  0.00    +0.144 HD
ATOM     26  C   UNL     1      10.561   5.734  24.249  0.00  0.00    +0.147 A 
ATOM     27  N   UNL     1      10.021   6.856  24.841  0.00  0.00    -0.231 NA
ATOM     28  C   UNL     1       8.812   6.496  25.209  0.00  0.00    +0.203 A 
ENDBRANCH  15  17
BRANCH  14  29
ATOM     29  O   UNL     1       5.331   5.897  25.514  0.00  0.00    -0.385 OA
ATOM     30  H   UNL     1       5.943   6.601  25.818  0.00  0.00    +0.210 HD
ENDBRANCH  14  29
BRANCH  13  31
ATOM     31  O   UNL     1       4.719   4.183  22.790  0.00  0.00    -0.278 OA
BRANCH  31  32
ATOM     32  P   UNL     1       3.144   4.190  22.517  0.00  0.00    +0.473 P 
ATOM     33  O   UNL     1       2.421   2.929  22.836  0.00  0.00    -0.228 OA
BRANCH  32  34
ATOM     34  O   UNL     1       3.002   4.707  21.020  0.00  0.00    -0.303 OA
ATOM     35  H   UNL     1       3.811   5.152  20.703  0.00  0.00    +0.222 HD
ENDBRANCH  32  34
BRANCH  32  36
ATOM     36  O   UNL     1       2.683   5.441  23.394  0.00  0.00    -0.303 OA
ATOM     37  H   UNL     1       2.925   5.318  24.328  0.00  0.00    +0.222 HD
ENDBRANCH  32  36
ENDBRANCH  31  32
ENDBRANCH  13  31
ENDBRANCH  11  12
ENDBRANCH  10  11
ENDBRANCH   6  10
ENDBRANCH   5   6
ENDBRANCH   1   5
BRANCH   1  38
ATOM     38  O   UNL     1       8.296  -2.990  22.344  0.00  0.00    -0.286 OA
BRANCH  38  39
ATOM     39  C   UNL     1       7.883  -4.033  23.228  0.00  0.00    +0.181 C 
BRANCH  39  40
ATOM     40  C   UNL     1       6.483  -4.637  22.860  0.00  0.00    +0.024 C 
ATOM     41  C   UNL     1       5.639  -3.653  22.033  0.00  0.00    +0.016 C 
ATOM     42  C   UNL     1       6.673  -5.875  21.952  0.00  0.00    +0.016 C 
BRANCH  40  43
ATOM     43  C   UNL     1       5.699  -5.079  24.143  0.00  0.00    +0.208 C 
BRANCH  43  46
ATOM     44  N   UNL     1       3.411  -5.648  23.409  0.00  0.00    -0.313 N 
ATOM     45  H   UNL     1       3.323  -4.638  23.340  0.00  0.00    +0.149 HD
ATOM     46  C   UNL     1       4.596  -6.141  23.910  0.00  0.00    +0.242 C 
ATOM     47  O   UNL     1       4.774  -7.327  24.159  0.00  0.00    -0.273 OA
BRANCH  44  48
ATOM     48  C   UNL     1       2.241  -6.467  23.108  0.00  0.00    +0.113 C 
BRANCH  48  49
ATOM     49  C   UNL     1       1.359  -6.837  24.292  0.00  0.00    +0.114 C 
BRANCH  49  52
ATOM     50  N   UNL     1       1.837  -6.312  26.595  0.00  0.00    -0.314 N 
ATOM     51  H   UNL     1       1.681  -7.313  26.708  0.00  0.00    +0.149 HD
ATOM     52  C   UNL     1       1.462  -5.793  25.380  0.00  0.00    +0.215 C 
ATOM     53  O   UNL     1       1.278  -4.599  25.170  0.00  0.00    -0.276 OA
BRANCH  50  54
ATOM     54  C   UNL     1       1.800  -5.533  27.818  0.00  0.00    +0.115 C 
BRANCH  54  55
ATOM     55  C   UNL     1       2.947  -5.839  28.768  0.00  0.00    +0.096 C 
BRANCH  55  56
ATOM     56  S   UNL     1       4.345  -6.519  27.818  0.00  0.00    -0.087 S 
BRANCH  56  57
ATOM     57  C   UNL     1       5.559  -5.352  28.228  0.00  0.00    +0.189 C 
ATOM     58  O   UNL     1       6.761  -5.623  28.235  0.00  0.00    -0.285 OA
BRANCH  57  59
ATOM     59  C   UNL     1       4.970  -4.030  28.598  0.00  0.00    +0.086 C 
BRANCH  59  60
ATOM     60  C   UNL     1       5.252  -3.066  27.483  0.00  0.00    +0.008 C 
BRANCH  60  61
ATOM     61  C   UNL     1       4.046  -2.968  26.587  0.00  0.00    +0.000 C 
BRANCH  61  62
ATOM     62  C   UNL     1       3.520  -1.567  26.742  0.00  0.00    +0.000 C 
BRANCH  62  63
ATOM     63  C   UNL     1       2.491  -1.503  27.836  0.00  0.00    +0.000 C 
BRANCH  63  64
ATOM     64  C   UNL     1       2.879  -0.353  28.740  0.00  0.00    +0.000 C 
BRANCH  64  65
ATOM     65  C   UNL     1       3.395   0.797  27.908  0.00  0.00    -0.000 C 
BRANCH  65  66
ATOM     66  C   UNL     1       4.548   1.476  28.624  0.00  0.00    -0.000 C 
BRANCH  66  67
ATOM     67  C   UNL     1       5.763   0.567  28.600  0.00  0.00    -0.000 C 
BRANCH  67  69
ATOM     68  C   UNL     1       6.884   2.790  28.453  0.00  0.00    +0.004 C 
ATOM     69  C   UNL     1       7.029   1.352  28.907  0.00  0.00    -0.003 C 
ENDBRANCH  67  69
ENDBRANCH  66  67
ENDBRANCH  65  66
ENDBRANCH  64  65
ENDBRANCH  63  64
ENDBRANCH  62  63
ENDBRANCH  61  62
ENDBRANCH  60  61
ENDBRANCH  59  60
ENDBRANCH  57  59
ENDBRANCH  56  57
ENDBRANCH  55  56
ENDBRANCH  54  55
ENDBRANCH  50  54
ENDBRANCH  49  52
ENDBRANCH  48  49
ENDBRANCH  44  48
ENDBRANCH  43  46
BRANCH  43  70
ATOM     70  O   UNL     1       6.609  -5.535  25.156  0.00  0.00    -0.382 OA
ATOM     71  H   UNL     1       7.003  -6.361  24.824  0.00  0.00    +0.210 HD
ENDBRANCH  43  70
ENDBRANCH  40  43
ENDBRANCH  39  40
ENDBRANCH  38  39
ENDBRANCH   1  38
TORSDOF 36
ENDMDL
MODEL 8
REMARK VINA RESULT:      -4.3      3.891      8.395
REMARK  Name = 
REMARK  39 active torsions:
REMARK  status: ('A' for Active; 'I' for Inactive)
REMARK    1  A    between atoms: C_1  and  C_2
REMARK    2  A    between atoms: C_2  and  C_3
REMARK    3  A    between atoms: C_3  and  C_4
REMARK    4  A    between atoms: C_4  and  C_5
REMARK    5  A    between atoms: C_5  and  C_6
REMARK    6  A    between atoms: C_6  and  C_7
REMARK    7  A    between atoms: C_7  and  C_8
REMARK    8  A    between atoms: C_8  and  C_9
REMARK    9  A    between atoms: C_9  and  C_10
REMARK   10  A    between atoms: C_10  and  C_11
REMARK   11  A    between atoms: C_11  and  C_12
REMARK   12  A    between atoms: C_12  and  S_14
REMARK   13  A    between atoms: S_14  and  C_15
REMARK   14  A    between atoms: C_15  and  C_16
REMARK   15  A    between atoms: C_16  and  N_17
REMARK   16  A    between atoms: C_18  and  C_20
REMARK   17  A    between atoms: C_20  and  C_21
REMARK   18  A    between atoms: C_21  and  N_22
REMARK   19  A    between atoms: C_23  and  C_25
REMARK   20  A    between atoms: C_25  and  O_27
REMARK   21  A    between atoms: C_25  and  C_28
REMARK   22  A    between atoms: C_28  and  C_29
REMARK   23  A    between atoms: C_28  and  C_30
REMARK   24  A    between atoms: C_28  and  C_31
REMARK   25  A    between atoms: C_31  and  O_32
REMARK   26  A    between atoms: O_32  and  P_33
REMARK   27  A    between atoms: P_33  and  O_34
REMARK   28  A    between atoms: P_33  and  O_36
REMARK   29  A    between atoms: O_36  and  P_37
REMARK   30  A    between atoms: P_37  and  O_38
REMARK   31  A    between atoms: P_37  and  O_40
REMARK   32  A    between atoms: O_40  and  C_41
REMARK   33  A    between atoms: C_41  and  C_42
REMARK   34  A    between atoms: C_45  and  N_57
REMARK   35  A    between atoms: C_47  and  O_49
REMARK   36  A    between atoms: C_50  and  O_52
REMARK   37  A    between atoms: O_52  and  P_53
REMARK   38  A    between atoms: P_53  and  O_54
REMARK   39  A    between atoms: P_53  and  O_55
REMARK                            x       y       z     vdW  Elec       q    Type
REMARK                         _______ _______ _______ _____ _____    ______ ____
ROOT
ATOM      1  P   UNL     1       7.019   2.926  22.262  0.00  0.00    +0.483 P 
ATOM      2  O   UNL     1       7.580   1.504  22.245  0.00  0.00    -0.227 OA
ENDROOT
BRANCH   1   3
ATOM      3  O   UNL     1       5.428   2.249  22.247  0.00  0.00    -0.302 OA
ATOM      4  H   UNL     1       5.264   2.056  21.301  0.00  0.00    +0.222 HD
ENDBRANCH   1   3
BRANCH   1   5
ATOM      5  O   UNL     1       8.610   3.605  22.278  0.00  0.00    -0.186 OA
BRANCH   5   6
ATOM      6  P   UNL     1       9.701   2.499  23.038  0.00  0.00    +0.483 P 
ATOM      7  O   UNL     1      10.653   3.653  23.347  0.00  0.00    -0.227 OA
BRANCH   6   8
ATOM      8  O   UNL     1      10.182   2.104  21.518  0.00  0.00    -0.302 OA
ATOM      9  H   UNL     1      11.155   1.970  21.575  0.00  0.00    +0.222 HD
ENDBRANCH   6   8
BRANCH   6  10
ATOM     10  O   UNL     1      10.792   1.392  23.799  0.00  0.00    -0.284 OA
BRANCH  10  11
ATOM     11  C   UNL     1      10.190   0.763  24.963  0.00  0.00    +0.206 C 
BRANCH  11  12
ATOM     12  C   UNL     1       8.730   0.380  24.888  0.00  0.00    +0.179 C 
ATOM     13  C   UNL     1       8.514  -1.113  24.959  0.00  0.00    +0.194 C 
ATOM     14  C   UNL     1       7.684  -1.310  26.208  0.00  0.00    +0.196 C 
ATOM     15  C   UNL     1       7.792   0.019  26.959  0.00  0.00    +0.253 C 
ATOM     16  O   UNL     1       8.049   1.018  25.970  0.00  0.00    -0.346 OA
BRANCH  15  17
ATOM     17  N   UNL     1       6.581   0.396  27.655  0.00  0.00    -0.286 N 
ATOM     18  C   UNL     1       6.498   1.388  28.595  0.00  0.00    +0.167 A 
ATOM     19  N   UNL     1       7.497   2.150  29.069  0.00  0.00    -0.216 NA
ATOM     20  C   UNL     1       7.035   2.978  30.031  0.00  0.00    +0.225 A 
ATOM     21  N   UNL     1       5.774   3.123  30.485  0.00  0.00    -0.219 NA
ATOM     22  C   UNL     1       4.811   2.335  29.965  0.00  0.00    +0.147 A 
ATOM     23  N   UNL     1       3.522   2.463  30.471  0.00  0.00    -0.341 N 
ATOM     24  H   UNL     1       2.988   1.602  30.386  0.00  0.00    +0.144 HD
ATOM     25  H   UNL     1       3.543   2.900  31.394  0.00  0.00    +0.144 HD
ATOM     26  C   UNL     1       5.169   1.399  28.985  0.00  0.00    +0.147 A 
ATOM     27  N   UNL     1       4.459   0.423  28.319  0.00  0.00    -0.231 NA
ATOM     28  C   UNL     1       5.337  -0.158  27.533  0.00  0.00    +0.203 A 
ENDBRANCH  15  17
BRANCH  14  29
ATOM     29  O   UNL     1       8.196  -2.439  26.911  0.00  0.00    -0.385 OA
ATOM     30  H   UNL     1       7.706  -2.469  27.761  0.00  0.00    +0.210 HD
ENDBRANCH  14  29
BRANCH  13  31
ATOM     31  O   UNL     1       7.799  -1.510  23.796  0.00  0.00    -0.278 OA
BRANCH  31  32
ATOM     32  P   UNL     1       8.570  -2.291  22.632  0.00  0.00    +0.473 P 
ATOM     33  O   UNL     1       9.062  -1.456  21.502  0.00  0.00    -0.228 OA
BRANCH  32  34
ATOM     34  O   UNL     1       7.593  -3.481  22.236  0.00  0.00    -0.303 OA
ATOM     35  H   UNL     1       8.079  -4.279  21.949  0.00  0.00    +0.222 HD
ENDBRANCH  32  34
BRANCH  32  36
ATOM     36  O   UNL     1       9.730  -3.011  23.458  0.00  0.00    -0.303 OA
ATOM     37  H   UNL     1      10.086  -2.420  24.143  0.00  0.00    +0.222 HD
ENDBRANCH  32  36
ENDBRANCH  31  32
ENDBRANCH  13  31
ENDBRANCH  11  12
ENDBRANCH  10  11
ENDBRANCH   6  10
ENDBRANCH   5   6
ENDBRANCH   1   5
BRANCH   1  38
ATOM     38  O   UNL     1       6.767   3.413  23.828  0.00  0.00    -0.286 OA
BRANCH  38  39
ATOM     39  C   UNL     1       6.510   4.787  24.123  0.00  0.00    +0.181 C 
BRANCH  39  40
ATOM     40  C   UNL     1       5.151   5.013  24.874  0.00  0.00    +0.024 C 
ATOM     41  C   UNL     1       5.024   6.453  25.398  0.00  0.00    +0.016 C 
ATOM     42  C   UNL     1       3.975   4.833  23.885  0.00  0.00    +0.016 C 
BRANCH  40  43
ATOM     43  C   UNL     1       4.972   3.991  26.049  0.00  0.00    +0.208 C 
BRANCH  43  46
ATOM     44  N   UNL     1       2.845   2.820  26.495  0.00  0.00    -0.313 N 
ATOM     45  H   UNL     1       2.765   3.519  27.229  0.00  0.00    +0.149 HD
ATOM     46  C   UNL     1       4.009   2.813  25.758  0.00  0.00    +0.242 C 
ATOM     47  O   UNL     1       4.275   1.944  24.937  0.00  0.00    -0.273 OA
BRANCH  44  48
ATOM     48  C   UNL     1       1.793   1.814  26.382  0.00  0.00    +0.113 C 
BRANCH  48  49
ATOM     49  C   UNL     1       0.737   1.822  27.477  0.00  0.00    +0.114 C 
BRANCH  49  52
ATOM     50  N   UNL     1       1.452  -0.418  28.002  0.00  0.00    -0.314 N 
ATOM     51  H   UNL     1       1.181  -0.581  27.033  0.00  0.00    +0.149 HD
ATOM     52  C   UNL     1       1.052   0.785  28.531  0.00  0.00    +0.215 C 
ATOM     53  O   UNL     1       1.002   1.026  29.731  0.00  0.00    -0.276 OA
BRANCH  50  54
ATOM     54  C   UNL     1       1.605  -1.611  28.815  0.00  0.00    +0.115 C 
BRANCH  54  55
ATOM     55  C   UNL     1       0.503  -2.637  28.601  0.00  0.00    +0.096 C 
BRANCH  55  56
ATOM     56  S   UNL     1       1.118  -4.284  29.078  0.00  0.00    -0.087 S 
BRANCH  56  57
ATOM     57  C   UNL     1       1.017  -5.079  27.542  0.00  0.00    +0.189 C 
ATOM     58  O   UNL     1       0.461  -4.568  26.569  0.00  0.00    -0.285 OA
BRANCH  57  59
ATOM     59  C   UNL     1       1.639  -6.437  27.566  0.00  0.00    +0.086 C 
BRANCH  59  60
ATOM     60  C   UNL     1       3.025  -6.325  27.003  0.00  0.00    +0.008 C 
BRANCH  60  61
ATOM     61  C   UNL     1       4.019  -6.240  28.131  0.00  0.00    +0.000 C 
BRANCH  61  62
ATOM     62  C   UNL     1       4.783  -4.960  27.923  0.00  0.00    +0.000 C 
BRANCH  62  63
ATOM     63  C   UNL     1       6.252  -5.237  27.762  0.00  0.00    +0.000 C 
BRANCH  63  64
ATOM     64  C   UNL     1       6.428  -5.925  26.426  0.00  0.00    +0.000 C 
BRANCH  64  65
ATOM     65  C   UNL     1       6.402  -4.898  25.318  0.00  0.00    -0.000 C 
BRANCH  65  66
ATOM     66  C   UNL     1       5.507  -5.378  24.190  0.00  0.00    -0.000 C 
BRANCH  66  67
ATOM     67  C   UNL     1       4.317  -4.446  24.058  0.00  0.00    -0.000 C 
BRANCH  67  69
ATOM     68  C   UNL     1       3.425  -2.788  25.695  0.00  0.00    +0.004 C 
ATOM     69  C   UNL     1       4.580  -3.131  24.775  0.00  0.00    -0.003 C 
ENDBRANCH  67  69
ENDBRANCH  66  67
ENDBRANCH  65  66
ENDBRANCH  64  65
ENDBRANCH  63  64
ENDBRANCH  62  63
ENDBRANCH  61  62
ENDBRANCH  60  61
ENDBRANCH  59  60
ENDBRANCH  57  59
ENDBRANCH  56  57
ENDBRANCH  55  56
ENDBRANCH  54  55
ENDBRANCH  50  54
ENDBRANCH  49  52
ENDBRANCH  48  49
ENDBRANCH  44  48
ENDBRANCH  43  46
BRANCH  43  70
ATOM     70  O   UNL     1       6.247   3.485  26.473  0.00  0.00    -0.382 OA
ATOM     71  H   UNL     1       6.213   3.424  27.444  0.00  0.00    +0.210 HD
ENDBRANCH  43  70
ENDBRANCH  40  43
ENDBRANCH  39  40
ENDBRANCH  38  39
ENDBRANCH   1  38
TORSDOF 36
ENDMDL
MODEL 9
REMARK VINA RESULT:      -4.2      3.769      8.049
REMARK  Name = 
REMARK  39 active torsions:
REMARK  status: ('A' for Active; 'I' for Inactive)
REMARK    1  A    between atoms: C_1  and  C_2
REMARK    2  A    between atoms: C_2  and  C_3
REMARK    3  A    between atoms: C_3  and  C_4
REMARK    4  A    between atoms: C_4  and  C_5
REMARK    5  A    between atoms: C_5  and  C_6
REMARK    6  A    between atoms: C_6  and  C_7
REMARK    7  A    between atoms: C_7  and  C_8
REMARK    8  A    between atoms: C_8  and  C_9
REMARK    9  A    between atoms: C_9  and  C_10
REMARK   10  A    between atoms: C_10  and  C_11
REMARK   11  A    between atoms: C_11  and  C_12
REMARK   12  A    between atoms: C_12  and  S_14
REMARK   13  A    between atoms: S_14  and  C_15
REMARK   14  A    between atoms: C_15  and  C_16
REMARK   15  A    between atoms: C_16  and  N_17
REMARK   16  A    between atoms: C_18  and  C_20
REMARK   17  A    between atoms: C_20  and  C_21
REMARK   18  A    between atoms: C_21  and  N_22
REMARK   19  A    between atoms: C_23  and  C_25
REMARK   20  A    between atoms: C_25  and  O_27
REMARK   21  A    between atoms: C_25  and  C_28
REMARK   22  A    between atoms: C_28  and  C_29
REMARK   23  A    between atoms: C_28  and  C_30
REMARK   24  A    between atoms: C_28  and  C_31
REMARK   25  A    between atoms: C_31  and  O_32
REMARK   26  A    between atoms: O_32  and  P_33
REMARK   27  A    between atoms: P_33  and  O_34
REMARK   28  A    between atoms: P_33  and  O_36
REMARK   29  A    between atoms: O_36  and  P_37
REMARK   30  A    between atoms: P_37  and  O_38
REMARK   31  A    between atoms: P_37  and  O_40
REMARK   32  A    between atoms: O_40  and  C_41
REMARK   33  A    between atoms: C_41  and  C_42
REMARK   34  A    between atoms: C_45  and  N_57
REMARK   35  A    between atoms: C_47  and  O_49
REMARK   36  A    between atoms: C_50  and  O_52
REMARK   37  A    between atoms: O_52  and  P_53
REMARK   38  A    between atoms: P_53  and  O_54
REMARK   39  A    between atoms: P_53  and  O_55
REMARK                            x       y       z     vdW  Elec       q    Type
REMARK                         _______ _______ _______ _____ _____    ______ ____
ROOT
ATOM      1  P   UNL     1       6.976   2.999  22.596  0.00  0.00    +0.483 P 
ATOM      2  O   UNL     1       7.364   1.533  22.403  0.00  0.00    -0.227 OA
ENDROOT
BRANCH   1   3
ATOM      3  O   UNL     1       5.326   2.546  22.348  0.00  0.00    -0.302 OA
ATOM      4  H   UNL     1       4.831   3.379  22.485  0.00  0.00    +0.222 HD
ENDBRANCH   1   3
BRANCH   1   5
ATOM      5  O   UNL     1       8.627   3.453  22.844  0.00  0.00    -0.186 OA
BRANCH   5   6
ATOM      6  P   UNL     1       9.591   2.032  23.054  0.00  0.00    +0.483 P 
ATOM      7  O   UNL     1      10.662   2.865  23.757  0.00  0.00    -0.227 OA
BRANCH   6   8
ATOM      8  O   UNL     1      10.027   2.233  21.483  0.00  0.00    -0.302 OA
ATOM      9  H   UNL     1      10.680   2.968  21.484  0.00  0.00    +0.222 HD
ENDBRANCH   6   8
BRANCH   6  10
ATOM     10  O   UNL     1      10.553   0.610  23.265  0.00  0.00    -0.284 OA
BRANCH  10  11
ATOM     11  C   UNL     1      10.201  -0.098  24.484  0.00  0.00    +0.206 C 
BRANCH  11  12
ATOM     12  C   UNL     1       8.827  -0.721  24.572  0.00  0.00    +0.179 C 
ATOM     13  C   UNL     1       8.873  -2.187  24.931  0.00  0.00    +0.194 C 
ATOM     14  C   UNL     1       8.126  -2.273  26.244  0.00  0.00    +0.196 C 
ATOM     15  C   UNL     1       8.028  -0.825  26.729  0.00  0.00    +0.253 C 
ATOM     16  O   UNL     1       8.079  -0.006  25.558  0.00  0.00    -0.346 OA
BRANCH  15  17
ATOM     17  N   UNL     1       6.791  -0.523  27.416  0.00  0.00    -0.286 N 
ATOM     18  C   UNL     1       6.667   0.381  28.437  0.00  0.00    +0.167 A 
ATOM     19  N   UNL     1       7.641   1.108  29.008  0.00  0.00    -0.216 NA
ATOM     20  C   UNL     1       7.138   1.843  30.025  0.00  0.00    +0.225 A 
ATOM     21  N   UNL     1       5.862   1.934  30.449  0.00  0.00    -0.219 NA
ATOM     22  C   UNL     1       4.926   1.185  29.832  0.00  0.00    +0.147 A 
ATOM     23  N   UNL     1       3.621   1.254  30.306  0.00  0.00    -0.341 N 
ATOM     24  H   UNL     1       3.101   0.399  30.129  0.00  0.00    +0.144 HD
ATOM     25  H   UNL     1       3.608   1.608  31.264  0.00  0.00    +0.144 HD
ATOM     26  C   UNL     1       5.327   0.343  28.784  0.00  0.00    +0.147 A 
ATOM     27  N   UNL     1       4.650  -0.577  28.013  0.00  0.00    -0.231 NA
ATOM     28  C   UNL     1       5.559  -1.077  27.207  0.00  0.00    +0.203 A 
ENDBRANCH  15  17
BRANCH  14  29
ATOM     29  O   UNL     1       8.846  -3.146  27.110  0.00  0.00    -0.385 OA
ATOM     30  H   UNL     1       8.184  -3.782  27.458  0.00  0.00    +0.210 HD
ENDBRANCH  14  29
BRANCH  13  31
ATOM     31  O   UNL     1       8.203  -2.912  23.907  0.00  0.00    -0.278 OA
BRANCH  31  32
ATOM     32  P   UNL     1       7.650  -2.129  22.627  0.00  0.00    +0.473 P 
ATOM     33  O   UNL     1       8.679  -1.518  21.742  0.00  0.00    -0.228 OA
BRANCH  32  34
ATOM     34  O   UNL     1       6.560  -1.130  23.211  0.00  0.00    -0.303 OA
ATOM     35  H   UNL     1       6.547  -1.125  24.188  0.00  0.00    +0.222 HD
ENDBRANCH  32  34
BRANCH  32  36
ATOM     36  O   UNL     1       6.781  -3.266  21.921  0.00  0.00    -0.303 OA
ATOM     37  H   UNL     1       7.311  -3.754  21.269  0.00  0.00    +0.222 HD
ENDBRANCH  32  36
ENDBRANCH  31  32
ENDBRANCH  13  31
ENDBRANCH  11  12
ENDBRANCH  10  11
ENDBRANCH   6  10
ENDBRANCH   5   6
ENDBRANCH   1   5
BRANCH   1  38
ATOM     38  O   UNL     1       6.630   3.285  24.193  0.00  0.00    -0.286 OA
BRANCH  38  39
ATOM     39  C   UNL     1       6.344   4.610  24.642  0.00  0.00    +0.181 C 
BRANCH  39  40
ATOM     40  C   UNL     1       5.029   4.705  25.490  0.00  0.00    +0.024 C 
ATOM     41  C   UNL     1       4.901   6.067  26.193  0.00  0.00    +0.016 C 
ATOM     42  C   UNL     1       3.800   4.612  24.554  0.00  0.00    +0.016 C 
BRANCH  40  43
ATOM     43  C   UNL     1       4.941   3.544  26.539  0.00  0.00    +0.208 C 
BRANCH  43  46
ATOM     44  N   UNL     1       2.902   2.205  26.920  0.00  0.00    -0.313 N 
ATOM     45  H   UNL     1       2.824   2.798  27.742  0.00  0.00    +0.149 HD
ATOM     46  C   UNL     1       4.027   2.360  26.139  0.00  0.00    +0.242 C 
ATOM     47  O   UNL     1       4.295   1.620  25.200  0.00  0.00    -0.273 OA
BRANCH  44  48
ATOM     48  C   UNL     1       1.900   1.162  26.722  0.00  0.00    +0.113 C 
BRANCH  48  49
ATOM     49  C   UNL     1       0.944   0.922  27.881  0.00  0.00    +0.114 C 
BRANCH  49  52
ATOM     50  N   UNL     1       1.628  -1.377  27.649  0.00  0.00    -0.314 N 
ATOM     51  H   UNL     1       1.380  -1.205  26.675  0.00  0.00    +0.149 HD
ATOM     52  C   UNL     1       1.226  -0.410  28.538  0.00  0.00    +0.215 C 
ATOM     53  O   UNL     1       1.149  -0.579  29.749  0.00  0.00    -0.276 OA
BRANCH  50  54
ATOM     54  C   UNL     1       1.753  -2.773  28.023  0.00  0.00    +0.115 C 
BRANCH  54  55
ATOM     55  C   UNL     1       0.567  -3.624  27.596  0.00  0.00    +0.096 C 
BRANCH  55  56
ATOM     56  S   UNL     1       1.159  -4.993  26.550  0.00  0.00    -0.087 S 
BRANCH  56  57
ATOM     57  C   UNL     1       1.616  -4.095  25.140  0.00  0.00    +0.189 C 
ATOM     58  O   UNL     1       1.114  -3.005  24.860  0.00  0.00    -0.285 OA
BRANCH  57  59
ATOM     59  C   UNL     1       2.636  -4.813  24.318  0.00  0.00    +0.086 C 
BRANCH  59  60
ATOM     60  C   UNL     1       3.814  -3.901  24.137  0.00  0.00    +0.008 C 
BRANCH  60  61
ATOM     61  C   UNL     1       4.816  -4.153  25.233  0.00  0.00    +0.000 C 
BRANCH  61  62
ATOM     62  C   UNL     1       5.704  -5.265  24.743  0.00  0.00    +0.000 C 
BRANCH  62  63
ATOM     63  C   UNL     1       6.712  -5.642  25.792  0.00  0.00    +0.000 C 
BRANCH  63  64
ATOM     64  C   UNL     1       6.134  -5.232  27.128  0.00  0.00    +0.000 C 
BRANCH  64  65
ATOM     65  C   UNL     1       6.817  -6.000  28.235  0.00  0.00    -0.000 C 
BRANCH  65  66
ATOM     66  C   UNL     1       5.782  -6.526  29.212  0.00  0.00    -0.000 C 
BRANCH  66  67
ATOM     67  C   UNL     1       4.473  -6.767  28.482  0.00  0.00    -0.000 C 
BRANCH  67  69
ATOM     68  C   UNL     1       3.754  -5.234  30.314  0.00  0.00    +0.004 C 
ATOM     69  C   UNL     1       3.296  -6.271  29.307  0.00  0.00    -0.003 C 
ENDBRANCH  67  69
ENDBRANCH  66  67
ENDBRANCH  65  66
ENDBRANCH  64  65
ENDBRANCH  63  64
ENDBRANCH  62  63
ENDBRANCH  61  62
ENDBRANCH  60  61
ENDBRANCH  59  60
ENDBRANCH  57  59
ENDBRANCH  56  57
ENDBRANCH  55  56
ENDBRANCH  54  55
ENDBRANCH  50  54
ENDBRANCH  49  52
ENDBRANCH  48  49
ENDBRANCH  44  48
ENDBRANCH  43  46
BRANCH  43  70
ATOM     70  O   UNL     1       6.254   3.059  26.861  0.00  0.00    -0.382 OA
ATOM     71  H   UNL     1       6.594   2.622  26.060  0.00  0.00    +0.210 HD
ENDBRANCH  43  70
ENDBRANCH  40  43
ENDBRANCH  39  40
ENDBRANCH  38  39
ENDBRANCH   1  38
TORSDOF 36
ENDMDL
