MODEL 1
REMARK VINA RESULT:      -5.9      0.000      0.000
REMARK  Name = 
REMARK  2 active torsions:
REMARK  status: ('A' for Active; 'I' for Inactive)
REMARK    1  A    between atoms: O_1  and  C_2
REMARK    2  A    between atoms: C_6  and  C_10
REMARK                            x       y       z     vdW  Elec       q    Type
REMARK                         _______ _______ _______ _____ _____    ______ ____
ROOT
ATOM      1  C   UNL     1       7.874  -4.235  23.561  0.00  0.00    +0.145 A 
ATOM      2  C   UNL     1       7.343  -3.333  22.641  0.00  0.00    +0.061 A 
ATOM      3 BR   UNL     1       5.852  -3.786  21.559  0.00  0.00    -0.046 Br
ATOM      4  C   UNL     1       7.901  -2.055  22.501  0.00  0.00    +0.027 A 
ATOM      5  C   UNL     1       8.990  -1.636  23.290  0.00  0.00    -0.016 A 
ATOM      6  C   UNL     1       9.507  -2.565  24.213  0.00  0.00    +0.027 A 
ATOM      7  C   UNL     1       8.963  -3.848  24.340  0.00  0.00    +0.061 A 
ATOM      8 BR   UNL     1       9.730  -5.044  25.598  0.00  0.00    -0.046 Br
ENDROOT
BRANCH   5   9
ATOM      9  C   UNL     1       9.556  -0.268  23.174  0.00  0.00    -0.018 A 
ATOM     10  C   UNL     1       9.434   0.481  21.988  0.00  0.00    +0.008 A 
ATOM     11  C   UNL     1       9.939   1.783  21.886  0.00  0.00    +0.001 A 
ATOM     12  C   UNL     1      10.572   2.374  22.973  0.00  0.00    +0.000 A 
ATOM     13  C   UNL     1      10.712   1.658  24.158  0.00  0.00    +0.001 A 
ATOM     14  C   UNL     1      10.218   0.353  24.252  0.00  0.00    +0.008 A 
ENDBRANCH   5   9
BRANCH   1  15
ATOM     15  O   UNL     1       7.323  -5.482  23.690  0.00  0.00    -0.505 OA
ATOM     16  H   UNL     1       6.977  -5.749  22.819  0.00  0.00    +0.292 HD
ENDBRANCH   1  15
TORSDOF 2
ENDMDL
MODEL 2
REMARK VINA RESULT:      -5.8      0.042      2.436
REMARK  Name = 
REMARK  2 active torsions:
REMARK  status: ('A' for Active; 'I' for Inactive)
REMARK    1  A    between atoms: O_1  and  C_2
REMARK    2  A    between atoms: C_6  and  C_10
REMARK                            x       y       z     vdW  Elec       q    Type
REMARK                         _______ _______ _______ _____ _____    ______ ____
ROOT
ATOM      1  C   UNL     1       7.871  -4.238  23.544  0.00  0.00    +0.145 A 
ATOM      2  C   UNL     1       8.951  -3.853  24.335  0.00  0.00    +0.061 A 
ATOM      3 BR   UNL     1       9.761  -5.056  25.559  0.00  0.00    -0.046 Br
ATOM      4  C   UNL     1       9.474  -2.556  24.234  0.00  0.00    +0.027 A 
ATOM      5  C   UNL     1       8.947  -1.617  23.327  0.00  0.00    -0.016 A 
ATOM      6  C   UNL     1       7.856  -2.031  22.539  0.00  0.00    +0.027 A 
ATOM      7  C   UNL     1       7.321  -3.319  22.652  0.00  0.00    +0.061 A 
ATOM      8 BR   UNL     1       5.841  -3.791  21.561  0.00  0.00    -0.046 Br
ENDROOT
BRANCH   5   9
ATOM      9  C   UNL     1       9.526  -0.256  23.188  0.00  0.00    -0.018 A 
ATOM     10  C   UNL     1       9.378   0.489  22.002  0.00  0.00    +0.008 A 
ATOM     11  C   UNL     1       9.895   1.784  21.879  0.00  0.00    +0.001 A 
ATOM     12  C   UNL     1      10.567   2.372  22.944  0.00  0.00    +0.000 A 
ATOM     13  C   UNL     1      10.733   1.659  24.127  0.00  0.00    +0.001 A 
ATOM     14  C   UNL     1      10.226   0.361  24.243  0.00  0.00    +0.008 A 
ENDBRANCH   5   9
BRANCH   1  15
ATOM     15  O   UNL     1       7.366  -5.507  23.650  0.00  0.00    -0.505 OA
ATOM     16  H   UNL     1       6.572  -5.468  24.213  0.00  0.00    +0.292 HD
ENDBRANCH   1  15
TORSDOF 2
ENDMDL
MODEL 3
REMARK VINA RESULT:      -5.7      5.284      7.149
REMARK  Name = 
REMARK  2 active torsions:
REMARK  status: ('A' for Active; 'I' for Inactive)
REMARK    1  A    between atoms: O_1  and  C_2
REMARK    2  A    between atoms: C_6  and  C_10
REMARK                            x       y       z     vdW  Elec       q    Type
REMARK                         _______ _______ _______ _____ _____    ______ ____
ROOT
ATOM      1  C   UNL     1      10.191   5.230  24.096  0.00  0.00    +0.145 A 
ATOM      2  C   UNL     1       9.057   4.509  24.465  0.00  0.00    +0.061 A 
ATOM      3 BR   UNL     1       7.560   5.359  25.263  0.00  0.00    -0.046 Br
ATOM      4  C   UNL     1       8.995   3.127  24.242  0.00  0.00    +0.027 A 
ATOM      5  C   UNL     1      10.053   2.430  23.627  0.00  0.00    -0.016 A 
ATOM      6  C   UNL     1      11.187   3.181  23.263  0.00  0.00    +0.027 A 
ATOM      7  C   UNL     1      11.258   4.558  23.502  0.00  0.00    +0.061 A 
ATOM      8 BR   UNL     1      12.830   5.492  22.993  0.00  0.00    -0.046 Br
ENDROOT
BRANCH   5   9
ATOM      9  C   UNL     1       9.972   0.973  23.351  0.00  0.00    -0.018 A 
ATOM     10  C   UNL     1       9.972   0.026  24.393  0.00  0.00    +0.008 A 
ATOM     11  C   UNL     1       9.864  -1.347  24.138  0.00  0.00    +0.001 A 
ATOM     12  C   UNL     1       9.745  -1.807  22.832  0.00  0.00    +0.000 A 
ATOM     13  C   UNL     1       9.746  -0.896  21.780  0.00  0.00    +0.001 A 
ATOM     14  C   UNL     1       9.867   0.474  22.038  0.00  0.00    +0.008 A 
ENDBRANCH   5   9
BRANCH   1  15
ATOM     15  O   UNL     1      10.243   6.580  24.318  0.00  0.00    -0.505 OA
ATOM     16  H   UNL     1      10.728   6.988  23.578  0.00  0.00    +0.292 HD
ENDBRANCH   1  15
TORSDOF 2
ENDMDL
MODEL 4
REMARK VINA RESULT:      -5.6      5.298      7.199
REMARK  Name = 
REMARK  2 active torsions:
REMARK  status: ('A' for Active; 'I' for Inactive)
REMARK    1  A    between atoms: O_1  and  C_2
REMARK    2  A    between atoms: C_6  and  C_10
REMARK                            x       y       z     vdW  Elec       q    Type
REMARK                         _______ _______ _______ _____ _____    ______ ____
ROOT
ATOM      1  C   UNL     1      10.197   5.248  24.107  0.00  0.00    +0.145 A 
ATOM      2  C   UNL     1      11.251   4.566  23.502  0.00  0.00    +0.061 A 
ATOM      3 BR   UNL     1      12.850   5.456  23.004  0.00  0.00    -0.046 Br
ATOM      4  C   UNL     1      11.153   3.190  23.255  0.00  0.00    +0.027 A 
ATOM      5  C   UNL     1      10.010   2.454  23.624  0.00  0.00    -0.016 A 
ATOM      6  C   UNL     1       8.960   3.166  24.235  0.00  0.00    +0.027 A 
ATOM      7  C   UNL     1       9.049   4.543  24.465  0.00  0.00    +0.061 A 
ATOM      8 BR   UNL     1       7.582   5.429  25.280  0.00  0.00    -0.046 Br
ENDROOT
BRANCH   5   9
ATOM      9  C   UNL     1       9.920   0.988  23.402  0.00  0.00    -0.018 A 
ATOM     10  C   UNL     1       9.888   0.441  22.105  0.00  0.00    +0.008 A 
ATOM     11  C   UNL     1       9.836  -0.942  21.893  0.00  0.00    +0.001 A 
ATOM     12  C   UNL     1       9.823  -1.815  22.974  0.00  0.00    +0.000 A 
ATOM     13  C   UNL     1       9.849  -1.305  24.268  0.00  0.00    +0.001 A 
ATOM     14  C   UNL     1       9.889   0.078  24.477  0.00  0.00    +0.008 A 
ENDBRANCH   5   9
BRANCH   1  15
ATOM     15  O   UNL     1      10.302   6.592  24.344  0.00  0.00    -0.505 OA
ATOM     16  H   UNL     1       9.407   6.938  24.514  0.00  0.00    +0.292 HD
ENDBRANCH   1  15
TORSDOF 2
ENDMDL
MODEL 5
REMARK VINA RESULT:      -5.4      1.489      1.662
REMARK  Name = 
REMARK  2 active torsions:
REMARK  status: ('A' for Active; 'I' for Inactive)
REMARK    1  A    between atoms: O_1  and  C_2
REMARK    2  A    between atoms: C_6  and  C_10
REMARK                            x       y       z     vdW  Elec       q    Type
REMARK                         _______ _______ _______ _____ _____    ______ ____
ROOT
ATOM      1  C   UNL     1       6.717  -4.853  24.229  0.00  0.00    +0.145 A 
ATOM      2  C   UNL     1       7.013  -4.549  22.901  0.00  0.00    +0.061 A 
ATOM      3 BR   UNL     1       6.437  -5.664  21.479  0.00  0.00    -0.046 Br
ATOM      4  C   UNL     1       7.743  -3.395  22.586  0.00  0.00    +0.027 A 
ATOM      5  C   UNL     1       8.180  -2.503  23.585  0.00  0.00    -0.016 A 
ATOM      6  C   UNL     1       7.867  -2.831  24.917  0.00  0.00    +0.027 A 
ATOM      7  C   UNL     1       7.154  -3.993  25.235  0.00  0.00    +0.061 A 
ATOM      8 BR   UNL     1       6.787  -4.368  27.059  0.00  0.00    -0.046 Br
ENDROOT
BRANCH   5   9
ATOM      9  C   UNL     1       8.917  -1.258  23.250  0.00  0.00    -0.018 A 
ATOM     10  C   UNL     1       8.926  -0.736  21.942  0.00  0.00    +0.008 A 
ATOM     11  C   UNL     1       9.593   0.454  21.631  0.00  0.00    +0.001 A 
ATOM     12  C   UNL     1      10.263   1.160  22.623  0.00  0.00    +0.000 A 
ATOM     13  C   UNL     1      10.275   0.669  23.925  0.00  0.00    +0.001 A 
ATOM     14  C   UNL     1       9.618  -0.528  24.230  0.00  0.00    +0.008 A 
ENDBRANCH   5   9
BRANCH   1  15
ATOM     15  O   UNL     1       6.003  -5.983  24.527  0.00  0.00    -0.505 OA
ATOM     16  H   UNL     1       5.277  -5.730  25.125  0.00  0.00    +0.292 HD
ENDBRANCH   1  15
TORSDOF 2
ENDMDL
MODEL 6
REMARK VINA RESULT:      -5.4      1.542      2.080
REMARK  Name = 
REMARK  2 active torsions:
REMARK  status: ('A' for Active; 'I' for Inactive)
REMARK    1  A    between atoms: O_1  and  C_2
REMARK    2  A    between atoms: C_6  and  C_10
REMARK                            x       y       z     vdW  Elec       q    Type
REMARK                         _______ _______ _______ _____ _____    ______ ____
ROOT
ATOM      1  C   UNL     1       6.722  -4.727  24.241  0.00  0.00    +0.145 A 
ATOM      2  C   UNL     1       7.125  -4.470  22.932  0.00  0.00    +0.061 A 
ATOM      3 BR   UNL     1       6.715  -5.666  21.517  0.00  0.00    -0.046 Br
ATOM      4  C   UNL     1       7.841  -3.303  22.628  0.00  0.00    +0.027 A 
ATOM      5  C   UNL     1       8.156  -2.353  23.618  0.00  0.00    -0.016 A 
ATOM      6  C   UNL     1       7.737  -2.635  24.932  0.00  0.00    +0.027 A 
ATOM      7  C   UNL     1       7.039  -3.808  25.240  0.00  0.00    +0.061 A 
ATOM      8 BR   UNL     1       6.524  -4.118  27.041  0.00  0.00    -0.046 Br
ENDROOT
BRANCH   5   9
ATOM      9  C   UNL     1       8.877  -1.096  23.292  0.00  0.00    -0.018 A 
ATOM     10  C   UNL     1       9.640  -0.413  24.260  0.00  0.00    +0.008 A 
ATOM     11  C   UNL     1      10.346   0.754  23.947  0.00  0.00    +0.001 A 
ATOM     12  C   UNL     1      10.315   1.266  22.655  0.00  0.00    +0.000 A 
ATOM     13  C   UNL     1       9.567   0.616  21.679  0.00  0.00    +0.001 A 
ATOM     14  C   UNL     1       8.852  -0.544  21.997  0.00  0.00    +0.008 A 
ENDBRANCH   5   9
BRANCH   1  15
ATOM     15  O   UNL     1       6.024  -5.869  24.527  0.00  0.00    -0.505 OA
ATOM     16  H   UNL     1       6.643  -6.507  24.927  0.00  0.00    +0.292 HD
ENDBRANCH   1  15
TORSDOF 2
ENDMDL
MODEL 7
REMARK VINA RESULT:      -5.3      2.550      3.499
REMARK  Name = 
REMARK  2 active torsions:
REMARK  status: ('A' for Active; 'I' for Inactive)
REMARK    1  A    between atoms: O_1  and  C_2
REMARK    2  A    between atoms: C_6  and  C_10
REMARK                            x       y       z     vdW  Elec       q    Type
REMARK                         _______ _______ _______ _____ _____    ______ ____
ROOT
ATOM      1  C   UNL     1       5.622  -6.059  23.939  0.00  0.00    +0.145 A 
ATOM      2  C   UNL     1       6.316  -5.353  22.959  0.00  0.00    +0.061 A 
ATOM      3 BR   UNL     1       6.200  -5.831  21.126  0.00  0.00    -0.046 Br
ATOM      4  C   UNL     1       7.116  -4.257  23.309  0.00  0.00    +0.027 A 
ATOM      5  C   UNL     1       7.229  -3.824  24.645  0.00  0.00    -0.016 A 
ATOM      6  C   UNL     1       6.517  -4.553  25.616  0.00  0.00    +0.027 A 
ATOM      7  C   UNL     1       5.733  -5.659  25.270  0.00  0.00    +0.061 A 
ATOM      8 BR   UNL     1       4.817  -6.595  26.644  0.00  0.00    -0.046 Br
ENDROOT
BRANCH   5   9
ATOM      9  C   UNL     1       8.042  -2.637  25.014  0.00  0.00    -0.018 A 
ATOM     10  C   UNL     1       8.918  -2.030  24.094  0.00  0.00    +0.008 A 
ATOM     11  C   UNL     1       9.662  -0.892  24.429  0.00  0.00    +0.001 A 
ATOM     12  C   UNL     1       9.542  -0.326  25.693  0.00  0.00    +0.000 A 
ATOM     13  C   UNL     1       8.688  -0.906  26.625  0.00  0.00    +0.001 A 
ATOM     14  C   UNL     1       7.956  -2.050  26.292  0.00  0.00    +0.008 A 
ENDBRANCH   5   9
BRANCH   1  15
ATOM     15  O   UNL     1       4.843  -7.129  23.587  0.00  0.00    -0.505 OA
ATOM     16  H   UNL     1       5.417  -7.790  23.159  0.00  0.00    +0.292 HD
ENDBRANCH   1  15
TORSDOF 2
ENDMDL
MODEL 8
REMARK VINA RESULT:      -5.2      3.114      5.505
REMARK  Name = 
REMARK  2 active torsions:
REMARK  status: ('A' for Active; 'I' for Inactive)
REMARK    1  A    between atoms: O_1  and  C_2
REMARK    2  A    between atoms: C_6  and  C_10
REMARK                            x       y       z     vdW  Elec       q    Type
REMARK                         _______ _______ _______ _____ _____    ______ ____
ROOT
ATOM      1  C   UNL     1       9.111   0.077  24.442  0.00  0.00    +0.145 A 
ATOM      2  C   UNL     1       9.038  -0.085  23.060  0.00  0.00    +0.061 A 
ATOM      3 BR   UNL     1       9.702   1.238  21.872  0.00  0.00    -0.046 Br
ATOM      4  C   UNL     1       8.474  -1.245  22.513  0.00  0.00    +0.027 A 
ATOM      5  C   UNL     1       7.987  -2.284  23.329  0.00  0.00    -0.016 A 
ATOM      6  C   UNL     1       8.073  -2.097  24.722  0.00  0.00    +0.027 A 
ATOM      7  C   UNL     1       8.619  -0.931  25.269  0.00  0.00    +0.061 A 
ATOM      8 BR   UNL     1       8.684  -0.753  27.158  0.00  0.00    -0.046 Br
ENDROOT
BRANCH   5   9
ATOM      9  C   UNL     1       7.427  -3.533  22.753  0.00  0.00    -0.018 A 
ATOM     10  C   UNL     1       6.459  -3.503  21.731  0.00  0.00    +0.008 A 
ATOM     11  C   UNL     1       5.953  -4.679  21.163  0.00  0.00    +0.001 A 
ATOM     12  C   UNL     1       6.410  -5.917  21.597  0.00  0.00    +0.000 A 
ATOM     13  C   UNL     1       7.364  -5.980  22.609  0.00  0.00    +0.001 A 
ATOM     14  C   UNL     1       7.858  -4.804  23.182  0.00  0.00    +0.008 A 
ENDBRANCH   5   9
BRANCH   1  15
ATOM     15  O   UNL     1       9.663   1.215  24.967  0.00  0.00    -0.505 OA
ATOM     16  H   UNL     1       8.940   1.763  25.321  0.00  0.00    +0.292 HD
ENDBRANCH   1  15
TORSDOF 2
ENDMDL
MODEL 9
REMARK VINA RESULT:      -5.1      3.319      5.790
REMARK  Name = 
REMARK  2 active torsions:
REMARK  status: ('A' for Active; 'I' for Inactive)
REMARK    1  A    between atoms: O_1  and  C_2
REMARK    2  A    between atoms: C_6  and  C_10
REMARK                            x       y       z     vdW  Elec       q    Type
REMARK                         _______ _______ _______ _____ _____    ______ ____
ROOT
ATOM      1  C   UNL     1       8.669   0.514  24.610  0.00  0.00    +0.145 A 
ATOM      2  C   UNL     1       7.998  -0.409  25.409  0.00  0.00    +0.061 A 
ATOM      3 BR   UNL     1       7.580  -0.030  27.221  0.00  0.00    -0.046 Br
ATOM      4  C   UNL     1       7.605  -1.647  24.883  0.00  0.00    +0.027 A 
ATOM      5  C   UNL     1       7.852  -1.989  23.539  0.00  0.00    -0.016 A 
ATOM      6  C   UNL     1       8.530  -1.039  22.752  0.00  0.00    +0.027 A 
ATOM      7  C   UNL     1       8.940   0.190  23.281  0.00  0.00    +0.061 A 
ATOM      8 BR   UNL     1       9.862   1.407  22.155  0.00  0.00    -0.046 Br
ENDROOT
BRANCH   5   9
ATOM      9  C   UNL     1       7.399  -3.283  22.967  0.00  0.00    -0.018 A 
ATOM     10  C   UNL     1       6.450  -3.336  21.928  0.00  0.00    +0.008 A 
ATOM     11  C   UNL     1       6.045  -4.552  21.364  0.00  0.00    +0.001 A 
ATOM     12  C   UNL     1       6.586  -5.748  21.820  0.00  0.00    +0.000 A 
ATOM     13  C   UNL     1       7.524  -5.728  22.848  0.00  0.00    +0.001 A 
ATOM     14  C   UNL     1       7.917  -4.512  23.418  0.00  0.00    +0.008 A 
ENDBRANCH   5   9
BRANCH   1  15
ATOM     15  O   UNL     1       9.049   1.720  25.133  0.00  0.00    -0.505 OA
ATOM     16  H   UNL     1       9.638   1.547  25.890  0.00  0.00    +0.292 HD
ENDBRANCH   1  15
TORSDOF 2
ENDMDL
