MODEL 1
REMARK VINA RESULT:      -7.1      0.000      0.000
REMARK  Name = 
REMARK  2 active torsions:
REMARK  status: ('A' for Active; 'I' for Inactive)
REMARK    1  A    between atoms: C_1  and  N_2
REMARK    2  A    between atoms: C_17  and  O_18
REMARK                            x       y       z     vdW  Elec       q    Type
REMARK                         _______ _______ _______ _____ _____    ______ ____
ROOT
ATOM      1  C   UNL     1       7.556   2.553  25.925  0.00  0.00    +0.105 C 
ATOM      2  N   UNL     1       8.017   1.569  24.974  0.00  0.00    -0.302 NA
ATOM      3  C   UNL     1       7.234   0.330  24.880  0.00  0.00    +0.065 C 
ATOM      4  C   UNL     1       7.267  -0.655  26.167  0.00  0.00    +0.054 C 
ATOM      5  C   UNL     1       7.958  -1.997  25.950  0.00  0.00    -0.038 A 
ATOM      6  C   UNL     1       7.785  -3.190  26.640  0.00  0.00    +0.008 A 
ATOM      7  C   UNL     1       8.477  -4.364  26.224  0.00  0.00    +0.049 A 
ATOM      8  C   UNL     1       9.366  -4.346  25.136  0.00  0.00    +0.159 A 
ATOM      9  C   UNL     1       9.585  -3.158  24.494  0.00  0.00    +0.166 A 
ATOM     10  O   UNL     1      10.348  -2.888  23.365  0.00  0.00    -0.484 OA
ATOM     11  C   UNL     1       9.591  -1.779  22.819  0.00  0.00    +0.185 C 
ATOM     12  C   UNL     1      10.173  -0.820  21.797  0.00  0.00    +0.045 C 
ATOM     13  C   UNL     1       9.165   0.352  21.553  0.00  0.00    +0.004 C 
ATOM     14  C   UNL     1       7.764   0.236  22.221  0.00  0.00    +0.006 C 
ATOM     15  C   UNL     1       9.089  -0.943  23.986  0.00  0.00    +0.042 C 
ATOM     16  C   UNL     1      10.033   0.051  24.705  0.00  0.00    +0.031 C 
ATOM     17  C   UNL     1       8.867  -2.060  24.913  0.00  0.00    +0.011 A 
ATOM     18  C   UNL     1       7.719  -0.417  23.622  0.00  0.00    +0.021 C 
ATOM     19  C   UNL     1       9.464   1.467  24.842  0.00  0.00    +0.085 C 
ENDROOT
BRANCH   8  20
ATOM     20  O   UNL     1       9.920  -5.504  24.691  0.00  0.00    -0.503 OA
ATOM     21  H   UNL     1       9.603  -6.203  25.296  0.00  0.00    +0.292 HD
ENDBRANCH   8  20
TORSDOF 1
ENDMDL
MODEL 2
REMARK VINA RESULT:      -6.5      2.441      5.141
REMARK  Name = 
REMARK  2 active torsions:
REMARK  status: ('A' for Active; 'I' for Inactive)
REMARK    1  A    between atoms: C_1  and  N_2
REMARK    2  A    between atoms: C_17  and  O_18
REMARK                            x       y       z     vdW  Elec       q    Type
REMARK                         _______ _______ _______ _____ _____    ______ ____
ROOT
ATOM      1  C   UNL     1       7.406  -5.377  22.580  0.00  0.00    +0.105 C 
ATOM      2  N   UNL     1       7.561  -4.259  23.482  0.00  0.00    -0.302 NA
ATOM      3  C   UNL     1       7.159  -2.942  22.970  0.00  0.00    +0.065 C 
ATOM      4  C   UNL     1       8.059  -2.318  21.775  0.00  0.00    +0.054 C 
ATOM      5  C   UNL     1       8.854  -1.068  22.135  0.00  0.00    -0.038 A 
ATOM      6  C   UNL     1       9.337  -0.068  21.300  0.00  0.00    +0.008 A 
ATOM      7  C   UNL     1       9.995   1.069  21.852  0.00  0.00    +0.049 A 
ATOM      8  C   UNL     1      10.199   1.200  23.236  0.00  0.00    +0.159 A 
ATOM      9  C   UNL     1       9.779   0.189  24.055  0.00  0.00    +0.166 A 
ATOM     10  O   UNL     1       9.796   0.105  25.442  0.00  0.00    -0.484 OA
ATOM     11  C   UNL     1       8.626  -0.724  25.650  0.00  0.00    +0.185 C 
ATOM     12  C   UNL     1       8.377  -1.471  26.947  0.00  0.00    +0.045 C 
ATOM     13  C   UNL     1       7.131  -2.403  26.778  0.00  0.00    +0.004 C 
ATOM     14  C   UNL     1       6.316  -2.269  25.459  0.00  0.00    +0.006 C 
ATOM     15  C   UNL     1       8.577  -1.748  24.525  0.00  0.00    +0.042 C 
ATOM     16  C   UNL     1       9.481  -3.004  24.566  0.00  0.00    +0.031 C 
ATOM     17  C   UNL     1       9.119  -0.873  23.477  0.00  0.00    +0.011 A 
ATOM     18  C   UNL     1       7.126  -1.980  24.174  0.00  0.00    +0.021 C 
ATOM     19  C   UNL     1       8.730  -4.322  24.347  0.00  0.00    +0.085 C 
ENDROOT
BRANCH   8  20
ATOM     20  O   UNL     1      10.723   2.348  23.740  0.00  0.00    -0.503 OA
ATOM     21  H   UNL     1      10.486   3.052  23.105  0.00  0.00    +0.292 HD
ENDBRANCH   8  20
TORSDOF 1
ENDMDL
MODEL 3
REMARK VINA RESULT:      -6.5      2.520      4.454
REMARK  Name = 
REMARK  2 active torsions:
REMARK  status: ('A' for Active; 'I' for Inactive)
REMARK    1  A    between atoms: C_1  and  N_2
REMARK    2  A    between atoms: C_17  and  O_18
REMARK                            x       y       z     vdW  Elec       q    Type
REMARK                         _______ _______ _______ _____ _____    ______ ____
ROOT
ATOM      1  C   UNL     1       4.816  -2.101  27.874  0.00  0.00    +0.105 C 
ATOM      2  N   UNL     1       5.387  -2.757  26.721  0.00  0.00    -0.302 NA
ATOM      3  C   UNL     1       6.850  -2.877  26.691  0.00  0.00    +0.065 C 
ATOM      4  C   UNL     1       7.693  -1.502  26.534  0.00  0.00    +0.054 C 
ATOM      5  C   UNL     1       8.461  -1.347  25.226  0.00  0.00    -0.038 A 
ATOM      6  C   UNL     1       9.578  -0.568  24.955  0.00  0.00    +0.008 A 
ATOM      7  C   UNL     1      10.198  -0.626  23.673  0.00  0.00    +0.049 A 
ATOM      8  C   UNL     1       9.688  -1.441  22.648  0.00  0.00    +0.159 A 
ATOM      9  C   UNL     1       8.553  -2.162  22.892  0.00  0.00    +0.166 A 
ATOM     10  O   UNL     1       7.896  -3.084  22.086  0.00  0.00    -0.484 OA
ATOM     11  C   UNL     1       7.346  -3.953  23.107  0.00  0.00    +0.185 C 
ATOM     12  C   UNL     1       6.204  -4.914  22.831  0.00  0.00    +0.045 C 
ATOM     13  C   UNL     1       5.740  -5.567  24.175  0.00  0.00    +0.004 C 
ATOM     14  C   UNL     1       6.595  -5.272  25.442  0.00  0.00    +0.006 C 
ATOM     15  C   UNL     1       6.928  -3.081  24.281  0.00  0.00    +0.042 C 
ATOM     16  C   UNL     1       5.599  -2.287  24.236  0.00  0.00    +0.031 C 
ATOM     17  C   UNL     1       8.011  -2.098  24.157  0.00  0.00    +0.011 A 
ATOM     18  C   UNL     1       7.201  -3.854  25.551  0.00  0.00    +0.021 C 
ATOM     19  C   UNL     1       4.703  -2.497  25.461  0.00  0.00    +0.085 C 
ENDROOT
BRANCH   8  20
ATOM     20  O   UNL     1      10.368  -1.565  21.478  0.00  0.00    -0.503 OA
ATOM     21  H   UNL     1      11.255  -1.191  21.642  0.00  0.00    +0.292 HD
ENDBRANCH   8  20
TORSDOF 1
ENDMDL
MODEL 4
REMARK VINA RESULT:      -6.4      3.525      6.193
REMARK  Name = 
REMARK  2 active torsions:
REMARK  status: ('A' for Active; 'I' for Inactive)
REMARK    1  A    between atoms: C_1  and  N_2
REMARK    2  A    between atoms: C_17  and  O_18
REMARK                            x       y       z     vdW  Elec       q    Type
REMARK                         _______ _______ _______ _____ _____    ______ ____
ROOT
ATOM      1  C   UNL     1       5.095   2.986  23.099  0.00  0.00    +0.105 C 
ATOM      2  N   UNL     1       6.412   2.519  23.464  0.00  0.00    -0.302 NA
ATOM      3  C   UNL     1       7.162   3.348  24.417  0.00  0.00    +0.065 C 
ATOM      4  C   UNL     1       7.641   4.807  23.896  0.00  0.00    +0.054 C 
ATOM      5  C   UNL     1       9.148   4.990  23.750  0.00  0.00    -0.038 A 
ATOM      6  C   UNL     1       9.891   6.163  23.770  0.00  0.00    +0.008 A 
ATOM      7  C   UNL     1      11.313   6.111  23.695  0.00  0.00    +0.049 A 
ATOM      8  C   UNL     1      11.997   4.890  23.572  0.00  0.00    +0.159 A 
ATOM      9  C   UNL     1      11.264   3.738  23.490  0.00  0.00    +0.166 A 
ATOM     10  O   UNL     1      11.691   2.417  23.436  0.00  0.00    -0.484 OA
ATOM     11  C   UNL     1      10.579   1.774  24.106  0.00  0.00    +0.185 C 
ATOM     12  C   UNL     1      10.308   0.285  23.990  0.00  0.00    +0.045 C 
ATOM     13  C   UNL     1       8.945  -0.050  24.682  0.00  0.00    +0.004 C 
ATOM     14  C   UNL     1       8.248   1.097  25.471  0.00  0.00    +0.006 C 
ATOM     15  C   UNL     1       9.307   2.496  23.689  0.00  0.00    +0.042 C 
ATOM     16  C   UNL     1       8.653   2.207  22.316  0.00  0.00    +0.031 C 
ATOM     17  C   UNL     1       9.895   3.839  23.601  0.00  0.00    +0.011 A 
ATOM     18  C   UNL     1       8.376   2.519  24.879  0.00  0.00    +0.021 C 
ATOM     19  C   UNL     1       7.158   1.877  22.391  0.00  0.00    +0.085 C 
ENDROOT
BRANCH   8  20
ATOM     20  O   UNL     1      13.355   4.863  23.621  0.00  0.00    -0.503 OA
ATOM     21  H   UNL     1      13.584   4.386  24.443  0.00  0.00    +0.292 HD
ENDBRANCH   8  20
TORSDOF 1
ENDMDL
MODEL 5
REMARK VINA RESULT:      -6.4      3.134      5.509
REMARK  Name = 
REMARK  2 active torsions:
REMARK  status: ('A' for Active; 'I' for Inactive)
REMARK    1  A    between atoms: C_1  and  N_2
REMARK    2  A    between atoms: C_17  and  O_18
REMARK                            x       y       z     vdW  Elec       q    Type
REMARK                         _______ _______ _______ _____ _____    ______ ____
ROOT
ATOM      1  C   UNL     1       6.068  -5.646  21.006  0.00  0.00    +0.105 C 
ATOM      2  N   UNL     1       6.298  -5.287  22.386  0.00  0.00    -0.302 NA
ATOM      3  C   UNL     1       5.859  -3.947  22.798  0.00  0.00    +0.065 C 
ATOM      4  C   UNL     1       6.660  -2.689  22.164  0.00  0.00    +0.054 C 
ATOM      5  C   UNL     1       7.485  -1.870  23.151  0.00  0.00    -0.038 A 
ATOM      6  C   UNL     1       7.901  -0.548  23.056  0.00  0.00    +0.008 A 
ATOM      7  C   UNL     1       8.603   0.060  24.136  0.00  0.00    +0.049 A 
ATOM      8  C   UNL     1       8.919  -0.656  25.303  0.00  0.00    +0.159 A 
ATOM      9  C   UNL     1       8.564  -1.974  25.373  0.00  0.00    +0.166 A 
ATOM     10  O   UNL     1       8.693  -2.873  26.426  0.00  0.00    -0.484 OA
ATOM     11  C   UNL     1       7.542  -3.716  26.169  0.00  0.00    +0.185 C 
ATOM     12  C   UNL     1       7.398  -5.102  26.768  0.00  0.00    +0.045 C 
ATOM     13  C   UNL     1       6.140  -5.804  26.155  0.00  0.00    +0.004 C 
ATOM     14  C   UNL     1       5.222  -4.943  25.240  0.00  0.00    +0.006 C 
ATOM     15  C   UNL     1       7.401  -3.860  24.662  0.00  0.00    +0.042 C 
ATOM     16  C   UNL     1       8.302  -4.845  23.878  0.00  0.00    +0.031 C 
ATOM     17  C   UNL     1       7.857  -2.507  24.318  0.00  0.00    +0.011 A 
ATOM     18  C   UNL     1       5.925  -3.903  24.337  0.00  0.00    +0.021 C 
ATOM     19  C   UNL     1       7.534  -5.802  22.960  0.00  0.00    +0.085 C 
ENDROOT
BRANCH   8  20
ATOM     20  O   UNL     1       9.484  -0.017  26.361  0.00  0.00    -0.503 OA
ATOM     21  H   UNL     1       9.707   0.880  26.044  0.00  0.00    +0.292 HD
ENDBRANCH   8  20
TORSDOF 1
ENDMDL
MODEL 6
REMARK VINA RESULT:      -6.4      3.917      5.583
REMARK  Name = 
REMARK  2 active torsions:
REMARK  status: ('A' for Active; 'I' for Inactive)
REMARK    1  A    between atoms: C_1  and  N_2
REMARK    2  A    between atoms: C_17  and  O_18
REMARK                            x       y       z     vdW  Elec       q    Type
REMARK                         _______ _______ _______ _____ _____    ______ ____
ROOT
ATOM      1  C   UNL     1       6.815  -0.900  23.085  0.00  0.00    +0.105 C 
ATOM      2  N   UNL     1       7.019  -2.119  23.832  0.00  0.00    -0.302 NA
ATOM      3  C   UNL     1       6.786  -3.377  23.110  0.00  0.00    +0.065 C 
ATOM      4  C   UNL     1       5.257  -3.700  22.678  0.00  0.00    +0.054 C 
ATOM      5  C   UNL     1       4.614  -4.892  23.379  0.00  0.00    -0.038 A 
ATOM      6  C   UNL     1       3.556  -5.686  22.958  0.00  0.00    +0.008 A 
ATOM      7  C   UNL     1       3.153  -6.812  23.733  0.00  0.00    +0.049 A 
ATOM      8  C   UNL     1       3.787  -7.134  24.945  0.00  0.00    +0.159 A 
ATOM      9  C   UNL     1       4.789  -6.318  25.392  0.00  0.00    +0.166 A 
ATOM     10  O   UNL     1       5.611  -6.450  26.505  0.00  0.00    -0.484 OA
ATOM     11  C   UNL     1       6.806  -5.803  26.003  0.00  0.00    +0.185 C 
ATOM     12  C   UNL     1       7.907  -5.301  26.919  0.00  0.00    +0.045 C 
ATOM     13  C   UNL     1       8.959  -4.504  26.078  0.00  0.00    +0.004 C 
ATOM     14  C   UNL     1       8.794  -4.523  24.530  0.00  0.00    +0.006 C 
ATOM     15  C   UNL     1       6.370  -4.629  25.139  0.00  0.00    +0.042 C 
ATOM     16  C   UNL     1       5.918  -3.299  25.790  0.00  0.00    +0.031 C 
ATOM     17  C   UNL     1       5.163  -5.262  24.591  0.00  0.00    +0.011 A 
ATOM     18  C   UNL     1       7.345  -4.513  23.990  0.00  0.00    +0.021 C 
ATOM     19  C   UNL     1       6.623  -2.058  25.232  0.00  0.00    +0.085 C 
ENDROOT
BRANCH   8  20
ATOM     20  O   UNL     1       3.460  -8.278  25.600  0.00  0.00    -0.503 OA
ATOM     21  H   UNL     1       3.163  -8.906  24.913  0.00  0.00    +0.292 HD
ENDBRANCH   8  20
TORSDOF 1
ENDMDL
MODEL 7
REMARK VINA RESULT:      -6.3      2.705      5.214
REMARK  Name = 
REMARK  2 active torsions:
REMARK  status: ('A' for Active; 'I' for Inactive)
REMARK    1  A    between atoms: C_1  and  N_2
REMARK    2  A    between atoms: C_17  and  O_18
REMARK                            x       y       z     vdW  Elec       q    Type
REMARK                         _______ _______ _______ _____ _____    ______ ____
ROOT
ATOM      1  C   UNL     1       9.427  -4.655  25.241  0.00  0.00    +0.105 C 
ATOM      2  N   UNL     1       8.508  -3.555  25.064  0.00  0.00    -0.302 NA
ATOM      3  C   UNL     1       8.380  -3.019  23.702  0.00  0.00    +0.065 C 
ATOM      4  C   UNL     1       9.673  -2.255  23.093  0.00  0.00    +0.054 C 
ATOM      5  C   UNL     1       9.502  -0.758  22.859  0.00  0.00    -0.038 A 
ATOM      6  C   UNL     1      10.189   0.074  21.984  0.00  0.00    +0.008 A 
ATOM      7  C   UNL     1       9.818   1.444  21.859  0.00  0.00    +0.049 A 
ATOM      8  C   UNL     1       8.780   1.996  22.628  0.00  0.00    +0.159 A 
ATOM      9  C   UNL     1       8.143   1.195  23.534  0.00  0.00    +0.166 A 
ATOM     10  O   UNL     1       7.055   1.471  24.353  0.00  0.00    -0.484 OA
ATOM     11  C   UNL     1       6.462   0.151  24.425  0.00  0.00    +0.185 C 
ATOM     12  C   UNL     1       5.466  -0.238  25.503  0.00  0.00    +0.045 C 
ATOM     13  C   UNL     1       5.162  -1.769  25.399  0.00  0.00    +0.004 C 
ATOM     14  C   UNL     1       5.754  -2.531  24.178  0.00  0.00    +0.006 C 
ATOM     15  C   UNL     1       7.594  -0.863  24.472  0.00  0.00    +0.042 C 
ATOM     16  C   UNL     1       8.358  -1.129  25.792  0.00  0.00    +0.031 C 
ATOM     17  C   UNL     1       8.515  -0.130  23.593  0.00  0.00    +0.011 A 
ATOM     18  C   UNL     1       7.154  -2.084  23.698  0.00  0.00    +0.021 C 
ATOM     19  C   UNL     1       8.455  -2.611  26.171  0.00  0.00    +0.085 C 
ENDROOT
BRANCH   8  20
ATOM     20  O   UNL     1       8.372   3.273  22.402  0.00  0.00    -0.503 OA
ATOM     21  H   UNL     1       7.552   3.388  22.920  0.00  0.00    +0.292 HD
ENDBRANCH   8  20
TORSDOF 1
ENDMDL
MODEL 8
REMARK VINA RESULT:      -6.3      3.252      5.106
REMARK  Name = 
REMARK  2 active torsions:
REMARK  status: ('A' for Active; 'I' for Inactive)
REMARK    1  A    between atoms: C_1  and  N_2
REMARK    2  A    between atoms: C_17  and  O_18
REMARK                            x       y       z     vdW  Elec       q    Type
REMARK                         _______ _______ _______ _____ _____    ______ ____
ROOT
ATOM      1  C   UNL     1       5.315  -6.391  26.671  0.00  0.00    +0.105 C 
ATOM      2  N   UNL     1       5.721  -5.636  25.509  0.00  0.00    -0.302 NA
ATOM      3  C   UNL     1       7.107  -5.151  25.493  0.00  0.00    +0.065 C 
ATOM      4  C   UNL     1       7.494  -4.009  26.577  0.00  0.00    +0.054 C 
ATOM      5  C   UNL     1       7.833  -2.640  25.998  0.00  0.00    -0.038 A 
ATOM      6  C   UNL     1       8.601  -1.624  26.551  0.00  0.00    +0.008 A 
ATOM      7  C   UNL     1       8.865  -0.439  25.804  0.00  0.00    +0.049 A 
ATOM      8  C   UNL     1       8.339  -0.252  24.514  0.00  0.00    +0.159 A 
ATOM      9  C   UNL     1       7.533  -1.225  23.992  0.00  0.00    +0.166 A 
ATOM     10  O   UNL     1       6.954  -1.317  22.732  0.00  0.00    -0.484 OA
ATOM     11  C   UNL     1       6.930  -2.757  22.579  0.00  0.00    +0.185 C 
ATOM     12  C   UNL     1       6.045  -3.454  21.561  0.00  0.00    +0.045 C 
ATOM     13  C   UNL     1       6.127  -5.002  21.776  0.00  0.00    +0.004 C 
ATOM     14  C   UNL     1       7.171  -5.522  22.806  0.00  0.00    +0.006 C 
ATOM     15  C   UNL     1       6.614  -3.362  23.938  0.00  0.00    +0.042 C 
ATOM     16  C   UNL     1       5.160  -3.390  24.468  0.00  0.00    +0.031 C 
ATOM     17  C   UNL     1       7.336  -2.365  24.739  0.00  0.00    +0.011 A 
ATOM     18  C   UNL     1       7.395  -4.650  24.063  0.00  0.00    +0.021 C 
ATOM     19  C   UNL     1       4.694  -4.770  24.945  0.00  0.00    +0.085 C 
ENDROOT
BRANCH   8  20
ATOM     20  O   UNL     1       8.704   0.833  23.782  0.00  0.00    -0.503 OA
ATOM     21  H   UNL     1       9.637   1.010  24.012  0.00  0.00    +0.292 HD
ENDBRANCH   8  20
TORSDOF 1
ENDMDL
MODEL 9
REMARK VINA RESULT:      -6.2      2.760      5.068
REMARK  Name = 
REMARK  2 active torsions:
REMARK  status: ('A' for Active; 'I' for Inactive)
REMARK    1  A    between atoms: C_1  and  N_2
REMARK    2  A    between atoms: C_17  and  O_18
REMARK                            x       y       z     vdW  Elec       q    Type
REMARK                         _______ _______ _______ _____ _____    ______ ____
ROOT
ATOM      1  C   UNL     1       6.815  -2.338  26.318  0.00  0.00    +0.105 C 
ATOM      2  N   UNL     1       7.561  -1.672  25.276  0.00  0.00    -0.302 NA
ATOM      3  C   UNL     1       8.434  -0.568  25.696  0.00  0.00    +0.065 C 
ATOM      4  C   UNL     1       7.705   0.767  26.258  0.00  0.00    +0.054 C 
ATOM      5  C   UNL     1       7.856   2.012  25.391  0.00  0.00    -0.038 A 
ATOM      6  C   UNL     1       7.764   3.349  25.759  0.00  0.00    +0.008 A 
ATOM      7  C   UNL     1       8.019   4.373  24.802  0.00  0.00    +0.049 A 
ATOM      8  C   UNL     1       8.340   4.069  23.468  0.00  0.00    +0.159 A 
ATOM      9  C   UNL     1       8.371   2.755  23.089  0.00  0.00    +0.166 A 
ATOM     10  O   UNL     1       8.724   2.191  21.869  0.00  0.00    -0.484 OA
ATOM     11  C   UNL     1       9.263   0.928  22.331  0.00  0.00    +0.185 C 
ATOM     12  C   UNL     1       9.443  -0.266  21.412  0.00  0.00    +0.045 C 
ATOM     13  C   UNL     1       9.876  -1.510  22.257  0.00  0.00    +0.004 C 
ATOM     14  C   UNL     1      10.199  -1.271  23.760  0.00  0.00    +0.006 C 
ATOM     15  C   UNL     1       8.418   0.467  23.508  0.00  0.00    +0.042 C 
ATOM     16  C   UNL     1       7.041  -0.202  23.274  0.00  0.00    +0.031 C 
ATOM     17  C   UNL     1       8.150   1.802  24.058  0.00  0.00    +0.011 A 
ATOM     18  C   UNL     1       9.334  -0.221  24.494  0.00  0.00    +0.021 C 
ATOM     19  C   UNL     1       6.860  -1.536  24.006  0.00  0.00    +0.085 C 
ENDROOT
BRANCH   8  20
ATOM     20  O   UNL     1       8.693   5.061  22.610  0.00  0.00    -0.503 OA
ATOM     21  H   UNL     1       8.049   5.023  21.876  0.00  0.00    +0.292 HD
ENDBRANCH   8  20
TORSDOF 1
ENDMDL
