MODEL 1
REMARK VINA RESULT:      -7.0      0.000      0.000
REMARK  Name = 
REMARK  24 active torsions:
REMARK  status: ('A' for Active; 'I' for Inactive)
REMARK    1  A    between atoms: C_1  and  C_2
REMARK    2  A    between atoms: C_2  and  C_3
REMARK    3  A    between atoms: C_2  and  C_4
REMARK    4  A    between atoms: N_15  and  C_16
REMARK    5  A    between atoms: C_16  and  C_17
REMARK    6  A    between atoms: C_17  and  O_19
REMARK    7  A    between atoms: C_17  and  C_20
REMARK    8  A    between atoms: C_20  and  O_22
REMARK    9  A    between atoms: C_20  and  C_23
REMARK   10  A    between atoms: C_23  and  O_25
REMARK   11  A    between atoms: C_23  and  C_26
REMARK   12  A    between atoms: C_26  and  O_27
REMARK   13  A    between atoms: O_27  and  P_28
REMARK   14  A    between atoms: P_28  and  O_31
REMARK   15  A    between atoms: O_31  and  P_32
REMARK   16  A    between atoms: P_32  and  O_33
REMARK   17  A    between atoms: P_32  and  O_35
REMARK   18  A    between atoms: O_35  and  C_36
REMARK   19  A    between atoms: C_36  and  C_37
REMARK   20  A    between atoms: C_40  and  N_48
REMARK   21  A    between atoms: C_42  and  O_44
REMARK   22  A    between atoms: C_45  and  O_47
REMARK   23  A    between atoms: C_60  and  C_61
REMARK   24  A    between atoms: C_62  and  C_63
REMARK                            x       y       z     vdW  Elec       q    Type
REMARK                         _______ _______ _______ _____ _____    ______ ____
ROOT
ATOM      1  C   UNL     1       6.943  -0.737  26.723  0.00  0.00    +0.171 C 
ENDROOT
BRANCH   1   2
ATOM      2  O   UNL     1       8.078  -0.377  25.929  0.00  0.00    -0.387 OA
ATOM      3  H   UNL     1       7.756   0.366  25.367  0.00  0.00    +0.210 HD
ENDBRANCH   1   2
BRANCH   1   4
ATOM      4  C   UNL     1       6.433  -2.121  26.289  0.00  0.00    +0.201 C 
BRANCH   4   5
ATOM      5  O   UNL     1       5.373  -2.591  27.115  0.00  0.00    -0.325 OA
BRANCH   5   6
ATOM      6  P   UNL     1       4.189  -3.576  26.483  0.00  0.00    +0.222 P 
ATOM      7  O   UNL     1       3.819  -2.445  25.227  0.00  0.00    -0.437 OA
ATOM      8  O   UNL     1       2.897  -3.304  27.269  0.00  0.00    -0.517 OA
BRANCH   6   9
ATOM      9  O   UNL     1       4.559  -4.707  27.739  0.00  0.00    -0.229 OA
BRANCH   9  10
ATOM     10  P   UNL     1       5.717  -5.787  27.326  0.00  0.00    +0.480 P 
ATOM     11  O   UNL     1       5.589  -7.123  27.997  0.00  0.00    -0.227 OA
BRANCH  10  12
ATOM     12  O   UNL     1       7.069  -5.144  27.935  0.00  0.00    -0.302 OA
ATOM     13  H   UNL     1       7.737  -5.851  27.965  0.00  0.00    +0.222 HD
ENDBRANCH  10  12
BRANCH  10  14
ATOM     14  O   UNL     1       6.156  -5.872  25.750  0.00  0.00    -0.284 OA
BRANCH  14  15
ATOM     15  C   UNL     1       7.509  -5.535  25.375  0.00  0.00    +0.206 C 
BRANCH  15  16
ATOM     16  C   UNL     1       7.899  -5.207  23.886  0.00  0.00    +0.178 C 
ATOM     17  C   UNL     1       6.813  -5.075  22.813  0.00  0.00    +0.178 C 
ATOM     18  C   UNL     1       6.714  -3.581  22.510  0.00  0.00    +0.195 C 
ATOM     19  C   UNL     1       7.787  -2.944  23.400  0.00  0.00    +0.253 C 
ATOM     20  O   UNL     1       8.688  -3.997  23.789  0.00  0.00    -0.346 OA
BRANCH  19  21
ATOM     21  N   UNL     1       8.531  -1.850  22.786  0.00  0.00    -0.286 N 
ATOM     22  C   UNL     1       8.109  -0.545  22.704  0.00  0.00    +0.167 A 
ATOM     23  N   UNL     1       6.901  -0.049  23.026  0.00  0.00    -0.216 NA
ATOM     24  C   UNL     1       6.865   1.287  22.830  0.00  0.00    +0.225 A 
ATOM     25  N   UNL     1       7.858   2.104  22.415  0.00  0.00    -0.219 NA
ATOM     26  C   UNL     1       9.051   1.554  22.097  0.00  0.00    +0.147 A 
ATOM     27  N   UNL     1      10.074   2.394  21.683  0.00  0.00    -0.341 N 
ATOM     28  H   UNL     1      11.000   1.990  21.752  0.00  0.00    +0.144 HD
ATOM     29  H   UNL     1       9.941   3.355  21.963  0.00  0.00    +0.144 HD
ATOM     30  C   UNL     1       9.206   0.163  22.237  0.00  0.00    +0.147 A 
ATOM     31  N   UNL     1      10.275  -0.687  22.039  0.00  0.00    -0.231 NA
ATOM     32  C   UNL     1       9.837  -1.876  22.366  0.00  0.00    +0.203 A 
ENDBRANCH  19  21
BRANCH  18  33
ATOM     33  O   UNL     1       5.415  -3.084  22.825  0.00  0.00    -0.385 OA
ATOM     34  H   UNL     1       4.786  -3.555  22.243  0.00  0.00    +0.210 HD
ENDBRANCH  18  33
BRANCH  17  35
ATOM     35  O   UNL     1       7.251  -5.741  21.600  0.00  0.00    -0.386 OA
ATOM     36  H   UNL     1       6.545  -6.333  21.280  0.00  0.00    +0.210 HD
ENDBRANCH  17  35
ENDBRANCH  15  16
ENDBRANCH  14  15
ENDBRANCH  10  14
ENDBRANCH   9  10
ENDBRANCH   6   9
ENDBRANCH   5   6
ENDBRANCH   4   5
ENDBRANCH   1   4
BRANCH   1  37
ATOM     37  C   UNL     1       5.843   0.350  26.629  0.00  0.00    +0.175 C 
BRANCH  37  38
ATOM     38  O   UNL     1       4.935   0.109  25.548  0.00  0.00    -0.387 OA
ATOM     39  H   UNL     1       5.110   0.795  24.876  0.00  0.00    +0.210 HD
ENDBRANCH  37  38
BRANCH  37  40
ATOM     40  C   UNL     1       6.406   1.789  26.544  0.00  0.00    +0.165 C 
BRANCH  40  41
ATOM     41  O   UNL     1       7.581   1.837  27.388  0.00  0.00    -0.387 OA
ATOM     42  H   UNL     1       8.201   1.152  27.083  0.00  0.00    +0.210 HD
ENDBRANCH  40  41
BRANCH  40  43
ATOM     43  C   UNL     1       5.444   2.915  26.994  0.00  0.00    +0.158 C 
BRANCH  43  53
ATOM     44  C   UNL     1       1.979   5.059  22.618  0.00  0.00    +0.398 C 
ATOM     45  N   UNL     1       3.018   4.417  23.710  0.00  0.00    -0.112 N 
ATOM     46  C   UNL     1       4.395   4.801  23.842  0.00  0.00    +0.241 A 
ATOM     47  C   UNL     1       5.200   4.247  24.866  0.00  0.00    +0.117 A 
ATOM     48  C   UNL     1       6.573   4.596  24.874  0.00  0.00    +0.036 A 
ATOM     49  C   UNL     1       7.167   5.406  23.885  0.00  0.00    -0.045 A 
ATOM     50  C   UNL     1       6.362   5.954  22.895  0.00  0.00    -0.041 A 
ATOM     51  C   UNL     1       6.874   6.754  21.724  0.00  0.00    +0.044 C 
ATOM     52  C   UNL     1       8.649   5.658  23.922  0.00  0.00    +0.044 C 
ATOM     53  N   UNL     1       4.628   3.400  25.839  0.00  0.00    -0.312 N 
ATOM     54  C   UNL     1       3.298   3.041  25.727  0.00  0.00    +0.218 A 
ATOM     55  N   UNL     1       2.685   2.277  26.574  0.00  0.00    -0.169 NA
ATOM     56  C   UNL     1       1.375   1.909  26.449  0.00  0.00    +0.351 A 
ATOM     57  O   UNL     1       0.896   0.944  27.030  0.00  0.00    -0.245 OA
ATOM     58  N   UNL     1       0.590   2.595  25.571  0.00  0.00    -0.268 N 
ATOM     59  H   UNL     1      -0.309   2.125  25.491  0.00  0.00    +0.174 HD
ATOM     60  C   UNL     1       1.168   2.924  24.386  0.00  0.00    +0.328 A 
ATOM     61  O   UNL     1       0.754   2.617  23.278  0.00  0.00    -0.260 OA
ATOM     62  C   UNL     1       4.988   5.705  22.950  0.00  0.00    +0.084 A 
ATOM     63  C   UNL     1       2.521   3.549  24.536  0.00  0.00    +0.324 A 
ATOM     64  O   UNL     1       0.873   5.277  23.093  0.00  0.00    -0.218 OA
BRANCH  44  66
ATOM     65  C   UNL     1       1.856   4.737  20.081  0.00  0.00    +0.022 C 
ATOM     66  C   UNL     1       2.412   5.548  21.240  0.00  0.00    +0.124 C 
ATOM     67  C   UNL     1       1.980   7.018  21.100  0.00  0.00    +0.022 C 
ENDBRANCH  44  66
ENDBRANCH  43  53
ENDBRANCH  40  43
ENDBRANCH  37  40
ENDBRANCH   1  37
TORSDOF 20
ENDMDL
MODEL 2
REMARK VINA RESULT:      -6.9      2.566      4.105
REMARK  Name = 
REMARK  24 active torsions:
REMARK  status: ('A' for Active; 'I' for Inactive)
REMARK    1  A    between atoms: C_1  and  C_2
REMARK    2  A    between atoms: C_2  and  C_3
REMARK    3  A    between atoms: C_2  and  C_4
REMARK    4  A    between atoms: N_15  and  C_16
REMARK    5  A    between atoms: C_16  and  C_17
REMARK    6  A    between atoms: C_17  and  O_19
REMARK    7  A    between atoms: C_17  and  C_20
REMARK    8  A    between atoms: C_20  and  O_22
REMARK    9  A    between atoms: C_20  and  C_23
REMARK   10  A    between atoms: C_23  and  O_25
REMARK   11  A    between atoms: C_23  and  C_26
REMARK   12  A    between atoms: C_26  and  O_27
REMARK   13  A    between atoms: O_27  and  P_28
REMARK   14  A    between atoms: P_28  and  O_31
REMARK   15  A    between atoms: O_31  and  P_32
REMARK   16  A    between atoms: P_32  and  O_33
REMARK   17  A    between atoms: P_32  and  O_35
REMARK   18  A    between atoms: O_35  and  C_36
REMARK   19  A    between atoms: C_36  and  C_37
REMARK   20  A    between atoms: C_40  and  N_48
REMARK   21  A    between atoms: C_42  and  O_44
REMARK   22  A    between atoms: C_45  and  O_47
REMARK   23  A    between atoms: C_60  and  C_61
REMARK   24  A    between atoms: C_62  and  C_63
REMARK                            x       y       z     vdW  Elec       q    Type
REMARK                         _______ _______ _______ _____ _____    ______ ____
ROOT
ATOM      1  C   UNL     1       5.252  -4.581  23.407  0.00  0.00    +0.171 C 
ENDROOT
BRANCH   1   2
ATOM      2  O   UNL     1       4.571  -4.144  22.228  0.00  0.00    -0.387 OA
ATOM      3  H   UNL     1       4.309  -4.979  21.774  0.00  0.00    +0.210 HD
ENDBRANCH   1   2
BRANCH   1   4
ATOM      4  C   UNL     1       4.800  -6.008  23.760  0.00  0.00    +0.201 C 
BRANCH   4   5
ATOM      5  O   UNL     1       5.054  -6.336  25.121  0.00  0.00    -0.325 OA
BRANCH   5   6
ATOM      6  P   UNL     1       3.859  -7.014  26.060  0.00  0.00    +0.222 P 
ATOM      7  O   UNL     1       3.451  -8.165  24.833  0.00  0.00    -0.437 OA
ATOM      8  O   UNL     1       2.586  -6.176  25.860  0.00  0.00    -0.517 OA
BRANCH   6   9
ATOM      9  O   UNL     1       4.266  -5.864  27.286  0.00  0.00    -0.229 OA
BRANCH   9  10
ATOM     10  P   UNL     1       5.636  -6.233  28.101  0.00  0.00    +0.480 P 
ATOM     11  O   UNL     1       5.582  -7.532  28.851  0.00  0.00    -0.227 OA
BRANCH  10  12
ATOM     12  O   UNL     1       5.715  -5.095  29.246  0.00  0.00    -0.302 OA
ATOM     13  H   UNL     1       6.155  -5.492  30.017  0.00  0.00    +0.222 HD
ENDBRANCH  10  12
BRANCH  10  14
ATOM     14  O   UNL     1       7.068  -5.953  27.356  0.00  0.00    -0.284 OA
BRANCH  14  15
ATOM     15  C   UNL     1       7.447  -4.595  27.043  0.00  0.00    +0.206 C 
BRANCH  15  16
ATOM     16  C   UNL     1       8.877  -4.241  26.488  0.00  0.00    +0.178 C 
ATOM     17  C   UNL     1       9.368  -4.850  25.171  0.00  0.00    +0.178 C 
ATOM     18  C   UNL     1       9.322  -3.714  24.151  0.00  0.00    +0.195 C 
ATOM     19  C   UNL     1       8.846  -2.500  24.958  0.00  0.00    +0.253 C 
ATOM     20  O   UNL     1       9.062  -2.813  26.347  0.00  0.00    -0.346 OA
BRANCH  19  21
ATOM     21  N   UNL     1       9.497  -1.240  24.622  0.00  0.00    -0.286 N 
ATOM     22  C   UNL     1       9.412  -0.597  23.410  0.00  0.00    +0.167 A 
ATOM     23  N   UNL     1       8.856  -1.052  22.274  0.00  0.00    -0.216 NA
ATOM     24  C   UNL     1       8.947  -0.129  21.292  0.00  0.00    +0.225 A 
ATOM     25  N   UNL     1       9.464   1.119  21.356  0.00  0.00    -0.219 NA
ATOM     26  C   UNL     1      10.018   1.526  22.520  0.00  0.00    +0.147 A 
ATOM     27  N   UNL     1      10.537   2.810  22.589  0.00  0.00    -0.341 N 
ATOM     28  H   UNL     1      10.654   3.163  23.531  0.00  0.00    +0.144 HD
ATOM     29  H   UNL     1      10.170   3.429  21.880  0.00  0.00    +0.144 HD
ATOM     30  C   UNL     1      10.005   0.641  23.613  0.00  0.00    +0.147 A 
ATOM     31  N   UNL     1      10.442   0.753  24.917  0.00  0.00    -0.231 NA
ATOM     32  C   UNL     1      10.132  -0.384  25.486  0.00  0.00    +0.203 A 
ENDBRANCH  19  21
BRANCH  18  33
ATOM     33  O   UNL     1       8.418  -4.019  23.091  0.00  0.00    -0.385 OA
ATOM     34  H   UNL     1       8.577  -3.359  22.387  0.00  0.00    +0.210 HD
ENDBRANCH  18  33
BRANCH  17  35
ATOM     35  O   UNL     1      10.754  -5.255  25.315  0.00  0.00    -0.386 OA
ATOM     36  H   UNL     1      11.253  -4.553  25.772  0.00  0.00    +0.210 HD
ENDBRANCH  17  35
ENDBRANCH  15  16
ENDBRANCH  14  15
ENDBRANCH  10  14
ENDBRANCH   9  10
ENDBRANCH   6   9
ENDBRANCH   5   6
ENDBRANCH   4   5
ENDBRANCH   1   4
BRANCH   1  37
ATOM     37  C   UNL     1       5.020  -3.588  24.573  0.00  0.00    +0.175 C 
BRANCH  37  38
ATOM     38  O   UNL     1       3.700  -3.691  25.118  0.00  0.00    -0.387 OA
ATOM     39  H   UNL     1       3.596  -4.610  25.431  0.00  0.00    +0.210 HD
ENDBRANCH  37  38
BRANCH  37  40
ATOM     40  C   UNL     1       5.333  -2.118  24.201  0.00  0.00    +0.165 C 
BRANCH  40  41
ATOM     41  O   UNL     1       6.129  -2.145  22.992  0.00  0.00    -0.387 OA
ATOM     42  H   UNL     1       7.037  -1.887  23.223  0.00  0.00    +0.210 HD
ENDBRANCH  40  41
BRANCH  40  43
ATOM     43  C   UNL     1       6.104  -1.304  25.267  0.00  0.00    +0.158 C 
BRANCH  43  53
ATOM     44  C   UNL     1       2.786   2.858  27.992  0.00  0.00    +0.398 C 
ATOM     45  N   UNL     1       3.618   1.748  27.122  0.00  0.00    -0.112 N 
ATOM     46  C   UNL     1       4.433   2.057  25.980  0.00  0.00    +0.241 A 
ATOM     47  C   UNL     1       5.178   1.042  25.334  0.00  0.00    +0.117 A 
ATOM     48  C   UNL     1       5.880   1.401  24.157  0.00  0.00    +0.036 A 
ATOM     49  C   UNL     1       5.815   2.687  23.584  0.00  0.00    -0.045 A 
ATOM     50  C   UNL     1       5.092   3.676  24.237  0.00  0.00    -0.041 A 
ATOM     51  C   UNL     1       4.856   5.062  23.692  0.00  0.00    +0.044 C 
ATOM     52  C   UNL     1       6.524   2.959  22.286  0.00  0.00    +0.044 C 
ATOM     53  N   UNL     1       5.219  -0.262  25.873  0.00  0.00    -0.312 N 
ATOM     54  C   UNL     1       4.449  -0.561  26.982  0.00  0.00    +0.218 A 
ATOM     55  N   UNL     1       4.428  -1.724  27.550  0.00  0.00    -0.169 NA
ATOM     56  C   UNL     1       3.651  -2.021  28.634  0.00  0.00    +0.351 A 
ATOM     57  O   UNL     1       3.368  -3.168  28.956  0.00  0.00    -0.245 OA
ATOM     58  N   UNL     1       3.096  -0.992  29.335  0.00  0.00    -0.268 N 
ATOM     59  H   UNL     1       2.446  -1.370  30.020  0.00  0.00    +0.174 HD
ATOM     60  C   UNL     1       2.610   0.038  28.595  0.00  0.00    +0.328 A 
ATOM     61  O   UNL     1       1.462   0.459  28.620  0.00  0.00    -0.260 OA
ATOM     62  C   UNL     1       4.492   3.356  25.459  0.00  0.00    +0.084 A 
ATOM     63  C   UNL     1       3.565   0.523  27.548  0.00  0.00    +0.324 A 
ATOM     64  O   UNL     1       2.859   2.659  29.198  0.00  0.00    -0.218 OA
BRANCH  44  66
ATOM     65  C   UNL     1       0.975   3.889  26.505  0.00  0.00    +0.022 C 
ATOM     66  C   UNL     1       2.194   4.124  27.384  0.00  0.00    +0.124 C 
ATOM     67  C   UNL     1       1.829   5.079  28.535  0.00  0.00    +0.022 C 
ENDBRANCH  44  66
ENDBRANCH  43  53
ENDBRANCH  40  43
ENDBRANCH  37  40
ENDBRANCH   1  37
TORSDOF 20
ENDMDL
MODEL 3
REMARK VINA RESULT:      -6.4      3.337      6.304
REMARK  Name = 
REMARK  24 active torsions:
REMARK  status: ('A' for Active; 'I' for Inactive)
REMARK    1  A    between atoms: C_1  and  C_2
REMARK    2  A    between atoms: C_2  and  C_3
REMARK    3  A    between atoms: C_2  and  C_4
REMARK    4  A    between atoms: N_15  and  C_16
REMARK    5  A    between atoms: C_16  and  C_17
REMARK    6  A    between atoms: C_17  and  O_19
REMARK    7  A    between atoms: C_17  and  C_20
REMARK    8  A    between atoms: C_20  and  O_22
REMARK    9  A    between atoms: C_20  and  C_23
REMARK   10  A    between atoms: C_23  and  O_25
REMARK   11  A    between atoms: C_23  and  C_26
REMARK   12  A    between atoms: C_26  and  O_27
REMARK   13  A    between atoms: O_27  and  P_28
REMARK   14  A    between atoms: P_28  and  O_31
REMARK   15  A    between atoms: O_31  and  P_32
REMARK   16  A    between atoms: P_32  and  O_33
REMARK   17  A    between atoms: P_32  and  O_35
REMARK   18  A    between atoms: O_35  and  C_36
REMARK   19  A    between atoms: C_36  and  C_37
REMARK   20  A    between atoms: C_40  and  N_48
REMARK   21  A    between atoms: C_42  and  O_44
REMARK   22  A    between atoms: C_45  and  O_47
REMARK   23  A    between atoms: C_60  and  C_61
REMARK   24  A    between atoms: C_62  and  C_63
REMARK                            x       y       z     vdW  Elec       q    Type
REMARK                         _______ _______ _______ _____ _____    ______ ____
ROOT
ATOM      1  C   UNL     1       4.783  -1.638  26.207  0.00  0.00    +0.171 C 
ENDROOT
BRANCH   1   2
ATOM      2  O   UNL     1       3.733  -2.272  25.471  0.00  0.00    -0.387 OA
ATOM      3  H   UNL     1       2.933  -1.733  25.674  0.00  0.00    +0.210 HD
ENDBRANCH   1   2
BRANCH   1   4
ATOM      4  C   UNL     1       4.294  -0.278  26.728  0.00  0.00    +0.201 C 
BRANCH   4   5
ATOM      5  O   UNL     1       2.881  -0.239  26.896  0.00  0.00    -0.325 OA
BRANCH   5   6
ATOM      6  P   UNL     1       2.194  -0.687  28.345  0.00  0.00    +0.222 P 
ATOM      7  O   UNL     1       1.971   0.958  28.830  0.00  0.00    -0.437 OA
ATOM      8  O   UNL     1       3.340  -0.946  29.337  0.00  0.00    -0.517 OA
BRANCH   6   9
ATOM      9  O   UNL     1       2.418  -2.333  27.861  0.00  0.00    -0.229 OA
BRANCH   9  10
ATOM     10  P   UNL     1       1.697  -3.412  28.858  0.00  0.00    +0.480 P 
ATOM     11  O   UNL     1       0.443  -4.026  28.308  0.00  0.00    -0.227 OA
BRANCH  10  12
ATOM     12  O   UNL     1       1.206  -2.507  30.104  0.00  0.00    -0.302 OA
ATOM     13  H   UNL     1       1.297  -1.576  29.837  0.00  0.00    +0.222 HD
ENDBRANCH  10  12
BRANCH  10  14
ATOM     14  O   UNL     1       2.657  -4.467  29.664  0.00  0.00    -0.284 OA
BRANCH  14  15
ATOM     15  C   UNL     1       4.090  -4.379  29.507  0.00  0.00    +0.206 C 
BRANCH  15  16
ATOM     16  C   UNL     1       4.873  -5.316  28.513  0.00  0.00    +0.178 C 
ATOM     17  C   UNL     1       4.497  -6.795  28.385  0.00  0.00    +0.178 C 
ATOM     18  C   UNL     1       3.787  -6.923  27.038  0.00  0.00    +0.195 C 
ATOM     19  C   UNL     1       3.838  -5.509  26.449  0.00  0.00    +0.253 C 
ATOM     20  O   UNL     1       4.865  -4.796  27.163  0.00  0.00    -0.346 OA
BRANCH  19  21
ATOM     21  N   UNL     1       4.090  -5.445  25.014  0.00  0.00    -0.286 N 
ATOM     22  C   UNL     1       5.330  -5.403  24.422  0.00  0.00    +0.167 A 
ATOM     23  N   UNL     1       6.524  -5.264  25.024  0.00  0.00    -0.216 NA
ATOM     24  C   UNL     1       7.523  -5.286  24.115  0.00  0.00    +0.225 A 
ATOM     25  N   UNL     1       7.441  -5.461  22.777  0.00  0.00    -0.219 NA
ATOM     26  C   UNL     1       6.215  -5.588  22.221  0.00  0.00    +0.147 A 
ATOM     27  N   UNL     1       6.131  -5.779  20.850  0.00  0.00    -0.341 N 
ATOM     28  H   UNL     1       5.248  -6.165  20.536  0.00  0.00    +0.144 HD
ATOM     29  H   UNL     1       6.986  -6.127  20.441  0.00  0.00    +0.144 HD
ATOM     30  C   UNL     1       5.090  -5.557  23.065  0.00  0.00    +0.147 A 
ATOM     31  N   UNL     1       3.737  -5.692  22.830  0.00  0.00    -0.231 NA
ATOM     32  C   UNL     1       3.172  -5.612  24.008  0.00  0.00    +0.203 A 
ENDBRANCH  19  21
BRANCH  18  33
ATOM     33  O   UNL     1       2.442  -7.365  27.212  0.00  0.00    -0.385 OA
ATOM     34  H   UNL     1       2.262  -8.004  26.494  0.00  0.00    +0.210 HD
ENDBRANCH  18  33
BRANCH  17  35
ATOM     35  O   UNL     1       5.706  -7.596  28.323  0.00  0.00    -0.386 OA
ATOM     36  H   UNL     1       5.469  -8.537  28.221  0.00  0.00    +0.210 HD
ENDBRANCH  17  35
ENDBRANCH  15  16
ENDBRANCH  14  15
ENDBRANCH  10  14
ENDBRANCH   9  10
ENDBRANCH   6   9
ENDBRANCH   5   6
ENDBRANCH   4   5
ENDBRANCH   1   4
BRANCH   1  37
ATOM     37  C   UNL     1       6.059  -1.509  25.337  0.00  0.00    +0.175 C 
BRANCH  37  38
ATOM     38  O   UNL     1       5.877  -2.051  24.024  0.00  0.00    -0.387 OA
ATOM     39  H   UNL     1       6.765  -2.274  23.686  0.00  0.00    +0.210 HD
ENDBRANCH  37  38
BRANCH  37  40
ATOM     40  C   UNL     1       7.319  -2.118  25.998  0.00  0.00    +0.165 C 
BRANCH  40  41
ATOM     41  O   UNL     1       6.866  -2.959  27.084  0.00  0.00    -0.387 OA
ATOM     42  H   UNL     1       6.572  -3.807  26.708  0.00  0.00    +0.210 HD
ENDBRANCH  40  41
BRANCH  40  43
ATOM     43  C   UNL     1       8.336  -1.101  26.569  0.00  0.00    +0.158 C 
BRANCH  43  53
ATOM     44  C   UNL     1       8.220   3.682  22.981  0.00  0.00    +0.398 C 
ATOM     45  N   UNL     1       8.326   2.456  24.063  0.00  0.00    -0.112 N 
ATOM     46  C   UNL     1       7.743   2.479  25.375  0.00  0.00    +0.241 A 
ATOM     47  C   UNL     1       7.819   1.343  26.215  0.00  0.00    +0.117 A 
ATOM     48  C   UNL     1       7.310   1.472  27.530  0.00  0.00    +0.036 A 
ATOM     49  C   UNL     1       6.797   2.681  28.042  0.00  0.00    -0.045 A 
ATOM     50  C   UNL     1       6.715   3.783  27.202  0.00  0.00    -0.041 A 
ATOM     51  C   UNL     1       6.282   5.160  27.639  0.00  0.00    +0.044 C 
ATOM     52  C   UNL     1       6.355   2.752  29.477  0.00  0.00    +0.044 C 
ATOM     53  N   UNL     1       8.369   0.137  25.729  0.00  0.00    -0.312 N 
ATOM     54  C   UNL     1       8.916   0.103  24.461  0.00  0.00    +0.218 A 
ATOM     55  N   UNL     1       9.435  -0.957  23.928  0.00  0.00    -0.169 NA
ATOM     56  C   UNL     1       9.993  -0.980  22.681  0.00  0.00    +0.351 A 
ATOM     57  O   UNL     1      10.768  -1.854  22.316  0.00  0.00    -0.245 OA
ATOM     58  N   UNL     1       9.741   0.062  21.839  0.00  0.00    -0.268 N 
ATOM     59  H   UNL     1      10.325  -0.031  21.012  0.00  0.00    +0.174 HD
ATOM     60  C   UNL     1       9.746   1.297  22.404  0.00  0.00    +0.328 A 
ATOM     61  O   UNL     1      10.451   2.237  22.065  0.00  0.00    -0.260 OA
ATOM     62  C   UNL     1       7.111   3.628  25.870  0.00  0.00    +0.084 A 
ATOM     63  C   UNL     1       8.934   1.383  23.659  0.00  0.00    +0.324 A 
ATOM     64  O   UNL     1       8.007   3.286  21.843  0.00  0.00    -0.218 OA
BRANCH  44  66
ATOM     65  C   UNL     1       9.504   5.769  23.725  0.00  0.00    +0.022 C 
ATOM     66  C   UNL     1       8.156   5.150  23.386  0.00  0.00    +0.124 C 
ATOM     67  C   UNL     1       7.500   5.933  22.235  0.00  0.00    +0.022 C 
ENDBRANCH  44  66
ENDBRANCH  43  53
ENDBRANCH  40  43
ENDBRANCH  37  40
ENDBRANCH   1  37
TORSDOF 20
ENDMDL
MODEL 4
REMARK VINA RESULT:      -6.3      3.410      5.928
REMARK  Name = 
REMARK  24 active torsions:
REMARK  status: ('A' for Active; 'I' for Inactive)
REMARK    1  A    between atoms: C_1  and  C_2
REMARK    2  A    between atoms: C_2  and  C_3
REMARK    3  A    between atoms: C_2  and  C_4
REMARK    4  A    between atoms: N_15  and  C_16
REMARK    5  A    between atoms: C_16  and  C_17
REMARK    6  A    between atoms: C_17  and  O_19
REMARK    7  A    between atoms: C_17  and  C_20
REMARK    8  A    between atoms: C_20  and  O_22
REMARK    9  A    between atoms: C_20  and  C_23
REMARK   10  A    between atoms: C_23  and  O_25
REMARK   11  A    between atoms: C_23  and  C_26
REMARK   12  A    between atoms: C_26  and  O_27
REMARK   13  A    between atoms: O_27  and  P_28
REMARK   14  A    between atoms: P_28  and  O_31
REMARK   15  A    between atoms: O_31  and  P_32
REMARK   16  A    between atoms: P_32  and  O_33
REMARK   17  A    between atoms: P_32  and  O_35
REMARK   18  A    between atoms: O_35  and  C_36
REMARK   19  A    between atoms: C_36  and  C_37
REMARK   20  A    between atoms: C_40  and  N_48
REMARK   21  A    between atoms: C_42  and  O_44
REMARK   22  A    between atoms: C_45  and  O_47
REMARK   23  A    between atoms: C_60  and  C_61
REMARK   24  A    between atoms: C_62  and  C_63
REMARK                            x       y       z     vdW  Elec       q    Type
REMARK                         _______ _______ _______ _____ _____    ______ ____
ROOT
ATOM      1  C   UNL     1       6.014  -4.009  27.546  0.00  0.00    +0.171 C 
ENDROOT
BRANCH   1   2
ATOM      2  O   UNL     1       6.765  -4.998  28.256  0.00  0.00    -0.387 OA
ATOM      3  H   UNL     1       6.172  -5.786  28.277  0.00  0.00    +0.210 HD
ENDBRANCH   1   2
BRANCH   1   4
ATOM      4  C   UNL     1       4.708  -4.633  27.028  0.00  0.00    +0.201 C 
BRANCH   4   5
ATOM      5  O   UNL     1       3.561  -3.876  27.400  0.00  0.00    -0.325 OA
BRANCH   5   6
ATOM      6  P   UNL     1       2.101  -4.135  26.644  0.00  0.00    +0.222 P 
ATOM      7  O   UNL     1       2.558  -3.177  25.277  0.00  0.00    -0.437 OA
ATOM      8  O   UNL     1       1.109  -3.095  27.188  0.00  0.00    -0.517 OA
BRANCH   6   9
ATOM      9  O   UNL     1       1.644  -5.093  28.010  0.00  0.00    -0.229 OA
BRANCH   9  10
ATOM     10  P   UNL     1       1.180  -6.613  27.618  0.00  0.00    +0.480 P 
ATOM     11  O   UNL     1       0.443  -7.339  28.705  0.00  0.00    -0.227 OA
BRANCH  10  12
ATOM     12  O   UNL     1       2.579  -7.408  27.462  0.00  0.00    -0.302 OA
ATOM     13  H   UNL     1       3.278  -6.741  27.340  0.00  0.00    +0.222 HD
ENDBRANCH  10  12
BRANCH  10  14
ATOM     14  O   UNL     1       0.571  -6.863  26.118  0.00  0.00    -0.284 OA
BRANCH  14  15
ATOM     15  C   UNL     1       0.836  -8.114  25.448  0.00  0.00    +0.206 C 
BRANCH  15  16
ATOM     16  C   UNL     1       1.813  -8.205  24.217  0.00  0.00    +0.178 C 
ATOM     17  C   UNL     1       1.486  -7.469  22.913  0.00  0.00    +0.178 C 
ATOM     18  C   UNL     1       2.449  -6.284  22.858  0.00  0.00    +0.195 C 
ATOM     19  C   UNL     1       3.308  -6.437  24.118  0.00  0.00    +0.253 C 
ATOM     20  O   UNL     1       3.158  -7.797  24.564  0.00  0.00    -0.346 OA
BRANCH  19  21
ATOM     21  N   UNL     1       4.721  -6.120  23.946  0.00  0.00    -0.286 N 
ATOM     22  C   UNL     1       5.218  -5.014  23.298  0.00  0.00    +0.167 A 
ATOM     23  N   UNL     1       4.535  -4.104  22.583  0.00  0.00    -0.216 NA
ATOM     24  C   UNL     1       5.362  -3.146  22.111  0.00  0.00    +0.225 A 
ATOM     25  N   UNL     1       6.692  -3.010  22.312  0.00  0.00    -0.219 NA
ATOM     26  C   UNL     1       7.333  -3.957  23.032  0.00  0.00    +0.147 A 
ATOM     27  N   UNL     1       8.695  -3.811  23.248  0.00  0.00    -0.341 N 
ATOM     28  H   UNL     1       9.056  -4.355  24.022  0.00  0.00    +0.144 HD
ATOM     29  H   UNL     1       9.020  -2.862  23.129  0.00  0.00    +0.144 HD
ATOM     30  C   UNL     1       6.580  -5.022  23.559  0.00  0.00    +0.147 A 
ATOM     31  N   UNL     1       6.910  -6.105  24.347  0.00  0.00    -0.231 NA
ATOM     32  C   UNL     1       5.785  -6.741  24.551  0.00  0.00    +0.203 A 
ENDBRANCH  19  21
BRANCH  18  33
ATOM     33  O   UNL     1       1.736  -5.049  22.861  0.00  0.00    -0.385 OA
ATOM     34  H   UNL     1       2.016  -4.566  23.665  0.00  0.00    +0.210 HD
ENDBRANCH  18  33
BRANCH  17  35
ATOM     35  O   UNL     1       1.784  -8.331  21.785  0.00  0.00    -0.386 OA
ATOM     36  H   UNL     1       2.751  -8.398  21.672  0.00  0.00    +0.210 HD
ENDBRANCH  17  35
ENDBRANCH  15  16
ENDBRANCH  14  15
ENDBRANCH  10  14
ENDBRANCH   9  10
ENDBRANCH   6   9
ENDBRANCH   5   6
ENDBRANCH   4   5
ENDBRANCH   1   4
BRANCH   1  37
ATOM     37  C   UNL     1       6.862  -3.392  26.405  0.00  0.00    +0.175 C 
BRANCH  37  38
ATOM     38  O   UNL     1       8.219  -3.846  26.434  0.00  0.00    -0.387 OA
ATOM     39  H   UNL     1       8.737  -3.218  25.894  0.00  0.00    +0.210 HD
ENDBRANCH  37  38
BRANCH  37  40
ATOM     40  C   UNL     1       6.815  -1.846  26.371  0.00  0.00    +0.165 C 
BRANCH  40  41
ATOM     41  O   UNL     1       6.270  -1.464  25.085  0.00  0.00    -0.387 OA
ATOM     42  H   UNL     1       5.310  -1.348  25.187  0.00  0.00    +0.210 HD
ENDBRANCH  40  41
BRANCH  40  43
ATOM     43  C   UNL     1       8.174  -1.127  26.550  0.00  0.00    +0.158 C 
BRANCH  43  53
ATOM     44  C   UNL     1       8.106   3.714  23.041  0.00  0.00    +0.398 C 
ATOM     45  N   UNL     1       8.197   2.471  24.103  0.00  0.00    -0.112 N 
ATOM     46  C   UNL     1       7.595   2.472  25.407  0.00  0.00    +0.241 A 
ATOM     47  C   UNL     1       7.660   1.322  26.229  0.00  0.00    +0.117 A 
ATOM     48  C   UNL     1       7.130   1.428  27.538  0.00  0.00    +0.036 A 
ATOM     49  C   UNL     1       6.609   2.629  28.063  0.00  0.00    -0.045 A 
ATOM     50  C   UNL     1       6.539   3.745  27.240  0.00  0.00    -0.041 A 
ATOM     51  C   UNL     1       6.098   5.113  27.693  0.00  0.00    +0.044 C 
ATOM     52  C   UNL     1       6.146   2.675  29.492  0.00  0.00    +0.044 C 
ATOM     53  N   UNL     1       8.217   0.125  25.732  0.00  0.00    -0.312 N 
ATOM     54  C   UNL     1       8.784   0.113  24.471  0.00  0.00    +0.218 A 
ATOM     55  N   UNL     1       9.311  -0.938  23.929  0.00  0.00    -0.169 NA
ATOM     56  C   UNL     1       9.888  -0.941  22.690  0.00  0.00    +0.351 A 
ATOM     57  O   UNL     1      10.669  -1.807  22.321  0.00  0.00    -0.245 OA
ATOM     58  N   UNL     1       9.647   0.115  21.862  0.00  0.00    -0.268 N 
ATOM     59  H   UNL     1      10.244   0.036  21.042  0.00  0.00    +0.174 HD
ATOM     60  C   UNL     1       9.643   1.341  22.446  0.00  0.00    +0.328 A 
ATOM     61  O   UNL     1      10.351   2.287  22.134  0.00  0.00    -0.260 OA
ATOM     62  C   UNL     1       6.954   3.612  25.912  0.00  0.00    +0.084 A 
ATOM     63  C   UNL     1       8.812   1.405  23.691  0.00  0.00    +0.324 A 
ATOM     64  O   UNL     1       7.910   3.338  21.894  0.00  0.00    -0.218 OA
BRANCH  44  66
ATOM     65  C   UNL     1       9.380   5.799  23.810  0.00  0.00    +0.022 C 
ATOM     66  C   UNL     1       8.035   5.176  23.469  0.00  0.00    +0.124 C 
ATOM     67  C   UNL     1       7.366   5.972  22.335  0.00  0.00    +0.022 C 
ENDBRANCH  44  66
ENDBRANCH  43  53
ENDBRANCH  40  43
ENDBRANCH  37  40
ENDBRANCH   1  37
TORSDOF 20
ENDMDL
MODEL 5
REMARK VINA RESULT:      -6.2      2.725      5.031
REMARK  Name = 
REMARK  24 active torsions:
REMARK  status: ('A' for Active; 'I' for Inactive)
REMARK    1  A    between atoms: C_1  and  C_2
REMARK    2  A    between atoms: C_2  and  C_3
REMARK    3  A    between atoms: C_2  and  C_4
REMARK    4  A    between atoms: N_15  and  C_16
REMARK    5  A    between atoms: C_16  and  C_17
REMARK    6  A    between atoms: C_17  and  O_19
REMARK    7  A    between atoms: C_17  and  C_20
REMARK    8  A    between atoms: C_20  and  O_22
REMARK    9  A    between atoms: C_20  and  C_23
REMARK   10  A    between atoms: C_23  and  O_25
REMARK   11  A    between atoms: C_23  and  C_26
REMARK   12  A    between atoms: C_26  and  O_27
REMARK   13  A    between atoms: O_27  and  P_28
REMARK   14  A    between atoms: P_28  and  O_31
REMARK   15  A    between atoms: O_31  and  P_32
REMARK   16  A    between atoms: P_32  and  O_33
REMARK   17  A    between atoms: P_32  and  O_35
REMARK   18  A    between atoms: O_35  and  C_36
REMARK   19  A    between atoms: C_36  and  C_37
REMARK   20  A    between atoms: C_40  and  N_48
REMARK   21  A    between atoms: C_42  and  O_44
REMARK   22  A    between atoms: C_45  and  O_47
REMARK   23  A    between atoms: C_60  and  C_61
REMARK   24  A    between atoms: C_62  and  C_63
REMARK                            x       y       z     vdW  Elec       q    Type
REMARK                         _______ _______ _______ _____ _____    ______ ____
ROOT
ATOM      1  C   UNL     1       5.060  -4.384  24.659  0.00  0.00    +0.171 C 
ENDROOT
BRANCH   1   2
ATOM      2  O   UNL     1       5.704  -5.579  24.209  0.00  0.00    -0.387 OA
ATOM      3  H   UNL     1       6.476  -5.683  24.814  0.00  0.00    +0.210 HD
ENDBRANCH   1   2
BRANCH   1   4
ATOM      4  C   UNL     1       3.813  -4.753  25.479  0.00  0.00    +0.201 C 
BRANCH   4   5
ATOM      5  O   UNL     1       3.930  -6.031  26.096  0.00  0.00    -0.325 OA
BRANCH   5   6
ATOM      6  P   UNL     1       3.191  -6.329  27.557  0.00  0.00    +0.222 P 
ATOM      7  O   UNL     1       2.051  -7.415  26.840  0.00  0.00    -0.437 OA
ATOM      8  O   UNL     1       2.158  -5.214  27.787  0.00  0.00    -0.517 OA
BRANCH   6   9
ATOM      9  O   UNL     1       4.329  -5.242  28.275  0.00  0.00    -0.229 OA
BRANCH   9  10
ATOM     10  P   UNL     1       5.541  -5.998  29.073  0.00  0.00    +0.480 P 
ATOM     11  O   UNL     1       5.149  -7.297  29.714  0.00  0.00    -0.227 OA
BRANCH  10  12
ATOM     12  O   UNL     1       5.858  -5.005  30.309  0.00  0.00    -0.302 OA
ATOM     13  H   UNL     1       5.736  -5.516  31.128  0.00  0.00    +0.222 HD
ENDBRANCH  10  12
BRANCH  10  14
ATOM     14  O   UNL     1       7.021  -6.022  28.371  0.00  0.00    -0.284 OA
BRANCH  14  15
ATOM     15  C   UNL     1       7.228  -5.302  27.136  0.00  0.00    +0.206 C 
BRANCH  15  16
ATOM     16  C   UNL     1       8.657  -4.817  26.689  0.00  0.00    +0.178 C 
ATOM     17  C   UNL     1       9.256  -5.293  25.361  0.00  0.00    +0.178 C 
ATOM     18  C   UNL     1       9.185  -4.090  24.424  0.00  0.00    +0.195 C 
ATOM     19  C   UNL     1       8.588  -2.973  25.288  0.00  0.00    +0.253 C 
ATOM     20  O   UNL     1       8.753  -3.373  26.660  0.00  0.00    -0.346 OA
BRANCH  19  21
ATOM     21  N   UNL     1       9.169  -1.651  25.079  0.00  0.00    -0.286 N 
ATOM     22  C   UNL     1       9.488  -1.104  23.859  0.00  0.00    +0.167 A 
ATOM     23  N   UNL     1       9.473  -1.707  22.657  0.00  0.00    -0.216 NA
ATOM     24  C   UNL     1       9.832  -0.842  21.684  0.00  0.00    +0.225 A 
ATOM     25  N   UNL     1      10.136   0.471  21.793  0.00  0.00    -0.219 NA
ATOM     26  C   UNL     1      10.143   1.026  23.026  0.00  0.00    +0.147 A 
ATOM     27  N   UNL     1      10.444   2.376  23.137  0.00  0.00    -0.341 N 
ATOM     28  H   UNL     1      10.144   2.800  24.007  0.00  0.00    +0.144 HD
ATOM     29  H   UNL     1      10.312   2.888  22.277  0.00  0.00    +0.144 HD
ATOM     30  C   UNL     1       9.810   0.218  24.127  0.00  0.00    +0.147 A 
ATOM     31  N   UNL     1       9.689   0.475  25.478  0.00  0.00    -0.231 NA
ATOM     32  C   UNL     1       9.316  -0.658  26.014  0.00  0.00    +0.203 A 
ENDBRANCH  19  21
BRANCH  18  33
ATOM     33  O   UNL     1       8.359  -4.372  23.296  0.00  0.00    -0.385 OA
ATOM     34  H   UNL     1       7.657  -4.977  23.607  0.00  0.00    +0.210 HD
ENDBRANCH  18  33
BRANCH  17  35
ATOM     35  O   UNL     1      10.656  -5.620  25.554  0.00  0.00    -0.386 OA
ATOM     36  H   UNL     1      10.750  -6.579  25.705  0.00  0.00    +0.210 HD
ENDBRANCH  17  35
ENDBRANCH  15  16
ENDBRANCH  14  15
ENDBRANCH  10  14
ENDBRANCH   9  10
ENDBRANCH   6   9
ENDBRANCH   5   6
ENDBRANCH   4   5
ENDBRANCH   1   4
BRANCH   1  37
ATOM     37  C   UNL     1       4.722  -3.461  23.461  0.00  0.00    +0.175 C 
BRANCH  37  38
ATOM     38  O   UNL     1       4.975  -4.093  22.202  0.00  0.00    -0.387 OA
ATOM     39  H   UNL     1       4.296  -4.787  22.094  0.00  0.00    +0.210 HD
ENDBRANCH  37  38
BRANCH  37  40
ATOM     40  C   UNL     1       5.432  -2.087  23.523  0.00  0.00    +0.165 C 
BRANCH  40  41
ATOM     41  O   UNL     1       6.545  -2.140  22.599  0.00  0.00    -0.387 OA
ATOM     42  H   UNL     1       6.810  -1.228  22.393  0.00  0.00    +0.210 HD
ENDBRANCH  40  41
BRANCH  40  43
ATOM     43  C   UNL     1       5.979  -1.676  24.911  0.00  0.00    +0.158 C 
BRANCH  43  53
ATOM     44  C   UNL     1       3.631   3.671  26.198  0.00  0.00    +0.398 C 
ATOM     45  N   UNL     1       4.342   2.212  25.979  0.00  0.00    -0.112 N 
ATOM     46  C   UNL     1       4.110   1.063  26.809  0.00  0.00    +0.241 A 
ATOM     47  C   UNL     1       4.710  -0.180  26.499  0.00  0.00    +0.117 A 
ATOM     48  C   UNL     1       4.517  -1.242  27.416  0.00  0.00    +0.036 A 
ATOM     49  C   UNL     1       3.816  -1.092  28.630  0.00  0.00    -0.045 A 
ATOM     50  C   UNL     1       3.221   0.129  28.914  0.00  0.00    -0.041 A 
ATOM     51  C   UNL     1       2.528   0.460  30.212  0.00  0.00    +0.044 C 
ATOM     52  C   UNL     1       3.731  -2.250  29.586  0.00  0.00    +0.044 C 
ATOM     53  N   UNL     1       5.450  -0.333  25.307  0.00  0.00    -0.312 N 
ATOM     54  C   UNL     1       5.663   0.765  24.494  0.00  0.00    +0.218 A 
ATOM     55  N   UNL     1       6.320   0.720  23.380  0.00  0.00    -0.169 NA
ATOM     56  C   UNL     1       6.545   1.812  22.590  0.00  0.00    +0.351 A 
ATOM     57  O   UNL     1       7.427   1.851  21.743  0.00  0.00    -0.245 OA
ATOM     58  N   UNL     1       5.809   2.937  22.816  0.00  0.00    -0.268 N 
ATOM     59  H   UNL     1       6.178   3.695  22.248  0.00  0.00    +0.174 HD
ATOM     60  C   UNL     1       5.593   3.255  24.119  0.00  0.00    +0.328 A 
ATOM     61  O   UNL     1       5.894   4.310  24.658  0.00  0.00    -0.260 OA
ATOM     62  C   UNL     1       3.312   1.145  27.958  0.00  0.00    +0.084 A 
ATOM     63  C   UNL     1       5.117   2.099  24.944  0.00  0.00    +0.324 A 
ATOM     64  O   UNL     1       3.273   4.182  25.146  0.00  0.00    -0.218 OA
BRANCH  44  66
ATOM     65  C   UNL     1       4.426   4.609  28.444  0.00  0.00    +0.022 C 
ATOM     66  C   UNL     1       3.246   4.215  27.569  0.00  0.00    +0.124 C 
ATOM     67  C   UNL     1       2.327   5.431  27.358  0.00  0.00    +0.022 C 
ENDBRANCH  44  66
ENDBRANCH  43  53
ENDBRANCH  40  43
ENDBRANCH  37  40
ENDBRANCH   1  37
TORSDOF 20
ENDMDL
MODEL 6
REMARK VINA RESULT:      -6.1      2.328      3.833
REMARK  Name = 
REMARK  24 active torsions:
REMARK  status: ('A' for Active; 'I' for Inactive)
REMARK    1  A    between atoms: C_1  and  C_2
REMARK    2  A    between atoms: C_2  and  C_3
REMARK    3  A    between atoms: C_2  and  C_4
REMARK    4  A    between atoms: N_15  and  C_16
REMARK    5  A    between atoms: C_16  and  C_17
REMARK    6  A    between atoms: C_17  and  O_19
REMARK    7  A    between atoms: C_17  and  C_20
REMARK    8  A    between atoms: C_20  and  O_22
REMARK    9  A    between atoms: C_20  and  C_23
REMARK   10  A    between atoms: C_23  and  O_25
REMARK   11  A    between atoms: C_23  and  C_26
REMARK   12  A    between atoms: C_26  and  O_27
REMARK   13  A    between atoms: O_27  and  P_28
REMARK   14  A    between atoms: P_28  and  O_31
REMARK   15  A    between atoms: O_31  and  P_32
REMARK   16  A    between atoms: P_32  and  O_33
REMARK   17  A    between atoms: P_32  and  O_35
REMARK   18  A    between atoms: O_35  and  C_36
REMARK   19  A    between atoms: C_36  and  C_37
REMARK   20  A    between atoms: C_40  and  N_48
REMARK   21  A    between atoms: C_42  and  O_44
REMARK   22  A    between atoms: C_45  and  O_47
REMARK   23  A    between atoms: C_60  and  C_61
REMARK   24  A    between atoms: C_62  and  C_63
REMARK                            x       y       z     vdW  Elec       q    Type
REMARK                         _______ _______ _______ _____ _____    ______ ____
ROOT
ATOM      1  C   UNL     1       4.076  -1.373  26.768  0.00  0.00    +0.171 C 
ENDROOT
BRANCH   1   2
ATOM      2  O   UNL     1       3.043  -0.384  26.738  0.00  0.00    -0.387 OA
ATOM      3  H   UNL     1       2.211  -0.903  26.636  0.00  0.00    +0.210 HD
ENDBRANCH   1   2
BRANCH   1   4
ATOM      4  C   UNL     1       3.490  -2.711  27.248  0.00  0.00    +0.201 C 
BRANCH   4   5
ATOM      5  O   UNL     1       3.644  -2.896  28.651  0.00  0.00    -0.325 OA
BRANCH   5   6
ATOM      6  P   UNL     1       3.907  -4.416  29.274  0.00  0.00    +0.222 P 
ATOM      7  O   UNL     1       2.459  -4.357  30.220  0.00  0.00    -0.437 OA
ATOM      8  O   UNL     1       4.842  -4.263  30.485  0.00  0.00    -0.517 OA
BRANCH   6   9
ATOM      9  O   UNL     1       5.354  -4.476  28.329  0.00  0.00    -0.229 OA
BRANCH   9  10
ATOM     10  P   UNL     1       6.048  -5.958  28.288  0.00  0.00    +0.480 P 
ATOM     11  O   UNL     1       6.728  -6.363  29.563  0.00  0.00    -0.227 OA
BRANCH  10  12
ATOM     12  O   UNL     1       7.244  -5.787  27.215  0.00  0.00    -0.302 OA
ATOM     13  H   UNL     1       7.528  -4.857  27.246  0.00  0.00    +0.222 HD
ENDBRANCH  10  12
BRANCH  10  14
ATOM     14  O   UNL     1       5.218  -7.170  27.562  0.00  0.00    -0.284 OA
BRANCH  14  15
ATOM     15  C   UNL     1       4.125  -6.845  26.676  0.00  0.00    +0.206 C 
BRANCH  15  16
ATOM     16  C   UNL     1       4.327  -6.727  25.119  0.00  0.00    +0.178 C 
ATOM     17  C   UNL     1       3.156  -6.330  24.214  0.00  0.00    +0.178 C 
ATOM     18  C   UNL     1       3.440  -4.893  23.781  0.00  0.00    +0.195 C 
ATOM     19  C   UNL     1       4.789  -4.563  24.430  0.00  0.00    +0.253 C 
ATOM     20  O   UNL     1       5.401  -5.817  24.782  0.00  0.00    -0.346 OA
BRANCH  19  21
ATOM     21  N   UNL     1       5.698  -3.777  23.603  0.00  0.00    -0.286 N 
ATOM     22  C   UNL     1       6.899  -3.251  24.015  0.00  0.00    +0.167 A 
ATOM     23  N   UNL     1       7.400  -3.223  25.262  0.00  0.00    -0.216 NA
ATOM     24  C   UNL     1       8.618  -2.639  25.276  0.00  0.00    +0.225 A 
ATOM     25  N   UNL     1       9.334  -2.161  24.234  0.00  0.00    -0.219 NA
ATOM     26  C   UNL     1       8.781  -2.207  23.001  0.00  0.00    +0.147 A 
ATOM     27  N   UNL     1       9.520  -1.727  21.930  0.00  0.00    -0.341 N 
ATOM     28  H   UNL     1       9.204  -2.054  21.024  0.00  0.00    +0.144 HD
ATOM     29  H   UNL     1      10.512  -1.689  22.113  0.00  0.00    +0.144 HD
ATOM     30  C   UNL     1       7.501  -2.772  22.861  0.00  0.00    +0.147 A 
ATOM     31  N   UNL     1       6.689  -2.999  21.768  0.00  0.00    -0.231 NA
ATOM     32  C   UNL     1       5.623  -3.589  22.245  0.00  0.00    +0.203 A 
ENDBRANCH  19  21
BRANCH  18  33
ATOM     33  O   UNL     1       2.415  -4.013  24.237  0.00  0.00    -0.385 OA
ATOM     34  H   UNL     1       2.215  -3.407  23.495  0.00  0.00    +0.210 HD
ENDBRANCH  18  33
BRANCH  17  35
ATOM     35  O   UNL     1       3.165  -7.159  23.023  0.00  0.00    -0.386 OA
ATOM     36  H   UNL     1       2.271  -7.515  22.867  0.00  0.00    +0.210 HD
ENDBRANCH  17  35
ENDBRANCH  15  16
ENDBRANCH  14  15
ENDBRANCH  10  14
ENDBRANCH   9  10
ENDBRANCH   6   9
ENDBRANCH   5   6
ENDBRANCH   4   5
ENDBRANCH   1   4
BRANCH   1  37
ATOM     37  C   UNL     1       5.260  -0.901  27.649  0.00  0.00    +0.175 C 
BRANCH  37  38
ATOM     38  O   UNL     1       4.821  -0.338  28.890  0.00  0.00    -0.387 OA
ATOM     39  H   UNL     1       3.845  -0.327  28.863  0.00  0.00    +0.210 HD
ENDBRANCH  37  38
BRANCH  37  40
ATOM     40  C   UNL     1       6.214   0.079  26.924  0.00  0.00    +0.165 C 
BRANCH  40  41
ATOM     41  O   UNL     1       6.024   1.382  27.525  0.00  0.00    -0.387 OA
ATOM     42  H   UNL     1       6.555   1.419  28.339  0.00  0.00    +0.210 HD
ENDBRANCH  40  41
BRANCH  40  43
ATOM     43  C   UNL     1       6.001   0.218  25.397  0.00  0.00    +0.158 C 
BRANCH  43  53
ATOM     44  C   UNL     1       6.424   6.035  24.075  0.00  0.00    +0.398 C 
ATOM     45  N   UNL     1       6.371   4.414  24.304  0.00  0.00    -0.112 N 
ATOM     46  C   UNL     1       7.527   3.564  24.359  0.00  0.00    +0.241 A 
ATOM     47  C   UNL     1       7.390   2.183  24.638  0.00  0.00    +0.117 A 
ATOM     48  C   UNL     1       8.561   1.389  24.578  0.00  0.00    +0.036 A 
ATOM     49  C   UNL     1       9.819   1.900  24.199  0.00  0.00    -0.045 A 
ATOM     50  C   UNL     1       9.941   3.259  23.942  0.00  0.00    -0.041 A 
ATOM     51  C   UNL     1      11.195   3.923  23.434  0.00  0.00    +0.044 C 
ATOM     52  C   UNL     1      10.994   0.969  24.079  0.00  0.00    +0.044 C 
ATOM     53  N   UNL     1       6.129   1.649  24.978  0.00  0.00    -0.312 N 
ATOM     54  C   UNL     1       5.015   2.466  24.944  0.00  0.00    +0.218 A 
ATOM     55  N   UNL     1       3.820   2.069  25.247  0.00  0.00    -0.169 NA
ATOM     56  C   UNL     1       2.719   2.875  25.193  0.00  0.00    +0.351 A 
ATOM     57  O   UNL     1       1.576   2.439  25.143  0.00  0.00    -0.245 OA
ATOM     58  N   UNL     1       2.906   4.222  25.103  0.00  0.00    -0.268 N 
ATOM     59  H   UNL     1       2.009   4.672  24.937  0.00  0.00    +0.174 HD
ATOM     60  C   UNL     1       3.908   4.630  24.282  0.00  0.00    +0.328 A 
ATOM     61  O   UNL     1       3.791   5.390  23.332  0.00  0.00    -0.260 OA
ATOM     62  C   UNL     1       8.812   4.066  24.111  0.00  0.00    +0.084 A 
ATOM     63  C   UNL     1       5.196   3.899  24.504  0.00  0.00    +0.324 A 
ATOM     64  O   UNL     1       5.641   6.637  24.797  0.00  0.00    -0.218 OA
BRANCH  44  66
ATOM     65  C   UNL     1       8.859   6.807  23.898  0.00  0.00    +0.022 C 
ATOM     66  C   UNL     1       7.493   6.725  23.235  0.00  0.00    +0.124 C 
ATOM     67  C   UNL     1       7.608   5.972  21.898  0.00  0.00    +0.022 C 
ENDBRANCH  44  66
ENDBRANCH  43  53
ENDBRANCH  40  43
ENDBRANCH  37  40
ENDBRANCH   1  37
TORSDOF 20
ENDMDL
MODEL 7
REMARK VINA RESULT:      -6.1      1.912      2.930
REMARK  Name = 
REMARK  24 active torsions:
REMARK  status: ('A' for Active; 'I' for Inactive)
REMARK    1  A    between atoms: C_1  and  C_2
REMARK    2  A    between atoms: C_2  and  C_3
REMARK    3  A    between atoms: C_2  and  C_4
REMARK    4  A    between atoms: N_15  and  C_16
REMARK    5  A    between atoms: C_16  and  C_17
REMARK    6  A    between atoms: C_17  and  O_19
REMARK    7  A    between atoms: C_17  and  C_20
REMARK    8  A    between atoms: C_20  and  O_22
REMARK    9  A    between atoms: C_20  and  C_23
REMARK   10  A    between atoms: C_23  and  O_25
REMARK   11  A    between atoms: C_23  and  C_26
REMARK   12  A    between atoms: C_26  and  O_27
REMARK   13  A    between atoms: O_27  and  P_28
REMARK   14  A    between atoms: P_28  and  O_31
REMARK   15  A    between atoms: O_31  and  P_32
REMARK   16  A    between atoms: P_32  and  O_33
REMARK   17  A    between atoms: P_32  and  O_35
REMARK   18  A    between atoms: O_35  and  C_36
REMARK   19  A    between atoms: C_36  and  C_37
REMARK   20  A    between atoms: C_40  and  N_48
REMARK   21  A    between atoms: C_42  and  O_44
REMARK   22  A    between atoms: C_45  and  O_47
REMARK   23  A    between atoms: C_60  and  C_61
REMARK   24  A    between atoms: C_62  and  C_63
REMARK                            x       y       z     vdW  Elec       q    Type
REMARK                         _______ _______ _______ _____ _____    ______ ____
ROOT
ATOM      1  C   UNL     1       8.527  -2.946  26.782  0.00  0.00    +0.171 C 
ENDROOT
BRANCH   1   2
ATOM      2  O   UNL     1       9.030  -3.569  25.596  0.00  0.00    -0.387 OA
ATOM      3  H   UNL     1       8.505  -4.401  25.516  0.00  0.00    +0.210 HD
ENDBRANCH   1   2
BRANCH   1   4
ATOM      4  C   UNL     1       7.141  -3.522  27.114  0.00  0.00    +0.201 C 
BRANCH   4   5
ATOM      5  O   UNL     1       7.198  -4.899  27.471  0.00  0.00    -0.325 OA
BRANCH   5   6
ATOM      6  P   UNL     1       5.808  -5.721  27.875  0.00  0.00    +0.222 P 
ATOM      7  O   UNL     1       5.795  -5.055  29.473  0.00  0.00    -0.437 OA
ATOM      8  O   UNL     1       6.223  -7.126  28.339  0.00  0.00    -0.517 OA
BRANCH   6   9
ATOM      9  O   UNL     1       5.821  -6.387  26.279  0.00  0.00    -0.229 OA
BRANCH   9  10
ATOM     10  P   UNL     1       4.341  -6.442  25.582  0.00  0.00    +0.480 P 
ATOM     11  O   UNL     1       3.280  -7.086  26.425  0.00  0.00    -0.227 OA
BRANCH  10  12
ATOM     12  O   UNL     1       4.548  -7.449  24.334  0.00  0.00    -0.302 OA
ATOM     13  H   UNL     1       5.414  -7.245  23.939  0.00  0.00    +0.222 HD
ENDBRANCH  10  12
BRANCH  10  14
ATOM     14  O   UNL     1       3.831  -5.117  24.765  0.00  0.00    -0.284 OA
BRANCH  14  15
ATOM     15  C   UNL     1       4.732  -4.001  24.598  0.00  0.00    +0.206 C 
BRANCH  15  16
ATOM     16  C   UNL     1       6.156  -4.175  23.951  0.00  0.00    +0.178 C 
ATOM     17  C   UNL     1       6.308  -4.847  22.582  0.00  0.00    +0.178 C 
ATOM     18  C   UNL     1       6.636  -3.719  21.606  0.00  0.00    +0.195 C 
ATOM     19  C   UNL     1       6.699  -2.465  22.485  0.00  0.00    +0.253 C 
ATOM     20  O   UNL     1       6.858  -2.914  23.843  0.00  0.00    -0.346 OA
BRANCH  19  21
ATOM     21  N   UNL     1       7.756  -1.521  22.142  0.00  0.00    -0.286 N 
ATOM     22  C   UNL     1       7.669  -0.153  22.246  0.00  0.00    +0.167 A 
ATOM     23  N   UNL     1       6.581   0.583  22.530  0.00  0.00    -0.216 NA
ATOM     24  C   UNL     1       6.888   1.898  22.563  0.00  0.00    +0.225 A 
ATOM     25  N   UNL     1       8.094   2.485  22.393  0.00  0.00    -0.219 NA
ATOM     26  C   UNL     1       9.155   1.700  22.101  0.00  0.00    +0.147 A 
ATOM     27  N   UNL     1      10.394   2.302  21.939  0.00  0.00    -0.341 N 
ATOM     28  H   UNL     1      11.180   1.669  22.027  0.00  0.00    +0.144 HD
ATOM     29  H   UNL     1      10.455   3.215  22.366  0.00  0.00    +0.144 HD
ATOM     30  C   UNL     1       8.956   0.311  22.015  0.00  0.00    +0.147 A 
ATOM     31  N   UNL     1       9.811  -0.747  21.777  0.00  0.00    -0.231 NA
ATOM     32  C   UNL     1       9.064  -1.819  21.851  0.00  0.00    +0.203 A 
ENDBRANCH  19  21
BRANCH  18  33
ATOM     33  O   UNL     1       5.626  -3.603  20.605  0.00  0.00    -0.385 OA
ATOM     34  H   UNL     1       4.850  -4.101  20.932  0.00  0.00    +0.210 HD
ENDBRANCH  18  33
BRANCH  17  35
ATOM     35  O   UNL     1       7.445  -5.748  22.612  0.00  0.00    -0.386 OA
ATOM     36  H   UNL     1       7.655  -5.977  23.536  0.00  0.00    +0.210 HD
ENDBRANCH  17  35
ENDBRANCH  15  16
ENDBRANCH  14  15
ENDBRANCH  10  14
ENDBRANCH   9  10
ENDBRANCH   6   9
ENDBRANCH   5   6
ENDBRANCH   4   5
ENDBRANCH   1   4
BRANCH   1  37
ATOM     37  C   UNL     1       8.499  -1.406  26.620  0.00  0.00    +0.175 C 
BRANCH  37  38
ATOM     38  O   UNL     1       9.381  -0.748  27.536  0.00  0.00    -0.387 OA
ATOM     39  H   UNL     1       9.565   0.135  27.165  0.00  0.00    +0.210 HD
ENDBRANCH  37  38
BRANCH  37  40
ATOM     40  C   UNL     1       7.077  -0.803  26.720  0.00  0.00    +0.165 C 
BRANCH  40  41
ATOM     41  O   UNL     1       6.672  -0.440  25.379  0.00  0.00    -0.387 OA
ATOM     42  H   UNL     1       5.770  -0.773  25.235  0.00  0.00    +0.210 HD
ENDBRANCH  40  41
BRANCH  40  43
ATOM     43  C   UNL     1       6.939   0.449  27.620  0.00  0.00    +0.158 C 
BRANCH  43  53
ATOM     44  C   UNL     1       2.109   3.740  26.355  0.00  0.00    +0.398 C 
ATOM     45  N   UNL     1       3.467   2.847  26.557  0.00  0.00    -0.112 N 
ATOM     46  C   UNL     1       4.797   3.325  26.302  0.00  0.00    +0.241 A 
ATOM     47  C   UNL     1       5.919   2.508  26.578  0.00  0.00    +0.117 A 
ATOM     48  C   UNL     1       7.192   3.007  26.210  0.00  0.00    +0.036 A 
ATOM     49  C   UNL     1       7.374   4.233  25.538  0.00  0.00    -0.045 A 
ATOM     50  C   UNL     1       6.265   5.030  25.287  0.00  0.00    -0.041 A 
ATOM     51  C   UNL     1       6.298   6.313  24.495  0.00  0.00    +0.044 C 
ATOM     52  C   UNL     1       8.754   4.647  25.108  0.00  0.00    +0.044 C 
ATOM     53  N   UNL     1       5.749   1.259  27.212  0.00  0.00    -0.312 N 
ATOM     54  C   UNL     1       4.472   0.801  27.475  0.00  0.00    +0.218 A 
ATOM     55  N   UNL     1       4.217  -0.326  28.060  0.00  0.00    -0.169 NA
ATOM     56  C   UNL     1       2.953  -0.785  28.300  0.00  0.00    +0.351 A 
ATOM     57  O   UNL     1       2.703  -1.961  28.529  0.00  0.00    -0.245 OA
ATOM     58  N   UNL     1       1.915   0.093  28.195  0.00  0.00    -0.268 N 
ATOM     59  H   UNL     1       1.039  -0.419  28.269  0.00  0.00    +0.174 HD
ATOM     60  C   UNL     1       1.978   0.967  27.157  0.00  0.00    +0.328 A 
ATOM     61  O   UNL     1       1.135   1.104  26.283  0.00  0.00    -0.260 OA
ATOM     62  C   UNL     1       5.021   4.594  25.751  0.00  0.00    +0.084 A 
ATOM     63  C   UNL     1       3.305   1.651  27.034  0.00  0.00    +0.324 A 
ATOM     64  O   UNL     1       1.303   3.581  27.263  0.00  0.00    -0.218 OA
BRANCH  44  66
ATOM     65  C   UNL     1       1.815   4.290  23.872  0.00  0.00    +0.022 C 
ATOM     66  C   UNL     1       1.969   4.820  25.289  0.00  0.00    +0.124 C 
ATOM     67  C   UNL     1       0.755   5.693  25.652  0.00  0.00    +0.022 C 
ENDBRANCH  44  66
ENDBRANCH  43  53
ENDBRANCH  40  43
ENDBRANCH  37  40
ENDBRANCH   1  37
TORSDOF 20
ENDMDL
MODEL 8
REMARK VINA RESULT:      -6.0      3.973      8.458
REMARK  Name = 
REMARK  24 active torsions:
REMARK  status: ('A' for Active; 'I' for Inactive)
REMARK    1  A    between atoms: C_1  and  C_2
REMARK    2  A    between atoms: C_2  and  C_3
REMARK    3  A    between atoms: C_2  and  C_4
REMARK    4  A    between atoms: N_15  and  C_16
REMARK    5  A    between atoms: C_16  and  C_17
REMARK    6  A    between atoms: C_17  and  O_19
REMARK    7  A    between atoms: C_17  and  C_20
REMARK    8  A    between atoms: C_20  and  O_22
REMARK    9  A    between atoms: C_20  and  C_23
REMARK   10  A    between atoms: C_23  and  O_25
REMARK   11  A    between atoms: C_23  and  C_26
REMARK   12  A    between atoms: C_26  and  O_27
REMARK   13  A    between atoms: O_27  and  P_28
REMARK   14  A    between atoms: P_28  and  O_31
REMARK   15  A    between atoms: O_31  and  P_32
REMARK   16  A    between atoms: P_32  and  O_33
REMARK   17  A    between atoms: P_32  and  O_35
REMARK   18  A    between atoms: O_35  and  C_36
REMARK   19  A    between atoms: C_36  and  C_37
REMARK   20  A    between atoms: C_40  and  N_48
REMARK   21  A    between atoms: C_42  and  O_44
REMARK   22  A    between atoms: C_45  and  O_47
REMARK   23  A    between atoms: C_60  and  C_61
REMARK   24  A    between atoms: C_62  and  C_63
REMARK                            x       y       z     vdW  Elec       q    Type
REMARK                         _______ _______ _______ _____ _____    ______ ____
ROOT
ATOM      1  C   UNL     1       5.265   0.452  28.566  0.00  0.00    +0.171 C 
ENDROOT
BRANCH   1   2
ATOM      2  O   UNL     1       4.039   1.188  28.528  0.00  0.00    -0.387 OA
ATOM      3  H   UNL     1       3.919   1.510  29.452  0.00  0.00    +0.210 HD
ENDBRANCH   1   2
BRANCH   1   4
ATOM      4  C   UNL     1       6.278   1.190  29.456  0.00  0.00    +0.201 C 
BRANCH   4   5
ATOM      5  O   UNL     1       6.978   2.208  28.749  0.00  0.00    -0.325 OA
BRANCH   5   6
ATOM      6  P   UNL     1       6.450   3.786  28.808  0.00  0.00    +0.222 P 
ATOM      7  O   UNL     1       5.620   3.528  30.304  0.00  0.00    -0.437 OA
ATOM      8  O   UNL     1       5.161   3.871  27.974  0.00  0.00    -0.517 OA
BRANCH   6   9
ATOM      9  O   UNL     1       7.278   4.044  27.311  0.00  0.00    -0.229 OA
BRANCH   9  10
ATOM     10  P   UNL     1       7.394   5.622  26.891  0.00  0.00    +0.480 P 
ATOM     11  O   UNL     1       8.800   6.121  26.729  0.00  0.00    -0.227 OA
BRANCH  10  12
ATOM     12  O   UNL     1       6.824   6.401  28.188  0.00  0.00    -0.302 OA
ATOM     13  H   UNL     1       7.515   7.022  28.478  0.00  0.00    +0.222 HD
ENDBRANCH  10  12
BRANCH  10  14
ATOM     14  O   UNL     1       6.350   6.191  25.765  0.00  0.00    -0.284 OA
BRANCH  14  15
ATOM     15  C   UNL     1       5.788   5.278  24.798  0.00  0.00    +0.206 C 
BRANCH  15  16
ATOM     16  C   UNL     1       6.538   4.922  23.460  0.00  0.00    +0.178 C 
ATOM     17  C   UNL     1       7.683   5.807  22.956  0.00  0.00    +0.178 C 
ATOM     18  C   UNL     1       8.961   5.009  23.210  0.00  0.00    +0.195 C 
ATOM     19  C   UNL     1       8.468   3.686  23.807  0.00  0.00    +0.253 C 
ATOM     20  O   UNL     1       7.070   3.576  23.481  0.00  0.00    -0.346 OA
BRANCH  19  21
ATOM     21  N   UNL     1       9.182   2.499  23.355  0.00  0.00    -0.286 N 
ATOM     22  C   UNL     1       9.217   1.290  24.009  0.00  0.00    +0.167 A 
ATOM     23  N   UNL     1       8.741   1.004  25.234  0.00  0.00    -0.216 NA
ATOM     24  C   UNL     1       8.941  -0.298  25.532  0.00  0.00    +0.225 A 
ATOM     25  N   UNL     1       9.489  -1.264  24.761  0.00  0.00    -0.219 NA
ATOM     26  C   UNL     1       9.958  -0.922  23.541  0.00  0.00    +0.147 A 
ATOM     27  N   UNL     1      10.510  -1.915  22.745  0.00  0.00    -0.341 N 
ATOM     28  H   UNL     1      10.560  -1.682  21.761  0.00  0.00    +0.144 HD
ATOM     29  H   UNL     1      10.221  -2.846  23.009  0.00  0.00    +0.144 HD
ATOM     30  C   UNL     1       9.830   0.415  23.124  0.00  0.00    +0.147 A 
ATOM     31  N   UNL     1      10.162   1.071  21.956  0.00  0.00    -0.231 NA
ATOM     32  C   UNL     1       9.772   2.308  22.130  0.00  0.00    +0.203 A 
ENDBRANCH  19  21
BRANCH  18  33
ATOM     33  O   UNL     1       9.820   5.700  24.115  0.00  0.00    -0.385 OA
ATOM     34  H   UNL     1      10.286   6.384  23.594  0.00  0.00    +0.210 HD
ENDBRANCH  18  33
BRANCH  17  35
ATOM     35  O   UNL     1       7.556   5.989  21.522  0.00  0.00    -0.386 OA
ATOM     36  H   UNL     1       6.644   6.259  21.307  0.00  0.00    +0.210 HD
ENDBRANCH  17  35
ENDBRANCH  15  16
ENDBRANCH  14  15
ENDBRANCH  10  14
ENDBRANCH   9  10
ENDBRANCH   6   9
ENDBRANCH   5   6
ENDBRANCH   4   5
ENDBRANCH   1   4
BRANCH   1  37
ATOM     37  C   UNL     1       5.805   0.216  27.133  0.00  0.00    +0.175 C 
BRANCH  37  38
ATOM     38  O   UNL     1       5.714   1.391  26.320  0.00  0.00    -0.387 OA
ATOM     39  H   UNL     1       6.621   1.737  26.223  0.00  0.00    +0.210 HD
ENDBRANCH  37  38
BRANCH  37  40
ATOM     40  C   UNL     1       5.143  -0.985  26.415  0.00  0.00    +0.165 C 
BRANCH  40  41
ATOM     41  O   UNL     1       3.719  -0.730  26.384  0.00  0.00    -0.387 OA
ATOM     42  H   UNL     1       3.579   0.222  26.524  0.00  0.00    +0.210 HD
ENDBRANCH  40  41
BRANCH  40  43
ATOM     43  C   UNL     1       5.370  -2.368  27.072  0.00  0.00    +0.158 C 
BRANCH  43  53
ATOM     44  C   UNL     1       1.580  -6.213  24.499  0.00  0.00    +0.398 C 
ATOM     45  N   UNL     1       2.721  -5.268  25.198  0.00  0.00    -0.112 N 
ATOM     46  C   UNL     1       3.951  -4.880  24.567  0.00  0.00    +0.241 A 
ATOM     47  C   UNL     1       4.846  -3.997  25.218  0.00  0.00    +0.117 A 
ATOM     48  C   UNL     1       6.083  -3.738  24.579  0.00  0.00    +0.036 A 
ATOM     49  C   UNL     1       6.474  -4.361  23.376  0.00  0.00    -0.045 A 
ATOM     50  C   UNL     1       5.581  -5.214  22.742  0.00  0.00    -0.041 A 
ATOM     51  C   UNL     1       5.900  -6.021  21.509  0.00  0.00    +0.044 C 
ATOM     52  C   UNL     1       7.841  -4.093  22.811  0.00  0.00    +0.044 C 
ATOM     53  N   UNL     1       4.485  -3.398  26.444  0.00  0.00    -0.312 N 
ATOM     54  C   UNL     1       3.294  -3.754  27.048  0.00  0.00    +0.218 A 
ATOM     55  N   UNL     1       2.876  -3.253  28.166  0.00  0.00    -0.169 NA
ATOM     56  C   UNL     1       1.707  -3.623  28.770  0.00  0.00    +0.351 A 
ATOM     57  O   UNL     1       1.478  -3.420  29.955  0.00  0.00    -0.245 OA
ATOM     58  N   UNL     1       0.795  -4.325  28.040  0.00  0.00    -0.268 N 
ATOM     59  H   UNL     1       0.049  -4.639  28.656  0.00  0.00    +0.174 HD
ATOM     60  C   UNL     1       1.299  -5.283  27.220  0.00  0.00    +0.328 A 
ATOM     61  O   UNL     1       1.005  -6.469  27.239  0.00  0.00    -0.260 OA
ATOM     62  C   UNL     1       4.314  -5.383  23.310  0.00  0.00    +0.084 A 
ATOM     63  C   UNL     1       2.443  -4.806  26.379  0.00  0.00    +0.324 A 
ATOM     64  O   UNL     1       0.444  -5.813  24.713  0.00  0.00    -0.218 OA
BRANCH  44  66
ATOM     65  C   UNL     1       1.566  -8.721  23.985  0.00  0.00    +0.022 C 
ATOM     66  C   UNL     1       1.907  -7.319  23.503  0.00  0.00    +0.124 C 
ATOM     67  C   UNL     1       1.152  -7.021  22.196  0.00  0.00    +0.022 C 
ENDBRANCH  44  66
ENDBRANCH  43  53
ENDBRANCH  40  43
ENDBRANCH  37  40
ENDBRANCH   1  37
TORSDOF 20
ENDMDL
MODEL 9
REMARK VINA RESULT:      -5.7      3.215      4.693
REMARK  Name = 
REMARK  24 active torsions:
REMARK  status: ('A' for Active; 'I' for Inactive)
REMARK    1  A    between atoms: C_1  and  C_2
REMARK    2  A    between atoms: C_2  and  C_3
REMARK    3  A    between atoms: C_2  and  C_4
REMARK    4  A    between atoms: N_15  and  C_16
REMARK    5  A    between atoms: C_16  and  C_17
REMARK    6  A    between atoms: C_17  and  O_19
REMARK    7  A    between atoms: C_17  and  C_20
REMARK    8  A    between atoms: C_20  and  O_22
REMARK    9  A    between atoms: C_20  and  C_23
REMARK   10  A    between atoms: C_23  and  O_25
REMARK   11  A    between atoms: C_23  and  C_26
REMARK   12  A    between atoms: C_26  and  O_27
REMARK   13  A    between atoms: O_27  and  P_28
REMARK   14  A    between atoms: P_28  and  O_31
REMARK   15  A    between atoms: O_31  and  P_32
REMARK   16  A    between atoms: P_32  and  O_33
REMARK   17  A    between atoms: P_32  and  O_35
REMARK   18  A    between atoms: O_35  and  C_36
REMARK   19  A    between atoms: C_36  and  C_37
REMARK   20  A    between atoms: C_40  and  N_48
REMARK   21  A    between atoms: C_42  and  O_44
REMARK   22  A    between atoms: C_45  and  O_47
REMARK   23  A    between atoms: C_60  and  C_61
REMARK   24  A    between atoms: C_62  and  C_63
REMARK                            x       y       z     vdW  Elec       q    Type
REMARK                         _______ _______ _______ _____ _____    ______ ____
ROOT
ATOM      1  C   UNL     1       3.325  -1.959  26.956  0.00  0.00    +0.171 C 
ENDROOT
BRANCH   1   2
ATOM      2  O   UNL     1       2.789  -1.519  28.207  0.00  0.00    -0.387 OA
ATOM      3  H   UNL     1       1.965  -1.034  27.963  0.00  0.00    +0.210 HD
ENDBRANCH   1   2
BRANCH   1   4
ATOM      4  C   UNL     1       3.026  -3.455  26.769  0.00  0.00    +0.201 C 
BRANCH   4   5
ATOM      5  O   UNL     1       2.594  -3.760  25.447  0.00  0.00    -0.325 OA
BRANCH   5   6
ATOM      6  P   UNL     1       1.180  -4.602  25.199  0.00  0.00    +0.222 P 
ATOM      7  O   UNL     1       0.658  -4.347  26.829  0.00  0.00    -0.437 OA
ATOM      8  O   UNL     1       1.490  -6.093  25.409  0.00  0.00    -0.517 OA
BRANCH   6   9
ATOM      9  O   UNL     1       1.702  -4.858  23.569  0.00  0.00    -0.229 OA
BRANCH   9  10
ATOM     10  P   UNL     1       3.178  -5.555  23.457  0.00  0.00    +0.480 P 
ATOM     11  O   UNL     1       4.182  -4.762  22.673  0.00  0.00    -0.227 OA
BRANCH  10  12
ATOM     12  O   UNL     1       2.906  -6.877  22.567  0.00  0.00    -0.302 OA
ATOM     13  H   UNL     1       2.108  -7.305  22.923  0.00  0.00    +0.222 HD
ENDBRANCH  10  12
BRANCH  10  14
ATOM     14  O   UNL     1       3.792  -6.266  24.799  0.00  0.00    -0.284 OA
BRANCH  14  15
ATOM     15  C   UNL     1       5.224  -6.341  24.966  0.00  0.00    +0.206 C 
BRANCH  15  16
ATOM     16  C   UNL     1       6.018  -5.266  25.799  0.00  0.00    +0.178 C 
ATOM     17  C   UNL     1       7.191  -5.689  26.690  0.00  0.00    +0.178 C 
ATOM     18  C   UNL     1       8.449  -5.216  25.964  0.00  0.00    +0.195 C 
ATOM     19  C   UNL     1       7.919  -4.504  24.714  0.00  0.00    +0.253 C 
ATOM     20  O   UNL     1       6.532  -4.205  24.960  0.00  0.00    -0.346 OA
BRANCH  19  21
ATOM     21  N   UNL     1       8.635  -3.290  24.343  0.00  0.00    -0.286 N 
ATOM     22  C   UNL     1       8.811  -2.190  25.148  0.00  0.00    +0.167 A 
ATOM     23  N   UNL     1       8.254  -1.951  26.348  0.00  0.00    -0.216 NA
ATOM     24  C   UNL     1       8.681  -0.770  26.847  0.00  0.00    +0.225 A 
ATOM     25  N   UNL     1       9.573   0.095  26.315  0.00  0.00    -0.219 NA
ATOM     26  C   UNL     1      10.098  -0.189  25.103  0.00  0.00    +0.147 A 
ATOM     27  N   UNL     1      11.022   0.694  24.562  0.00  0.00    -0.341 N 
ATOM     28  H   UNL     1      11.596   0.298  23.827  0.00  0.00    +0.144 HD
ATOM     29  H   UNL     1      11.457   1.290  25.251  0.00  0.00    +0.144 HD
ATOM     30  C   UNL     1       9.711  -1.383  24.468  0.00  0.00    +0.147 A 
ATOM     31  N   UNL     1      10.077  -1.973  23.276  0.00  0.00    -0.231 NA
ATOM     32  C   UNL     1       9.413  -3.100  23.229  0.00  0.00    +0.203 A 
ENDBRANCH  19  21
BRANCH  18  33
ATOM     33  O   UNL     1       9.282  -6.321  25.619  0.00  0.00    -0.385 OA
ATOM     34  H   UNL     1       8.859  -7.119  25.993  0.00  0.00    +0.210 HD
ENDBRANCH  18  33
BRANCH  17  35
ATOM     35  O   UNL     1       7.117  -4.979  27.953  0.00  0.00    -0.386 OA
ATOM     36  H   UNL     1       7.685  -4.186  27.915  0.00  0.00    +0.210 HD
ENDBRANCH  17  35
ENDBRANCH  15  16
ENDBRANCH  14  15
ENDBRANCH  10  14
ENDBRANCH   9  10
ENDBRANCH   6   9
ENDBRANCH   5   6
ENDBRANCH   4   5
ENDBRANCH   1   4
BRANCH   1  37
ATOM     37  C   UNL     1       4.841  -1.649  26.871  0.00  0.00    +0.175 C 
BRANCH  37  38
ATOM     38  O   UNL     1       5.629  -2.597  27.598  0.00  0.00    -0.387 OA
ATOM     39  H   UNL     1       5.533  -2.377  28.544  0.00  0.00    +0.210 HD
ENDBRANCH  37  38
BRANCH  37  40
ATOM     40  C   UNL     1       5.199  -0.208  27.309  0.00  0.00    +0.165 C 
BRANCH  40  41
ATOM     41  O   UNL     1       4.915  -0.109  28.725  0.00  0.00    -0.387 OA
ATOM     42  H   UNL     1       5.641  -0.538  29.209  0.00  0.00    +0.210 HD
ENDBRANCH  40  41
BRANCH  40  43
ATOM     43  C   UNL     1       4.433   0.925  26.584  0.00  0.00    +0.158 C 
BRANCH  43  53
ATOM     44  C   UNL     1       8.382   5.210  25.241  0.00  0.00    +0.398 C 
ATOM     45  N   UNL     1       7.250   4.048  25.469  0.00  0.00    -0.112 N 
ATOM     46  C   UNL     1       7.205   2.807  24.748  0.00  0.00    +0.241 A 
ATOM     47  C   UNL     1       6.234   1.827  25.065  0.00  0.00    +0.117 A 
ATOM     48  C   UNL     1       6.187   0.671  24.248  0.00  0.00    +0.036 A 
ATOM     49  C   UNL     1       7.011   0.492  23.119  0.00  0.00    -0.045 A 
ATOM     50  C   UNL     1       7.969   1.455  22.829  0.00  0.00    -0.041 A 
ATOM     51  C   UNL     1       8.847   1.443  21.604  0.00  0.00    +0.044 C 
ATOM     52  C   UNL     1       6.837  -0.727  22.257  0.00  0.00    +0.044 C 
ATOM     53  N   UNL     1       5.374   2.012  26.168  0.00  0.00    -0.312 N 
ATOM     54  C   UNL     1       5.424   3.197  26.877  0.00  0.00    +0.218 A 
ATOM     55  N   UNL     1       4.681   3.453  27.906  0.00  0.00    -0.169 NA
ATOM     56  C   UNL     1       4.720   4.635  28.591  0.00  0.00    +0.351 A 
ATOM     57  O   UNL     1       3.813   5.010  29.323  0.00  0.00    -0.245 OA
ATOM     58  N   UNL     1       5.776   5.471  28.381  0.00  0.00    -0.268 N 
ATOM     59  H   UNL     1       5.598   6.355  28.851  0.00  0.00    +0.174 HD
ATOM     60  C   UNL     1       6.199   5.584  27.095  0.00  0.00    +0.328 A 
ATOM     61  O   UNL     1       6.279   6.624  26.457  0.00  0.00    -0.260 OA
ATOM     62  C   UNL     1       8.096   2.542  23.699  0.00  0.00    +0.084 A 
ATOM     63  C   UNL     1       6.382   4.266  26.409  0.00  0.00    +0.324 A 
ATOM     64  O   UNL     1       8.776   5.695  26.293  0.00  0.00    -0.218 OA
BRANCH  44  66
ATOM     65  C   UNL     1       8.254   6.420  22.988  0.00  0.00    +0.022 C 
ATOM     66  C   UNL     1       9.039   5.483  23.893  0.00  0.00    +0.124 C 
ATOM     67  C   UNL     1      10.439   6.067  24.155  0.00  0.00    +0.022 C 
ENDBRANCH  44  66
ENDBRANCH  43  53
ENDBRANCH  40  43
ENDBRANCH  37  40
ENDBRANCH   1  37
TORSDOF 20
ENDMDL
