MODEL 1
REMARK VINA RESULT:      -7.3      0.000      0.000
REMARK  Name = 
REMARK  9 active torsions:
REMARK  status: ('A' for Active; 'I' for Inactive)
REMARK    1  A    between atoms: C_2  and  C_3
REMARK    2  A    between atoms: C_2  and  O_4
REMARK    3  A    between atoms: C_2  and  C_5
REMARK    4  A    between atoms: C_5  and  C_7
REMARK    5  A    between atoms: C_5  and  N_20
REMARK    6  A    between atoms: C_7  and  C_8
REMARK    7  A    between atoms: C_8  and  O_9
REMARK    8  A    between atoms: O_9  and  C_10
REMARK    9  A    between atoms: C_23  and  C_25
REMARK                            x       y       z     vdW  Elec       q    Type
REMARK                         _______ _______ _______ _____ _____    ______ ____
ROOT
ATOM      1  C   UNL     1       6.401  -5.187  23.945  0.00  0.00    +0.120 C 
ENDROOT
BRANCH   1   2
ATOM      2  N   UNL     1       5.633  -5.903  24.972  0.00  0.00    -0.330 N 
ATOM      3  C   UNL     1       5.962  -5.955  26.302  0.00  0.00    +0.120 A 
ATOM      4  C   UNL     1       4.990  -6.734  26.896  0.00  0.00    +0.143 A 
ATOM      5  N   UNL     1       4.070  -7.146  25.946  0.00  0.00    -0.231 NA
ATOM      6  C   UNL     1       4.476  -6.614  24.815  0.00  0.00    +0.200 A 
BRANCH   4   7
ATOM      7  C   UNL     1       4.893  -7.103  28.307  0.00  0.00    +0.261 C 
ATOM      8  O   UNL     1       5.850  -7.300  29.040  0.00  0.00    -0.269 OA
ATOM      9  N   UNL     1       3.602  -7.215  28.742  0.00  0.00    -0.324 N 
ATOM     10  H   UNL     1       3.417  -7.458  29.701  0.00  0.00    +0.145 HD
ATOM     11  H   UNL     1       2.850  -7.029  28.089  0.00  0.00    +0.145 HD
ENDBRANCH   4   7
ENDBRANCH   1   2
BRANCH   1  12
ATOM     12  C   UNL     1       5.761  -5.277  22.524  0.00  0.00    +0.134 C 
ATOM     13  C   UNL     1       6.793  -5.498  21.423  0.00  0.00    +0.040 C 
BRANCH  12  14
ATOM     14  O   UNL     1       5.023  -4.101  22.185  0.00  0.00    -0.390 OA
ATOM     15  H   UNL     1       5.289  -3.827  21.288  0.00  0.00    +0.210 HD
ENDBRANCH  12  14
ENDBRANCH   1  12
BRANCH   1  16
ATOM     16  C   UNL     1       6.781  -3.771  24.433  0.00  0.00    +0.068 C 
BRANCH  16  17
ATOM     17  C   UNL     1       8.235  -3.647  24.858  0.00  0.00    +0.231 C 
BRANCH  17  18
ATOM     18  O   UNL     1       9.081  -3.559  23.710  0.00  0.00    -0.492 OA
BRANCH  18  19
ATOM     19  C   UNL     1       9.358  -2.274  23.312  0.00  0.00    +0.121 A 
ATOM     20  C   UNL     1       9.040  -1.975  21.990  0.00  0.00    +0.046 A 
ATOM     21  C   UNL     1       9.253  -0.687  21.487  0.00  0.00    +0.012 A 
ATOM     22  C   UNL     1       9.761   0.330  22.314  0.00  0.00    -0.018 A 
ATOM     23  C   UNL     1       9.942   1.642  21.851  0.00  0.00    +0.008 A 
ATOM     24  C   UNL     1      10.422   2.640  22.703  0.00  0.00    +0.001 A 
ATOM     25  C   UNL     1      10.747   2.336  24.022  0.00  0.00    +0.001 A 
ATOM     26  C   UNL     1      10.589   1.035  24.491  0.00  0.00    +0.008 A 
ATOM     27  C   UNL     1      10.088   0.029  23.652  0.00  0.00    -0.014 A 
ATOM     28  C   UNL     1       9.892  -1.272  24.130  0.00  0.00    +0.054 A 
ENDBRANCH  18  19
ENDBRANCH  17  18
ENDBRANCH  16  17
ENDBRANCH   1  16
TORSDOF 8
ENDMDL
MODEL 2
REMARK VINA RESULT:      -7.3      1.824      2.634
REMARK  Name = 
REMARK  9 active torsions:
REMARK  status: ('A' for Active; 'I' for Inactive)
REMARK    1  A    between atoms: C_2  and  C_3
REMARK    2  A    between atoms: C_2  and  O_4
REMARK    3  A    between atoms: C_2  and  C_5
REMARK    4  A    between atoms: C_5  and  C_7
REMARK    5  A    between atoms: C_5  and  N_20
REMARK    6  A    between atoms: C_7  and  C_8
REMARK    7  A    between atoms: C_8  and  O_9
REMARK    8  A    between atoms: O_9  and  C_10
REMARK    9  A    between atoms: C_23  and  C_25
REMARK                            x       y       z     vdW  Elec       q    Type
REMARK                         _______ _______ _______ _____ _____    ______ ____
ROOT
ATOM      1  C   UNL     1       8.001  -4.294  24.195  0.00  0.00    +0.120 C 
ENDROOT
BRANCH   1   2
ATOM      2  N   UNL     1       7.484  -4.934  25.412  0.00  0.00    -0.330 N 
ATOM      3  C   UNL     1       6.232  -5.476  25.541  0.00  0.00    +0.120 A 
ATOM      4  C   UNL     1       6.164  -5.951  26.835  0.00  0.00    +0.143 A 
ATOM      5  N   UNL     1       7.362  -5.715  27.488  0.00  0.00    -0.231 NA
ATOM      6  C   UNL     1       8.131  -5.124  26.601  0.00  0.00    +0.200 A 
BRANCH   4   7
ATOM      7  C   UNL     1       5.029  -6.612  27.476  0.00  0.00    +0.261 C 
ATOM      8  O   UNL     1       3.859  -6.442  27.163  0.00  0.00    -0.269 OA
ATOM      9  N   UNL     1       5.401  -7.456  28.484  0.00  0.00    -0.324 N 
ATOM     10  H   UNL     1       4.700  -7.971  28.990  0.00  0.00    +0.145 HD
ATOM     11  H   UNL     1       6.387  -7.564  28.690  0.00  0.00    +0.145 HD
ENDBRANCH   4   7
ENDBRANCH   1   2
BRANCH   1  12
ATOM     12  C   UNL     1       7.012  -4.376  22.990  0.00  0.00    +0.134 C 
ATOM     13  C   UNL     1       7.282  -5.573  22.082  0.00  0.00    +0.040 C 
BRANCH  12  14
ATOM     14  O   UNL     1       7.054  -3.205  22.172  0.00  0.00    -0.390 OA
ATOM     15  H   UNL     1       6.202  -2.741  22.265  0.00  0.00    +0.210 HD
ENDBRANCH  12  14
ENDBRANCH   1  12
BRANCH   1  16
ATOM     16  C   UNL     1       8.574  -2.896  24.513  0.00  0.00    +0.068 C 
BRANCH  16  17
ATOM     17  C   UNL     1       9.951  -2.656  23.916  0.00  0.00    +0.231 C 
BRANCH  17  18
ATOM     18  O   UNL     1       9.850  -1.843  22.745  0.00  0.00    -0.492 OA
BRANCH  18  19
ATOM     19  C   UNL     1       9.616  -0.514  23.001  0.00  0.00    +0.121 A 
ATOM     20  C   UNL     1      10.485   0.083  23.909  0.00  0.00    +0.046 A 
ATOM     21  C   UNL     1      10.357   1.440  24.221  0.00  0.00    +0.012 A 
ATOM     22  C   UNL     1       9.371   2.227  23.601  0.00  0.00    -0.018 A 
ATOM     23  C   UNL     1       9.248   3.602  23.859  0.00  0.00    +0.008 A 
ATOM     24  C   UNL     1       8.276   4.366  23.207  0.00  0.00    +0.001 A 
ATOM     25  C   UNL     1       7.403   3.765  22.305  0.00  0.00    +0.001 A 
ATOM     26  C   UNL     1       7.501   2.399  22.052  0.00  0.00    +0.008 A 
ATOM     27  C   UNL     1       8.486   1.625  22.684  0.00  0.00    -0.014 A 
ATOM     28  C   UNL     1       8.614   0.259  22.404  0.00  0.00    +0.054 A 
ENDBRANCH  18  19
ENDBRANCH  17  18
ENDBRANCH  16  17
ENDBRANCH   1  16
TORSDOF 8
ENDMDL
MODEL 3
REMARK VINA RESULT:      -7.3      5.156      9.317
REMARK  Name = 
REMARK  9 active torsions:
REMARK  status: ('A' for Active; 'I' for Inactive)
REMARK    1  A    between atoms: C_2  and  C_3
REMARK    2  A    between atoms: C_2  and  O_4
REMARK    3  A    between atoms: C_2  and  C_5
REMARK    4  A    between atoms: C_5  and  C_7
REMARK    5  A    between atoms: C_5  and  N_20
REMARK    6  A    between atoms: C_7  and  C_8
REMARK    7  A    between atoms: C_8  and  O_9
REMARK    8  A    between atoms: O_9  and  C_10
REMARK    9  A    between atoms: C_23  and  C_25
REMARK                            x       y       z     vdW  Elec       q    Type
REMARK                         _______ _______ _______ _____ _____    ______ ____
ROOT
ATOM      1  C   UNL     1       9.357   1.746  23.665  0.00  0.00    +0.120 C 
ENDROOT
BRANCH   1   2
ATOM      2  N   UNL     1       9.904   3.107  23.716  0.00  0.00    -0.330 N 
ATOM      3  C   UNL     1      11.208   3.439  23.452  0.00  0.00    +0.120 A 
ATOM      4  C   UNL     1      11.287   4.806  23.627  0.00  0.00    +0.143 A 
ATOM      5  N   UNL     1      10.046   5.309  23.982  0.00  0.00    -0.231 NA
ATOM      6  C   UNL     1       9.243   4.269  24.006  0.00  0.00    +0.200 A 
BRANCH   4   7
ATOM      7  C   UNL     1      12.470   5.650  23.475  0.00  0.00    +0.261 C 
ATOM      8  O   UNL     1      13.252   5.586  22.537  0.00  0.00    -0.269 OA
ATOM      9  N   UNL     1      12.631   6.536  24.503  0.00  0.00    -0.324 N 
ATOM     10  H   UNL     1      13.410   7.172  24.498  0.00  0.00    +0.145 HD
ATOM     11  H   UNL     1      11.944   6.548  25.248  0.00  0.00    +0.145 HD
ENDBRANCH   4   7
ENDBRANCH   1   2
BRANCH   1  12
ATOM     12  C   UNL     1       8.795   1.360  22.261  0.00  0.00    +0.134 C 
ATOM     13  C   UNL     1       9.618   0.276  21.571  0.00  0.00    +0.040 C 
BRANCH  12  14
ATOM     14  O   UNL     1       8.736   2.478  21.373  0.00  0.00    -0.390 OA
ATOM     15  H   UNL     1       7.859   2.892  21.468  0.00  0.00    +0.210 HD
ENDBRANCH  12  14
ENDBRANCH   1  12
BRANCH   1  16
ATOM     16  C   UNL     1      10.337   0.739  24.308  0.00  0.00    +0.068 C 
BRANCH  16  17
ATOM     17  C   UNL     1       9.684  -0.169  25.338  0.00  0.00    +0.231 C 
BRANCH  17  18
ATOM     18  O   UNL     1       8.334  -0.451  24.965  0.00  0.00    -0.492 OA
BRANCH  18  19
ATOM     19  C   UNL     1       8.153  -1.690  24.401  0.00  0.00    +0.121 A 
ATOM     20  C   UNL     1       8.833  -2.735  25.019  0.00  0.00    +0.046 A 
ATOM     21  C   UNL     1       8.697  -4.044  24.545  0.00  0.00    +0.012 A 
ATOM     22  C   UNL     1       7.850  -4.328  23.461  0.00  0.00    -0.018 A 
ATOM     23  C   UNL     1       7.657  -5.637  22.992  0.00  0.00    +0.008 A 
ATOM     24  C   UNL     1       6.787  -5.895  21.930  0.00  0.00    +0.001 A 
ATOM     25  C   UNL     1       6.114  -4.847  21.308  0.00  0.00    +0.001 A 
ATOM     26  C   UNL     1       6.308  -3.541  21.750  0.00  0.00    +0.008 A 
ATOM     27  C   UNL     1       7.162  -3.271  22.830  0.00  0.00    -0.014 A 
ATOM     28  C   UNL     1       7.331  -1.965  23.302  0.00  0.00    +0.054 A 
ENDBRANCH  18  19
ENDBRANCH  17  18
ENDBRANCH  16  17
ENDBRANCH   1  16
TORSDOF 8
ENDMDL
MODEL 4
REMARK VINA RESULT:      -7.1      2.010      3.382
REMARK  Name = 
REMARK  9 active torsions:
REMARK  status: ('A' for Active; 'I' for Inactive)
REMARK    1  A    between atoms: C_2  and  C_3
REMARK    2  A    between atoms: C_2  and  O_4
REMARK    3  A    between atoms: C_2  and  C_5
REMARK    4  A    between atoms: C_5  and  C_7
REMARK    5  A    between atoms: C_5  and  N_20
REMARK    6  A    between atoms: C_7  and  C_8
REMARK    7  A    between atoms: C_8  and  O_9
REMARK    8  A    between atoms: O_9  and  C_10
REMARK    9  A    between atoms: C_23  and  C_25
REMARK                            x       y       z     vdW  Elec       q    Type
REMARK                         _______ _______ _______ _____ _____    ______ ____
ROOT
ATOM      1  C   UNL     1       6.906  -4.716  25.154  0.00  0.00    +0.120 C 
ENDROOT
BRANCH   1   2
ATOM      2  N   UNL     1       5.883  -5.097  24.171  0.00  0.00    -0.330 N 
ATOM      3  C   UNL     1       4.568  -5.347  24.466  0.00  0.00    +0.120 A 
ATOM      4  C   UNL     1       3.973  -5.678  23.266  0.00  0.00    +0.143 A 
ATOM      5  N   UNL     1       4.908  -5.621  22.245  0.00  0.00    -0.231 NA
ATOM      6  C   UNL     1       6.030  -5.252  22.821  0.00  0.00    +0.200 A 
BRANCH   4   7
ATOM      7  C   UNL     1       2.576  -6.042  23.042  0.00  0.00    +0.261 C 
ATOM      8  O   UNL     1       1.643  -5.253  23.052  0.00  0.00    -0.269 OA
ATOM      9  N   UNL     1       2.401  -7.379  22.819  0.00  0.00    -0.324 N 
ATOM     10  H   UNL     1       1.478  -7.741  22.645  0.00  0.00    +0.145 HD
ATOM     11  H   UNL     1       3.215  -7.983  22.813  0.00  0.00    +0.145 HD
ENDBRANCH   4   7
ENDBRANCH   1   2
BRANCH   1  12
ATOM     12  C   UNL     1       6.762  -5.466  26.514  0.00  0.00    +0.134 C 
ATOM     13  C   UNL     1       6.247  -4.568  27.635  0.00  0.00    +0.040 C 
BRANCH  12  14
ATOM     14  O   UNL     1       7.999  -6.030  26.958  0.00  0.00    -0.390 OA
ATOM     15  H   UNL     1       8.591  -5.298  27.208  0.00  0.00    +0.210 HD
ENDBRANCH  12  14
ENDBRANCH   1  12
BRANCH   1  16
ATOM     16  C   UNL     1       8.312  -4.728  24.513  0.00  0.00    +0.068 C 
BRANCH  16  17
ATOM     17  C   UNL     1       9.193  -3.575  24.963  0.00  0.00    +0.231 C 
BRANCH  17  18
ATOM     18  O   UNL     1      10.052  -3.163  23.899  0.00  0.00    -0.492 OA
BRANCH  18  19
ATOM     19  C   UNL     1       9.895  -1.851  23.524  0.00  0.00    +0.121 A 
ATOM     20  C   UNL     1       9.845  -1.621  22.152  0.00  0.00    +0.046 A 
ATOM     21  C   UNL     1       9.658  -0.326  21.660  0.00  0.00    +0.012 A 
ATOM     22  C   UNL     1       9.488   0.757  22.540  0.00  0.00    -0.018 A 
ATOM     23  C   UNL     1       9.253   2.061  22.076  0.00  0.00    +0.008 A 
ATOM     24  C   UNL     1       9.059   3.114  22.973  0.00  0.00    +0.001 A 
ATOM     25  C   UNL     1       9.119   2.883  24.345  0.00  0.00    +0.001 A 
ATOM     26  C   UNL     1       9.369   1.599  24.820  0.00  0.00    +0.008 A 
ATOM     27  C   UNL     1       9.543   0.529  23.930  0.00  0.00    -0.014 A 
ATOM     28  C   UNL     1       9.757  -0.771  24.403  0.00  0.00    +0.054 A 
ENDBRANCH  18  19
ENDBRANCH  17  18
ENDBRANCH  16  17
ENDBRANCH   1  16
TORSDOF 8
ENDMDL
MODEL 5
REMARK VINA RESULT:      -7.1      3.035      4.639
REMARK  Name = 
REMARK  9 active torsions:
REMARK  status: ('A' for Active; 'I' for Inactive)
REMARK    1  A    between atoms: C_2  and  C_3
REMARK    2  A    between atoms: C_2  and  O_4
REMARK    3  A    between atoms: C_2  and  C_5
REMARK    4  A    between atoms: C_5  and  C_7
REMARK    5  A    between atoms: C_5  and  N_20
REMARK    6  A    between atoms: C_7  and  C_8
REMARK    7  A    between atoms: C_8  and  O_9
REMARK    8  A    between atoms: O_9  and  C_10
REMARK    9  A    between atoms: C_23  and  C_25
REMARK                            x       y       z     vdW  Elec       q    Type
REMARK                         _______ _______ _______ _____ _____    ______ ____
ROOT
ATOM      1  C   UNL     1       8.405  -2.345  24.386  0.00  0.00    +0.120 C 
ENDROOT
BRANCH   1   2
ATOM      2  N   UNL     1       7.485  -2.934  23.405  0.00  0.00    -0.330 N 
ATOM      3  C   UNL     1       7.538  -4.230  22.960  0.00  0.00    +0.120 A 
ATOM      4  C   UNL     1       6.510  -4.353  22.047  0.00  0.00    +0.143 A 
ATOM      5  N   UNL     1       5.827  -3.153  21.942  0.00  0.00    -0.231 NA
ATOM      6  C   UNL     1       6.425  -2.337  22.781  0.00  0.00    +0.200 A 
BRANCH   4   7
ATOM      7  C   UNL     1       6.147  -5.542  21.279  0.00  0.00    +0.261 C 
ATOM      8  O   UNL     1       5.959  -5.557  20.071  0.00  0.00    -0.269 OA
ATOM      9  N   UNL     1       6.032  -6.663  22.051  0.00  0.00    -0.324 N 
ATOM     10  H   UNL     1       5.793  -7.542  21.625  0.00  0.00    +0.145 HD
ATOM     11  H   UNL     1       6.211  -6.590  23.046  0.00  0.00    +0.145 HD
ENDBRANCH   4   7
ENDBRANCH   1   2
BRANCH   1  12
ATOM     12  C   UNL     1       8.103  -2.784  25.853  0.00  0.00    +0.134 C 
ATOM     13  C   UNL     1       8.852  -4.049  26.260  0.00  0.00    +0.040 C 
BRANCH  12  14
ATOM     14  O   UNL     1       6.711  -3.026  26.073  0.00  0.00    -0.390 OA
ATOM     15  H   UNL     1       6.263  -2.163  26.147  0.00  0.00    +0.210 HD
ENDBRANCH  12  14
ENDBRANCH   1  12
BRANCH   1  16
ATOM     16  C   UNL     1       9.870  -2.491  23.919  0.00  0.00    +0.068 C 
BRANCH  16  17
ATOM     17  C   UNL     1      10.218  -1.608  22.732  0.00  0.00    +0.231 C 
BRANCH  17  18
ATOM     18  O   UNL     1      10.781  -0.373  23.180  0.00  0.00    -0.492 OA
BRANCH  18  19
ATOM     19  C   UNL     1       9.986   0.723  22.952  0.00  0.00    +0.121 A 
ATOM     20  C   UNL     1       9.089   0.604  21.894  0.00  0.00    +0.046 A 
ATOM     21  C   UNL     1       8.212   1.650  21.592  0.00  0.00    +0.012 A 
ATOM     22  C   UNL     1       8.200   2.822  22.367  0.00  0.00    -0.018 A 
ATOM     23  C   UNL     1       7.299   3.869  22.116  0.00  0.00    +0.008 A 
ATOM     24  C   UNL     1       7.291   5.011  22.921  0.00  0.00    +0.001 A 
ATOM     25  C   UNL     1       8.195   5.132  23.972  0.00  0.00    +0.001 A 
ATOM     26  C   UNL     1       9.106   4.110  24.223  0.00  0.00    +0.008 A 
ATOM     27  C   UNL     1       9.110   2.948  23.436  0.00  0.00    -0.014 A 
ATOM     28  C   UNL     1       9.999   1.901  23.708  0.00  0.00    +0.054 A 
ENDBRANCH  18  19
ENDBRANCH  17  18
ENDBRANCH  16  17
ENDBRANCH   1  16
TORSDOF 8
ENDMDL
MODEL 6
REMARK VINA RESULT:      -7.1      4.968      9.210
REMARK  Name = 
REMARK  9 active torsions:
REMARK  status: ('A' for Active; 'I' for Inactive)
REMARK    1  A    between atoms: C_2  and  C_3
REMARK    2  A    between atoms: C_2  and  O_4
REMARK    3  A    between atoms: C_2  and  C_5
REMARK    4  A    between atoms: C_5  and  C_7
REMARK    5  A    between atoms: C_5  and  N_20
REMARK    6  A    between atoms: C_7  and  C_8
REMARK    7  A    between atoms: C_8  and  O_9
REMARK    8  A    between atoms: O_9  and  C_10
REMARK    9  A    between atoms: C_23  and  C_25
REMARK                            x       y       z     vdW  Elec       q    Type
REMARK                         _______ _______ _______ _____ _____    ______ ____
ROOT
ATOM      1  C   UNL     1       9.400   1.443  23.359  0.00  0.00    +0.120 C 
ENDROOT
BRANCH   1   2
ATOM      2  N   UNL     1       9.935   2.804  23.490  0.00  0.00    -0.330 N 
ATOM      3  C   UNL     1      11.254   3.146  23.333  0.00  0.00    +0.120 A 
ATOM      4  C   UNL     1      11.315   4.507  23.554  0.00  0.00    +0.143 A 
ATOM      5  N   UNL     1      10.049   4.996  23.832  0.00  0.00    -0.231 NA
ATOM      6  C   UNL     1       9.250   3.955  23.766  0.00  0.00    +0.200 A 
BRANCH   4   7
ATOM      7  C   UNL     1      12.503   5.357  23.514  0.00  0.00    +0.261 C 
ATOM      8  O   UNL     1      13.422   5.228  22.719  0.00  0.00    -0.269 OA
ATOM      9  N   UNL     1      12.495   6.331  24.472  0.00  0.00    -0.324 N 
ATOM     10  H   UNL     1      13.262   6.980  24.532  0.00  0.00    +0.145 HD
ATOM     11  H   UNL     1      11.699   6.395  25.097  0.00  0.00    +0.145 HD
ENDBRANCH   4   7
ENDBRANCH   1   2
BRANCH   1  12
ATOM     12  C   UNL     1       7.896   1.332  23.761  0.00  0.00    +0.134 C 
ATOM     13  C   UNL     1       7.668   0.410  24.955  0.00  0.00    +0.040 C 
BRANCH  12  14
ATOM     14  O   UNL     1       7.081   0.848  22.691  0.00  0.00    -0.390 OA
ATOM     15  H   UNL     1       6.200   1.255  22.775  0.00  0.00    +0.210 HD
ENDBRANCH  12  14
ENDBRANCH   1  12
BRANCH   1  16
ATOM     16  C   UNL     1       9.788   0.831  21.995  0.00  0.00    +0.068 C 
BRANCH  16  17
ATOM     17  C   UNL     1      10.120  -0.650  22.067  0.00  0.00    +0.231 C 
BRANCH  17  18
ATOM     18  O   UNL     1       8.976  -1.432  21.722  0.00  0.00    -0.492 OA
BRANCH  18  19
ATOM     19  C   UNL     1       8.610  -2.347  22.679  0.00  0.00    +0.121 A 
ATOM     20  C   UNL     1       9.559  -2.593  23.668  0.00  0.00    +0.046 A 
ATOM     21  C   UNL     1       9.280  -3.485  24.707  0.00  0.00    +0.012 A 
ATOM     22  C   UNL     1       8.030  -4.122  24.788  0.00  0.00    -0.018 A 
ATOM     23  C   UNL     1       7.705  -4.987  25.845  0.00  0.00    +0.008 A 
ATOM     24  C   UNL     1       6.444  -5.585  25.916  0.00  0.00    +0.001 A 
ATOM     25  C   UNL     1       5.500  -5.345  24.922  0.00  0.00    +0.001 A 
ATOM     26  C   UNL     1       5.813  -4.504  23.858  0.00  0.00    +0.008 A 
ATOM     27  C   UNL     1       7.068  -3.880  23.787  0.00  0.00    -0.014 A 
ATOM     28  C   UNL     1       7.375  -3.003  22.739  0.00  0.00    +0.054 A 
ENDBRANCH  18  19
ENDBRANCH  17  18
ENDBRANCH  16  17
ENDBRANCH   1  16
TORSDOF 8
ENDMDL
MODEL 7
REMARK VINA RESULT:      -7.0      3.518      6.942
REMARK  Name = 
REMARK  9 active torsions:
REMARK  status: ('A' for Active; 'I' for Inactive)
REMARK    1  A    between atoms: C_2  and  C_3
REMARK    2  A    between atoms: C_2  and  O_4
REMARK    3  A    between atoms: C_2  and  C_5
REMARK    4  A    between atoms: C_5  and  C_7
REMARK    5  A    between atoms: C_5  and  N_20
REMARK    6  A    between atoms: C_7  and  C_8
REMARK    7  A    between atoms: C_8  and  O_9
REMARK    8  A    between atoms: O_9  and  C_10
REMARK    9  A    between atoms: C_23  and  C_25
REMARK                            x       y       z     vdW  Elec       q    Type
REMARK                         _______ _______ _______ _____ _____    ______ ____
ROOT
ATOM      1  C   UNL     1       8.696   2.281  22.938  0.00  0.00    +0.120 C 
ENDROOT
BRANCH   1   2
ATOM      2  N   UNL     1       8.075   1.318  23.857  0.00  0.00    -0.330 N 
ATOM      3  C   UNL     1       8.681   0.793  24.969  0.00  0.00    +0.120 A 
ATOM      4  C   UNL     1       7.756  -0.067  25.526  0.00  0.00    +0.143 A 
ATOM      5  N   UNL     1       6.594  -0.061  24.773  0.00  0.00    -0.231 NA
ATOM      6  C   UNL     1       6.815   0.791  23.797  0.00  0.00    +0.200 A 
BRANCH   4   7
ATOM      7  C   UNL     1       7.920  -0.885  26.725  0.00  0.00    +0.261 C 
ATOM      8  O   UNL     1       7.186  -1.810  27.041  0.00  0.00    -0.269 OA
ATOM      9  N   UNL     1       8.993  -0.511  27.485  0.00  0.00    -0.324 N 
ATOM     10  H   UNL     1       9.206  -1.011  28.332  0.00  0.00    +0.145 HD
ATOM     11  H   UNL     1       9.572   0.258  27.166  0.00  0.00    +0.145 HD
ENDBRANCH   4   7
ENDBRANCH   1   2
BRANCH   1  12
ATOM     12  C   UNL     1       9.825   3.127  23.605  0.00  0.00    +0.134 C 
ATOM     13  C   UNL     1       9.315   4.441  24.190  0.00  0.00    +0.040 C 
BRANCH  12  14
ATOM     14  O   UNL     1      10.875   3.451  22.689  0.00  0.00    -0.390 OA
ATOM     15  H   UNL     1      11.714   3.463  23.185  0.00  0.00    +0.210 HD
ENDBRANCH  12  14
ENDBRANCH   1  12
BRANCH   1  16
ATOM     16  C   UNL     1       9.052   1.606  21.595  0.00  0.00    +0.068 C 
BRANCH  16  17
ATOM     17  C   UNL     1       9.882   0.342  21.754  0.00  0.00    +0.231 C 
BRANCH  17  18
ATOM     18  O   UNL     1       9.151  -0.793  21.285  0.00  0.00    -0.492 OA
BRANCH  18  19
ATOM     19  C   UNL     1       8.950  -1.764  22.235  0.00  0.00    +0.121 A 
ATOM     20  C   UNL     1      10.004  -1.965  23.121  0.00  0.00    +0.046 A 
ATOM     21  C   UNL     1       9.895  -2.909  24.146  0.00  0.00    +0.012 A 
ATOM     22  C   UNL     1       8.711  -3.646  24.317  0.00  0.00    -0.018 A 
ATOM     23  C   UNL     1       8.554  -4.567  25.365  0.00  0.00    +0.008 A 
ATOM     24  C   UNL     1       7.355  -5.266  25.529  0.00  0.00    +0.001 A 
ATOM     25  C   UNL     1       6.305  -5.070  24.637  0.00  0.00    +0.001 A 
ATOM     26  C   UNL     1       6.451  -4.172  23.582  0.00  0.00    +0.008 A 
ATOM     27  C   UNL     1       7.642  -3.449  23.420  0.00  0.00    -0.014 A 
ATOM     28  C   UNL     1       7.780  -2.518  22.384  0.00  0.00    +0.054 A 
ENDBRANCH  18  19
ENDBRANCH  17  18
ENDBRANCH  16  17
ENDBRANCH   1  16
TORSDOF 8
ENDMDL
MODEL 8
REMARK VINA RESULT:      -7.0      2.935      6.824
REMARK  Name = 
REMARK  9 active torsions:
REMARK  status: ('A' for Active; 'I' for Inactive)
REMARK    1  A    between atoms: C_2  and  C_3
REMARK    2  A    between atoms: C_2  and  O_4
REMARK    3  A    between atoms: C_2  and  C_5
REMARK    4  A    between atoms: C_5  and  C_7
REMARK    5  A    between atoms: C_5  and  N_20
REMARK    6  A    between atoms: C_7  and  C_8
REMARK    7  A    between atoms: C_8  and  O_9
REMARK    8  A    between atoms: O_9  and  C_10
REMARK    9  A    between atoms: C_23  and  C_25
REMARK                            x       y       z     vdW  Elec       q    Type
REMARK                         _______ _______ _______ _____ _____    ______ ____
ROOT
ATOM      1  C   UNL     1       8.443  -1.170  23.350  0.00  0.00    +0.120 C 
ENDROOT
BRANCH   1   2
ATOM      2  N   UNL     1       8.115  -2.586  23.142  0.00  0.00    -0.330 N 
ATOM      3  C   UNL     1       7.282  -3.062  22.162  0.00  0.00    +0.120 A 
ATOM      4  C   UNL     1       7.246  -4.431  22.336  0.00  0.00    +0.143 A 
ATOM      5  N   UNL     1       8.054  -4.792  23.401  0.00  0.00    -0.231 NA
ATOM      6  C   UNL     1       8.570  -3.668  23.844  0.00  0.00    +0.200 A 
BRANCH   4   7
ATOM      7  C   UNL     1       6.489  -5.402  21.549  0.00  0.00    +0.261 C 
ATOM      8  O   UNL     1       5.937  -5.156  20.487  0.00  0.00    -0.269 OA
ATOM      9  N   UNL     1       6.450  -6.641  22.124  0.00  0.00    -0.324 N 
ATOM     10  H   UNL     1       5.962  -7.391  21.663  0.00  0.00    +0.145 HD
ATOM     11  H   UNL     1       6.936  -6.787  23.001  0.00  0.00    +0.145 HD
ENDBRANCH   4   7
ENDBRANCH   1   2
BRANCH   1  12
ATOM     12  C   UNL     1       9.630  -0.677  22.464  0.00  0.00    +0.134 C 
ATOM     13  C   UNL     1       9.232   0.445  21.510  0.00  0.00    +0.040 C 
BRANCH  12  14
ATOM     14  O   UNL     1      10.191  -1.727  21.673  0.00  0.00    -0.390 OA
ATOM     15  H   UNL     1       9.611  -2.507  21.752  0.00  0.00    +0.210 HD
ENDBRANCH  12  14
ENDBRANCH   1  12
BRANCH   1  16
ATOM     16  C   UNL     1       7.166  -0.302  23.323  0.00  0.00    +0.068 C 
BRANCH  16  17
ATOM     17  C   UNL     1       6.629   0.030  24.706  0.00  0.00    +0.231 C 
BRANCH  17  18
ATOM     18  O   UNL     1       5.350  -0.576  24.900  0.00  0.00    -0.492 OA
BRANCH  18  19
ATOM     19  C   UNL     1       5.403  -1.901  25.257  0.00  0.00    +0.121 A 
ATOM     20  C   UNL     1       6.212  -2.195  26.351  0.00  0.00    +0.046 A 
ATOM     21  C   UNL     1       6.316  -3.509  26.819  0.00  0.00    +0.012 A 
ATOM     22  C   UNL     1       5.585  -4.545  26.213  0.00  0.00    -0.018 A 
ATOM     23  C   UNL     1       5.633  -5.865  26.689  0.00  0.00    +0.008 A 
ATOM     24  C   UNL     1       4.874  -6.870  26.085  0.00  0.00    +0.001 A 
ATOM     25  C   UNL     1       4.073  -6.575  24.985  0.00  0.00    +0.001 A 
ATOM     26  C   UNL     1       4.027  -5.275  24.491  0.00  0.00    +0.008 A 
ATOM     27  C   UNL     1       4.769  -4.252  25.102  0.00  0.00    -0.014 A 
ATOM     28  C   UNL     1       4.697  -2.935  24.632  0.00  0.00    +0.054 A 
ENDBRANCH  18  19
ENDBRANCH  17  18
ENDBRANCH  16  17
ENDBRANCH   1  16
TORSDOF 8
ENDMDL
MODEL 9
REMARK VINA RESULT:      -6.8      2.283      6.551
REMARK  Name = 
REMARK  9 active torsions:
REMARK  status: ('A' for Active; 'I' for Inactive)
REMARK    1  A    between atoms: C_2  and  C_3
REMARK    2  A    between atoms: C_2  and  O_4
REMARK    3  A    between atoms: C_2  and  C_5
REMARK    4  A    between atoms: C_5  and  C_7
REMARK    5  A    between atoms: C_5  and  N_20
REMARK    6  A    between atoms: C_7  and  C_8
REMARK    7  A    between atoms: C_8  and  O_9
REMARK    8  A    between atoms: O_9  and  C_10
REMARK    9  A    between atoms: C_23  and  C_25
REMARK                            x       y       z     vdW  Elec       q    Type
REMARK                         _______ _______ _______ _____ _____    ______ ____
ROOT
ATOM      1  C   UNL     1       8.241  -1.904  23.298  0.00  0.00    +0.120 C 
ENDROOT
BRANCH   1   2
ATOM      2  N   UNL     1       7.831  -2.430  24.607  0.00  0.00    -0.330 N 
ATOM      3  C   UNL     1       8.017  -3.722  25.025  0.00  0.00    +0.120 A 
ATOM      4  C   UNL     1       7.478  -3.784  26.294  0.00  0.00    +0.143 A 
ATOM      5  N   UNL     1       6.978  -2.544  26.655  0.00  0.00    -0.231 NA
ATOM      6  C   UNL     1       7.224  -1.758  25.632  0.00  0.00    +0.200 A 
BRANCH   4   7
ATOM      7  C   UNL     1       7.415  -4.951  27.172  0.00  0.00    +0.261 C 
ATOM      8  O   UNL     1       6.718  -5.029  28.173  0.00  0.00    -0.269 OA
ATOM      9  N   UNL     1       8.228  -5.971  26.765  0.00  0.00    -0.324 N 
ATOM     10  H   UNL     1       8.258  -6.827  27.292  0.00  0.00    +0.145 HD
ATOM     11  H   UNL     1       8.775  -5.851  25.920  0.00  0.00    +0.145 HD
ENDBRANCH   4   7
ENDBRANCH   1   2
BRANCH   1  12
ATOM     12  C   UNL     1       9.786  -1.728  23.163  0.00  0.00    +0.134 C 
ATOM     13  C   UNL     1      10.293  -0.437  23.799  0.00  0.00    +0.040 C 
BRANCH  12  14
ATOM     14  O   UNL     1      10.215  -1.725  21.799  0.00  0.00    -0.390 OA
ATOM     15  H   UNL     1       9.492  -1.359  21.257  0.00  0.00    +0.210 HD
ENDBRANCH  12  14
ENDBRANCH   1  12
BRANCH   1  16
ATOM     16  C   UNL     1       7.539  -2.671  22.156  0.00  0.00    +0.068 C 
BRANCH  16  17
ATOM     17  C   UNL     1       6.032  -2.476  22.131  0.00  0.00    +0.231 C 
BRANCH  17  18
ATOM     18  O   UNL     1       5.377  -3.710  21.835  0.00  0.00    -0.492 OA
BRANCH  18  19
ATOM     19  C   UNL     1       5.005  -4.430  22.943  0.00  0.00    +0.121 A 
ATOM     20  C   UNL     1       5.302  -5.790  22.902  0.00  0.00    +0.046 A 
ATOM     21  C   UNL     1       4.993  -6.613  23.990  0.00  0.00    +0.012 A 
ATOM     22  C   UNL     1       4.409  -6.077  25.150  0.00  0.00    -0.018 A 
ATOM     23  C   UNL     1       4.130  -6.869  26.275  0.00  0.00    +0.008 A 
ATOM     24  C   UNL     1       3.575  -6.304  27.426  0.00  0.00    +0.001 A 
ATOM     25  C   UNL     1       3.271  -4.947  27.462  0.00  0.00    +0.001 A 
ATOM     26  C   UNL     1       3.525  -4.151  26.348  0.00  0.00    +0.008 A 
ATOM     27  C   UNL     1       4.103  -4.702  25.194  0.00  0.00    -0.014 A 
ATOM     28  C   UNL     1       4.395  -3.899  24.085  0.00  0.00    +0.054 A 
ENDBRANCH  18  19
ENDBRANCH  17  18
ENDBRANCH  16  17
ENDBRANCH   1  16
TORSDOF 8
ENDMDL
