MODEL 1
REMARK VINA RESULT:      -4.1      0.000      0.000
REMARK  Name = 
REMARK  7 active torsions:
REMARK  status: ('A' for Active; 'I' for Inactive)
REMARK    1  A    between atoms: CD1_1  and  CG1_2
REMARK    2  A    between atoms: CG1_2  and  CB_3
REMARK    3  A    between atoms: CB_3  and  CG2_5
REMARK    4  A    between atoms: CB_3  and  CA_6
REMARK    5  A    between atoms: CA_6  and  N_8
REMARK    6  A    between atoms: CA_6  and  C_9
REMARK    7  A    between atoms: C_9  and  O_10
REMARK                            x       y       z     vdW  Elec       q    Type
REMARK                         _______ _______ _______ _____ _____    ______ ____
ROOT
ATOM      1  CA  ILE A   1      10.366  -1.201  22.856  0.00  0.00    +0.163 C 
ENDROOT
BRANCH   1   2
ATOM      2  N   ILE A   1      10.041  -1.534  21.440  0.00  0.00    -0.318 NA
ATOM      3  H1  ILE A   1       9.270  -2.208  21.441  0.00  0.00    +0.119 HD
ATOM      4  H2  ILE A   1       9.634  -0.696  21.007  0.00  0.00    +0.119 HD
ENDBRANCH   1   2
BRANCH   1   5
ATOM      5  CB  ILE A   1      10.034   0.252  23.272  0.00  0.00    +0.013 C 
ATOM      6  CG2 ILE A   1      10.950   0.745  24.398  0.00  0.00    +0.009 C 
BRANCH   5   8
ATOM      7  CD1 ILE A   1       8.558   1.773  21.737  0.00  0.00    +0.004 C 
ATOM      8  CG1 ILE A   1       9.946   1.281  22.120  0.00  0.00    +0.002 C 
ENDBRANCH   5   8
ENDBRANCH   1   5
BRANCH   1   9
ATOM      9  C   ILE A   1       9.628  -2.198  23.767  0.00  0.00    +0.322 C 
ATOM     10  OXT ILE A   1      10.050  -3.293  24.100  0.00  0.00    -0.249 OA
BRANCH   9  11
ATOM     11  O   ILE A   1       8.439  -1.691  24.187  0.00  0.00    -0.480 OA
ATOM     12  H   ILE A   1       7.768  -1.983  23.521  0.00  0.00    +0.295 HD
ENDBRANCH   9  11
ENDBRANCH   1   9
TORSDOF 5
ENDMDL
MODEL 2
REMARK VINA RESULT:      -3.9      2.114      2.588
REMARK  Name = 
REMARK  7 active torsions:
REMARK  status: ('A' for Active; 'I' for Inactive)
REMARK    1  A    between atoms: CD1_1  and  CG1_2
REMARK    2  A    between atoms: CG1_2  and  CB_3
REMARK    3  A    between atoms: CB_3  and  CG2_5
REMARK    4  A    between atoms: CB_3  and  CA_6
REMARK    5  A    between atoms: CA_6  and  N_8
REMARK    6  A    between atoms: CA_6  and  C_9
REMARK    7  A    between atoms: C_9  and  O_10
REMARK                            x       y       z     vdW  Elec       q    Type
REMARK                         _______ _______ _______ _____ _____    ______ ____
ROOT
ATOM      1  CA  ILE A   1       9.859   0.752  22.117  0.00  0.00    +0.163 C 
ENDROOT
BRANCH   1   2
ATOM      2  N   ILE A   1       9.039   1.544  21.157  0.00  0.00    -0.318 NA
ATOM      3  H1  ILE A   1       8.678   2.366  21.650  0.00  0.00    +0.119 HD
ATOM      4  H2  ILE A   1       9.675   1.938  20.453  0.00  0.00    +0.119 HD
ENDBRANCH   1   2
BRANCH   1   5
ATOM      5  CB  ILE A   1       9.853   1.288  23.569  0.00  0.00    +0.013 C 
ATOM      6  CG2 ILE A   1      10.946   0.634  24.422  0.00  0.00    +0.009 C 
BRANCH   5   8
ATOM      7  CD1 ILE A   1      11.158   3.549  23.382  0.00  0.00    +0.004 C 
ATOM      8  CG1 ILE A   1       9.861   2.828  23.721  0.00  0.00    +0.002 C 
ENDBRANCH   5   8
ENDBRANCH   1   5
BRANCH   1   9
ATOM      9  C   ILE A   1       9.365  -0.705  22.085  0.00  0.00    +0.322 C 
ATOM     10  OXT ILE A   1       8.282  -1.090  22.494  0.00  0.00    -0.249 OA
BRANCH   9  11
ATOM     11  O   ILE A   1      10.286  -1.523  21.511  0.00  0.00    -0.480 OA
ATOM     12  H   ILE A   1      11.139  -1.022  21.520  0.00  0.00    +0.295 HD
ENDBRANCH   9  11
ENDBRANCH   1   9
TORSDOF 5
ENDMDL
MODEL 3
REMARK VINA RESULT:      -3.9      4.517      5.695
REMARK  Name = 
REMARK  7 active torsions:
REMARK  status: ('A' for Active; 'I' for Inactive)
REMARK    1  A    between atoms: CD1_1  and  CG1_2
REMARK    2  A    between atoms: CG1_2  and  CB_3
REMARK    3  A    between atoms: CB_3  and  CG2_5
REMARK    4  A    between atoms: CB_3  and  CA_6
REMARK    5  A    between atoms: CA_6  and  N_8
REMARK    6  A    between atoms: CA_6  and  C_9
REMARK    7  A    between atoms: C_9  and  O_10
REMARK                            x       y       z     vdW  Elec       q    Type
REMARK                         _______ _______ _______ _____ _____    ______ ____
ROOT
ATOM      1  CA  ILE A   1       8.329  -4.794  24.717  0.00  0.00    +0.163 C 
ENDROOT
BRANCH   1   2
ATOM      2  N   ILE A   1       9.515  -5.683  24.555  0.00  0.00    -0.318 NA
ATOM      3  H1  ILE A   1      10.087  -5.314  23.791  0.00  0.00    +0.119 HD
ATOM      4  H2  ILE A   1      10.108  -5.566  25.386  0.00  0.00    +0.119 HD
ENDBRANCH   1   2
BRANCH   1   5
ATOM      5  CB  ILE A   1       7.468  -4.626  23.441  0.00  0.00    +0.013 C 
ATOM      6  CG2 ILE A   1       7.776  -3.311  22.716  0.00  0.00    +0.009 C 
BRANCH   5   8
ATOM      7  CD1 ILE A   1       6.433  -5.808  21.348  0.00  0.00    +0.004 C 
ATOM      8  CG1 ILE A   1       7.468  -5.826  22.464  0.00  0.00    +0.002 C 
ENDBRANCH   5   8
ENDBRANCH   1   5
BRANCH   1   9
ATOM      9  C   ILE A   1       7.470  -5.343  25.870  0.00  0.00    +0.322 C 
ATOM     10  OXT ILE A   1       6.251  -5.310  25.917  0.00  0.00    -0.249 OA
BRANCH   9  11
ATOM     11  O   ILE A   1       8.245  -5.904  26.835  0.00  0.00    -0.480 OA
ATOM     12  H   ILE A   1       9.080  -5.374  26.856  0.00  0.00    +0.295 HD
ENDBRANCH   9  11
ENDBRANCH   1   9
TORSDOF 5
ENDMDL
MODEL 4
REMARK VINA RESULT:      -3.8      2.175      3.032
REMARK  Name = 
REMARK  7 active torsions:
REMARK  status: ('A' for Active; 'I' for Inactive)
REMARK    1  A    between atoms: CD1_1  and  CG1_2
REMARK    2  A    between atoms: CG1_2  and  CB_3
REMARK    3  A    between atoms: CB_3  and  CG2_5
REMARK    4  A    between atoms: CB_3  and  CA_6
REMARK    5  A    between atoms: CA_6  and  N_8
REMARK    6  A    between atoms: CA_6  and  C_9
REMARK    7  A    between atoms: C_9  and  O_10
REMARK                            x       y       z     vdW  Elec       q    Type
REMARK                         _______ _______ _______ _____ _____    ______ ____
ROOT
ATOM      1  CA  ILE A   1      10.108   0.906  22.208  0.00  0.00    +0.163 C 
ENDROOT
BRANCH   1   2
ATOM      2  N   ILE A   1       9.391   1.939  21.406  0.00  0.00    -0.318 NA
ATOM      3  H1  ILE A   1       8.408   1.661  21.337  0.00  0.00    +0.119 HD
ATOM      4  H2  ILE A   1       9.365   2.803  21.960  0.00  0.00    +0.119 HD
ENDBRANCH   1   2
BRANCH   1   5
ATOM      5  CB  ILE A   1      10.250   1.240  23.713  0.00  0.00    +0.013 C 
ATOM      6  CG2 ILE A   1       9.113   2.142  24.205  0.00  0.00    +0.009 C 
BRANCH   5   8
ATOM      7  CD1 ILE A   1       9.356  -0.272  25.654  0.00  0.00    +0.004 C 
ATOM      8  CG1 ILE A   1      10.464   0.031  24.655  0.00  0.00    +0.002 C 
ENDBRANCH   5   8
ENDBRANCH   1   5
BRANCH   1   9
ATOM      9  C   ILE A   1       9.379  -0.437  22.026  0.00  0.00    +0.322 C 
ATOM     10  OXT ILE A   1       8.205  -0.641  22.288  0.00  0.00    -0.249 OA
BRANCH   9  11
ATOM     11  O   ILE A   1      10.208  -1.379  21.503  0.00  0.00    -0.480 OA
ATOM     12  H   ILE A   1      10.901  -0.882  21.001  0.00  0.00    +0.295 HD
ENDBRANCH   9  11
ENDBRANCH   1   9
TORSDOF 5
ENDMDL
MODEL 5
REMARK VINA RESULT:      -3.8      2.954      4.083
REMARK  Name = 
REMARK  7 active torsions:
REMARK  status: ('A' for Active; 'I' for Inactive)
REMARK    1  A    between atoms: CD1_1  and  CG1_2
REMARK    2  A    between atoms: CG1_2  and  CB_3
REMARK    3  A    between atoms: CB_3  and  CG2_5
REMARK    4  A    between atoms: CB_3  and  CA_6
REMARK    5  A    between atoms: CA_6  and  N_8
REMARK    6  A    between atoms: CA_6  and  C_9
REMARK    7  A    between atoms: C_9  and  O_10
REMARK                            x       y       z     vdW  Elec       q    Type
REMARK                         _______ _______ _______ _____ _____    ______ ____
ROOT
ATOM      1  CA  ILE A   1       9.157   1.293  21.612  0.00  0.00    +0.163 C 
ENDROOT
BRANCH   1   2
ATOM      2  N   ILE A   1      10.280   2.271  21.691  0.00  0.00    -0.318 NA
ATOM      3  H1  ILE A   1      10.002   3.024  22.326  0.00  0.00    +0.119 HD
ATOM      4  H2  ILE A   1      11.060   1.813  22.178  0.00  0.00    +0.119 HD
ENDBRANCH   1   2
BRANCH   1   5
ATOM      5  CB  ILE A   1       9.320   0.047  22.516  0.00  0.00    +0.013 C 
ATOM      6  CG2 ILE A   1       9.215  -1.255  21.715  0.00  0.00    +0.009 C 
BRANCH   5   8
ATOM      7  CD1 ILE A   1      10.332   0.431  24.899  0.00  0.00    +0.004 C 
ATOM      8  CG1 ILE A   1      10.558   0.044  23.445  0.00  0.00    +0.002 C 
ENDBRANCH   5   8
ENDBRANCH   1   5
BRANCH   1   9
ATOM      9  C   ILE A   1       7.851   2.031  21.954  0.00  0.00    +0.322 C 
ATOM     10  OXT ILE A   1       6.781   1.496  22.191  0.00  0.00    -0.249 OA
BRANCH   9  11
ATOM     11  O   ILE A   1       8.042   3.377  21.987  0.00  0.00    -0.480 OA
ATOM     12  H   ILE A   1       8.404   3.622  21.099  0.00  0.00    +0.295 HD
ENDBRANCH   9  11
ENDBRANCH   1   9
TORSDOF 5
ENDMDL
MODEL 6
REMARK VINA RESULT:      -3.8      1.901      2.386
REMARK  Name = 
REMARK  7 active torsions:
REMARK  status: ('A' for Active; 'I' for Inactive)
REMARK    1  A    between atoms: CD1_1  and  CG1_2
REMARK    2  A    between atoms: CG1_2  and  CB_3
REMARK    3  A    between atoms: CB_3  and  CG2_5
REMARK    4  A    between atoms: CB_3  and  CA_6
REMARK    5  A    between atoms: CA_6  and  N_8
REMARK    6  A    between atoms: CA_6  and  C_9
REMARK    7  A    between atoms: C_9  and  O_10
REMARK                            x       y       z     vdW  Elec       q    Type
REMARK                         _______ _______ _______ _____ _____    ______ ____
ROOT
ATOM      1  CA  ILE A   1       9.402  -0.536  23.539  0.00  0.00    +0.163 C 
ENDROOT
BRANCH   1   2
ATOM      2  N   ILE A   1       9.372  -0.547  25.030  0.00  0.00    -0.318 NA
ATOM      3  H1  ILE A   1       8.482  -0.143  25.332  0.00  0.00    +0.119 HD
ATOM      4  H2  ILE A   1       9.313  -1.527  25.333  0.00  0.00    +0.119 HD
ENDBRANCH   1   2
BRANCH   1   5
ATOM      5  CB  ILE A   1      10.108   0.692  22.915  0.00  0.00    +0.013 C 
ATOM      6  CG2 ILE A   1       9.241   1.362  21.843  0.00  0.00    +0.009 C 
BRANCH   5   8
ATOM      7  CD1 ILE A   1      10.791   3.165  23.433  0.00  0.00    +0.004 C 
ATOM      8  CG1 ILE A   1      10.672   1.728  23.918  0.00  0.00    +0.002 C 
ENDBRANCH   5   8
ENDBRANCH   1   5
BRANCH   1   9
ATOM      9  C   ILE A   1      10.075  -1.835  23.062  0.00  0.00    +0.322 C 
ATOM     10  OXT ILE A   1      10.226  -2.840  23.738  0.00  0.00    -0.249 OA
BRANCH   9  11
ATOM     11  O   ILE A   1      10.465  -1.738  21.763  0.00  0.00    -0.480 OA
ATOM     12  H   ILE A   1      10.851  -0.833  21.662  0.00  0.00    +0.295 HD
ENDBRANCH   9  11
ENDBRANCH   1   9
TORSDOF 5
ENDMDL
MODEL 7
REMARK VINA RESULT:      -3.6      4.726      5.662
REMARK  Name = 
REMARK  7 active torsions:
REMARK  status: ('A' for Active; 'I' for Inactive)
REMARK    1  A    between atoms: CD1_1  and  CG1_2
REMARK    2  A    between atoms: CG1_2  and  CB_3
REMARK    3  A    between atoms: CB_3  and  CG2_5
REMARK    4  A    between atoms: CB_3  and  CA_6
REMARK    5  A    between atoms: CA_6  and  N_8
REMARK    6  A    between atoms: CA_6  and  C_9
REMARK    7  A    between atoms: C_9  and  O_10
REMARK                            x       y       z     vdW  Elec       q    Type
REMARK                         _______ _______ _______ _____ _____    ______ ____
ROOT
ATOM      1  CA  ILE A   1       8.035  -5.239  25.722  0.00  0.00    +0.163 C 
ENDROOT
BRANCH   1   2
ATOM      2  N   ILE A   1       8.164  -5.626  27.156  0.00  0.00    -0.318 NA
ATOM      3  H1  ILE A   1       8.966  -5.127  27.549  0.00  0.00    +0.119 HD
ATOM      4  H2  ILE A   1       7.359  -5.235  27.659  0.00  0.00    +0.119 HD
ENDBRANCH   1   2
BRANCH   1   5
ATOM      5  CB  ILE A   1       7.047  -4.079  25.452  0.00  0.00    +0.013 C 
ATOM      6  CG2 ILE A   1       5.687  -4.591  24.965  0.00  0.00    +0.009 C 
BRANCH   5   8
ATOM      7  CD1 ILE A   1       7.777  -1.811  26.537  0.00  0.00    +0.004 C 
ATOM      8  CG1 ILE A   1       6.889  -3.046  26.594  0.00  0.00    +0.002 C 
ENDBRANCH   5   8
ENDBRANCH   1   5
BRANCH   1   9
ATOM      9  C   ILE A   1       9.435  -4.880  25.192  0.00  0.00    +0.322 C 
ATOM     10  OXT ILE A   1       9.681  -3.977  24.409  0.00  0.00    -0.249 OA
BRANCH   9  11
ATOM     11  O   ILE A   1      10.386  -5.687  25.733  0.00  0.00    -0.480 OA
ATOM     12  H   ILE A   1       9.955  -6.569  25.858  0.00  0.00    +0.295 HD
ENDBRANCH   9  11
ENDBRANCH   1   9
TORSDOF 5
ENDMDL
MODEL 8
REMARK VINA RESULT:      -3.6      3.583      5.012
REMARK  Name = 
REMARK  7 active torsions:
REMARK  status: ('A' for Active; 'I' for Inactive)
REMARK    1  A    between atoms: CD1_1  and  CG1_2
REMARK    2  A    between atoms: CG1_2  and  CB_3
REMARK    3  A    between atoms: CB_3  and  CG2_5
REMARK    4  A    between atoms: CB_3  and  CA_6
REMARK    5  A    between atoms: CA_6  and  N_8
REMARK    6  A    between atoms: CA_6  and  C_9
REMARK    7  A    between atoms: C_9  and  O_10
REMARK                            x       y       z     vdW  Elec       q    Type
REMARK                         _______ _______ _______ _____ _____    ______ ____
ROOT
ATOM      1  CA  ILE A   1       9.172  -4.650  25.414  0.00  0.00    +0.163 C 
ENDROOT
BRANCH   1   2
ATOM      2  N   ILE A   1       9.905  -5.948  25.369  0.00  0.00    -0.318 NA
ATOM      3  H1  ILE A   1      10.709  -5.837  24.745  0.00  0.00    +0.119 HD
ATOM      4  H2  ILE A   1      10.329  -6.100  26.292  0.00  0.00    +0.119 HD
ENDBRANCH   1   2
BRANCH   1   5
ATOM      5  CB  ILE A   1       8.393  -4.302  24.122  0.00  0.00    +0.013 C 
ATOM      6  CG2 ILE A   1       6.971  -4.873  24.144  0.00  0.00    +0.009 C 
BRANCH   5   8
ATOM      7  CD1 ILE A   1       9.757  -2.128  23.609  0.00  0.00    +0.004 C 
ATOM      8  CG1 ILE A   1       8.400  -2.810  23.711  0.00  0.00    +0.002 C 
ENDBRANCH   5   8
ENDBRANCH   1   5
BRANCH   1   9
ATOM      9  C   ILE A   1       8.217  -4.679  26.620  0.00  0.00    +0.322 C 
ATOM     10  OXT ILE A   1       7.638  -3.709  27.083  0.00  0.00    -0.249 OA
BRANCH   9  11
ATOM     11  O   ILE A   1       8.070  -5.942  27.101  0.00  0.00    -0.480 OA
ATOM     12  H   ILE A   1       7.242  -6.294  26.691  0.00  0.00    +0.295 HD
ENDBRANCH   9  11
ENDBRANCH   1   9
TORSDOF 5
ENDMDL
MODEL 9
REMARK VINA RESULT:      -3.5      2.979      3.953
REMARK  Name = 
REMARK  7 active torsions:
REMARK  status: ('A' for Active; 'I' for Inactive)
REMARK    1  A    between atoms: CD1_1  and  CG1_2
REMARK    2  A    between atoms: CG1_2  and  CB_3
REMARK    3  A    between atoms: CB_3  and  CG2_5
REMARK    4  A    between atoms: CB_3  and  CA_6
REMARK    5  A    between atoms: CA_6  and  N_8
REMARK    6  A    between atoms: CA_6  and  C_9
REMARK    7  A    between atoms: C_9  and  O_10
REMARK                            x       y       z     vdW  Elec       q    Type
REMARK                         _______ _______ _______ _____ _____    ______ ____
ROOT
ATOM      1  CA  ILE A   1       8.267   1.881  22.807  0.00  0.00    +0.163 C 
ENDROOT
BRANCH   1   2
ATOM      2  N   ILE A   1       7.145   0.899  22.858  0.00  0.00    -0.318 NA
ATOM      3  H1  ILE A   1       6.612   0.981  21.988  0.00  0.00    +0.119 HD
ATOM      4  H2  ILE A   1       7.552  -0.043  22.811  0.00  0.00    +0.119 HD
ENDBRANCH   1   2
BRANCH   1   5
ATOM      5  CB  ILE A   1       8.985   2.112  24.158  0.00  0.00    +0.013 C 
ATOM      6  CG2 ILE A   1       8.209   3.081  25.057  0.00  0.00    +0.009 C 
BRANCH   5   8
ATOM      7  CD1 ILE A   1      10.866   0.421  24.831  0.00  0.00    +0.004 C 
ATOM      8  CG1 ILE A   1       9.405   0.837  24.927  0.00  0.00    +0.002 C 
ENDBRANCH   5   8
ENDBRANCH   1   5
BRANCH   1   9
ATOM      9  C   ILE A   1       9.272   1.407  21.743  0.00  0.00    +0.322 C 
ATOM     10  OXT ILE A   1       9.191   0.366  21.112  0.00  0.00    -0.249 OA
BRANCH   9  11
ATOM     11  O   ILE A   1      10.267   2.317  21.567  0.00  0.00    -0.480 OA
ATOM     12  H   ILE A   1       9.862   3.068  21.065  0.00  0.00    +0.295 HD
ENDBRANCH   9  11
ENDBRANCH   1   9
TORSDOF 5
ENDMDL
