MODEL 1
REMARK VINA RESULT:      -7.1      0.000      0.000
REMARK  Name = 
REMARK  7 active torsions:
REMARK  status: ('A' for Active; 'I' for Inactive)
REMARK    1  A    between atoms: C_1  and  O_2
REMARK    2  A    between atoms: O_2  and  C_3
REMARK    3  A    between atoms: C_11  and  C_12
REMARK    4  A    between atoms: N_14  and  C_15
REMARK    5  A    between atoms: C_15  and  C_16
REMARK    6  A    between atoms: N_20  and  C_21
REMARK    7  A    between atoms: C_21  and  C_22
REMARK                            x       y       z     vdW  Elec       q    Type
REMARK                         _______ _______ _______ _____ _____    ______ ____
ROOT
ATOM      1  C   UNL     1       8.912  -3.358  23.881  0.00  0.00    +0.248 C 
ATOM      2  N   UNL     1       8.483  -2.451  22.940  0.00  0.00    -0.310 N 
ATOM      3  H   UNL     1       7.482  -2.316  22.840  0.00  0.00    +0.149 HD
ATOM      4  O   UNL     1      10.097  -3.465  24.181  0.00  0.00    -0.270 OA
ENDROOT
BRANCH   1   6
ATOM      5  C   UNL     1       6.731  -4.795  23.885  0.00  0.00    +0.134 A 
ATOM      6  C   UNL     1       7.885  -4.243  24.550  0.00  0.00    +0.080 A 
ATOM      7  C   UNL     1       8.165  -4.515  25.918  0.00  0.00    +0.048 A 
ATOM      8  C   UNL     1       7.249  -5.352  26.573  0.00  0.00    +0.113 A 
ATOM      9  C   UNL     1       6.075  -5.895  25.899  0.00  0.00    +0.116 A 
ATOM     10  N   UNL     1       5.392  -6.649  26.775  0.00  0.00    -0.155 NA
ATOM     11  N   UNL     1       6.140  -6.544  27.880  0.00  0.00    -0.196 N 
ATOM     12  H   UNL     1       5.872  -7.028  28.734  0.00  0.00    +0.213 HD
ATOM     13  N   UNL     1       7.247  -5.793  27.842  0.00  0.00    -0.155 NA
ATOM     14  C   UNL     1       5.788  -5.620  24.551  0.00  0.00    +0.078 A 
BRANCH   5  16
ATOM     15  C   UNL     1       6.723  -5.492  21.602  0.00  0.00    +0.277 C 
ATOM     16  O   UNL     1       6.538  -4.450  22.560  0.00  0.00    -0.494 OA
ENDBRANCH   5  16
ENDBRANCH   1   6
BRANCH   2  17
ATOM     17  C   UNL     1       9.373  -1.471  22.329  0.00  0.00    +0.123 C 
BRANCH  17  18
ATOM     18  C   UNL     1       9.307  -0.058  22.949  0.00  0.00    +0.074 C 
ATOM     19  N   UNL     1       9.500   1.015  21.931  0.00  0.00    -0.294 NA
ATOM     20  C   UNL     1      10.316   2.077  22.546  0.00  0.00    +0.085 C 
ATOM     21  C   UNL     1      10.542   1.683  23.992  0.00  0.00    +0.017 C 
ATOM     22  C   UNL     1      10.418   0.177  23.968  0.00  0.00    +0.022 C 
BRANCH  19  23
ATOM     23  C   UNL     1       8.202   1.513  21.450  0.00  0.00    +0.111 C 
BRANCH  23  24
ATOM     24  C   UNL     1       7.131   1.427  22.503  0.00  0.00    -0.019 C 
ATOM     25  C   UNL     1       6.543   2.492  23.068  0.00  0.00    +0.005 C 
ENDBRANCH  23  24
ENDBRANCH  19  23
ENDBRANCH  17  18
ENDBRANCH   2  17
TORSDOF 6
ENDMDL
MODEL 2
REMARK VINA RESULT:      -7.0      1.128      1.800
REMARK  Name = 
REMARK  7 active torsions:
REMARK  status: ('A' for Active; 'I' for Inactive)
REMARK    1  A    between atoms: C_1  and  O_2
REMARK    2  A    between atoms: O_2  and  C_3
REMARK    3  A    between atoms: C_11  and  C_12
REMARK    4  A    between atoms: N_14  and  C_15
REMARK    5  A    between atoms: C_15  and  C_16
REMARK    6  A    between atoms: N_20  and  C_21
REMARK    7  A    between atoms: C_21  and  C_22
REMARK                            x       y       z     vdW  Elec       q    Type
REMARK                         _______ _______ _______ _____ _____    ______ ____
ROOT
ATOM      1  C   UNL     1       8.815  -3.459  23.789  0.00  0.00    +0.248 C 
ATOM      2  N   UNL     1       8.372  -2.658  22.762  0.00  0.00    -0.310 N 
ATOM      3  H   UNL     1       7.369  -2.582  22.625  0.00  0.00    +0.149 HD
ATOM      4  O   UNL     1       9.994  -3.479  24.129  0.00  0.00    -0.270 OA
ENDROOT
BRANCH   1   6
ATOM      5  C   UNL     1       6.660  -4.932  23.877  0.00  0.00    +0.134 A 
ATOM      6  C   UNL     1       7.812  -4.334  24.505  0.00  0.00    +0.080 A 
ATOM      7  C   UNL     1       8.112  -4.546  25.879  0.00  0.00    +0.048 A 
ATOM      8  C   UNL     1       7.218  -5.372  26.578  0.00  0.00    +0.113 A 
ATOM      9  C   UNL     1       6.046  -5.962  25.940  0.00  0.00    +0.116 A 
ATOM     10  N   UNL     1       5.387  -6.693  26.853  0.00  0.00    -0.155 NA
ATOM     11  N   UNL     1       6.145  -6.530  27.945  0.00  0.00    -0.196 N 
ATOM     12  H   UNL     1       5.896  -6.985  28.820  0.00  0.00    +0.213 HD
ATOM     13  N   UNL     1       7.238  -5.762  27.863  0.00  0.00    -0.155 NA
ATOM     14  C   UNL     1       5.740  -5.746  24.586  0.00  0.00    +0.078 A 
BRANCH   5  16
ATOM     15  C   UNL     1       6.648  -5.717  21.622  0.00  0.00    +0.277 C 
ATOM     16  O   UNL     1       6.446  -4.644  22.541  0.00  0.00    -0.494 OA
ENDBRANCH   5  16
ENDBRANCH   1   6
BRANCH   2  17
ATOM     17  C   UNL     1       9.233  -1.690  22.092  0.00  0.00    +0.123 C 
BRANCH  17  18
ATOM     18  C   UNL     1       9.213  -0.272  22.703  0.00  0.00    +0.074 C 
ATOM     19  N   UNL     1       7.829   0.191  23.013  0.00  0.00    -0.294 NA
ATOM     20  C   UNL     1       7.747   1.624  22.677  0.00  0.00    +0.085 C 
ATOM     21  C   UNL     1       9.133   2.058  22.244  0.00  0.00    +0.017 C 
ATOM     22  C   UNL     1       9.760   0.779  21.741  0.00  0.00    +0.022 C 
BRANCH  19  23
ATOM     23  C   UNL     1       7.496  -0.075  24.422  0.00  0.00    +0.111 C 
BRANCH  23  24
ATOM     24  C   UNL     1       8.711  -0.053  25.309  0.00  0.00    -0.019 C 
ATOM     25  C   UNL     1       8.826  -0.754  26.447  0.00  0.00    +0.005 C 
ENDBRANCH  23  24
ENDBRANCH  19  23
ENDBRANCH  17  18
ENDBRANCH   2  17
TORSDOF 6
ENDMDL
MODEL 3
REMARK VINA RESULT:      -6.9      1.384      1.918
REMARK  Name = 
REMARK  7 active torsions:
REMARK  status: ('A' for Active; 'I' for Inactive)
REMARK    1  A    between atoms: C_1  and  O_2
REMARK    2  A    between atoms: O_2  and  C_3
REMARK    3  A    between atoms: C_11  and  C_12
REMARK    4  A    between atoms: N_14  and  C_15
REMARK    5  A    between atoms: C_15  and  C_16
REMARK    6  A    between atoms: N_20  and  C_21
REMARK    7  A    between atoms: C_21  and  C_22
REMARK                            x       y       z     vdW  Elec       q    Type
REMARK                         _______ _______ _______ _____ _____    ______ ____
ROOT
ATOM      1  C   UNL     1       9.299  -2.663  24.448  0.00  0.00    +0.248 C 
ATOM      2  N   UNL     1       9.149  -1.354  24.844  0.00  0.00    -0.310 N 
ATOM      3  H   UNL     1       8.422  -1.150  25.522  0.00  0.00    +0.149 HD
ATOM      4  O   UNL     1      10.251  -3.024  23.762  0.00  0.00    -0.270 OA
ENDROOT
BRANCH   1   6
ATOM      5  C   UNL     1       7.197  -4.151  24.015  0.00  0.00    +0.134 A 
ATOM      6  C   UNL     1       8.253  -3.669  24.870  0.00  0.00    +0.080 A 
ATOM      7  C   UNL     1       8.409  -4.133  26.205  0.00  0.00    +0.048 A 
ATOM      8  C   UNL     1       7.472  -5.086  26.633  0.00  0.00    +0.113 A 
ATOM      9  C   UNL     1       6.396  -5.559  25.767  0.00  0.00    +0.116 A 
ATOM     10  N   UNL     1       5.666  -6.456  26.448  0.00  0.00    -0.155 NA
ATOM     11  N   UNL     1       6.295  -6.494  27.629  0.00  0.00    -0.196 N 
ATOM     12  H   UNL     1       5.967  -7.108  28.371  0.00  0.00    +0.213 HD
ATOM     13  N   UNL     1       7.365  -5.712  27.817  0.00  0.00    -0.155 NA
ATOM     14  C   UNL     1       6.232  -5.095  24.451  0.00  0.00    +0.078 A 
BRANCH   5  16
ATOM     15  C   UNL     1       6.055  -2.698  22.504  0.00  0.00    +0.277 C 
ATOM     16  O   UNL     1       7.120  -3.618  22.741  0.00  0.00    -0.494 OA
ENDBRANCH   5  16
ENDBRANCH   1   6
BRANCH   2  17
ATOM     17  C   UNL     1      10.162  -0.336  24.595  0.00  0.00    +0.123 C 
BRANCH  17  18
ATOM     18  C   UNL     1       9.767   0.730  23.549  0.00  0.00    +0.074 C 
ATOM     19  N   UNL     1       8.333   1.126  23.661  0.00  0.00    -0.294 NA
ATOM     20  C   UNL     1       7.808   1.308  22.296  0.00  0.00    +0.085 C 
ATOM     21  C   UNL     1       8.970   1.108  21.343  0.00  0.00    +0.017 C 
ATOM     22  C   UNL     1       9.910   0.217  22.119  0.00  0.00    +0.022 C 
BRANCH  19  23
ATOM     23  C   UNL     1       8.193   2.340  24.481  0.00  0.00    +0.111 C 
BRANCH  23  24
ATOM     24  C   UNL     1       9.271   3.350  24.196  0.00  0.00    -0.019 C 
ATOM     25  C   UNL     1       9.040   4.591  23.743  0.00  0.00    +0.005 C 
ENDBRANCH  23  24
ENDBRANCH  19  23
ENDBRANCH  17  18
ENDBRANCH   2  17
TORSDOF 6
ENDMDL
MODEL 4
REMARK VINA RESULT:      -6.5      2.798      4.040
REMARK  Name = 
REMARK  7 active torsions:
REMARK  status: ('A' for Active; 'I' for Inactive)
REMARK    1  A    between atoms: C_1  and  O_2
REMARK    2  A    between atoms: O_2  and  C_3
REMARK    3  A    between atoms: C_11  and  C_12
REMARK    4  A    between atoms: N_14  and  C_15
REMARK    5  A    between atoms: C_15  and  C_16
REMARK    6  A    between atoms: N_20  and  C_21
REMARK    7  A    between atoms: C_21  and  C_22
REMARK                            x       y       z     vdW  Elec       q    Type
REMARK                         _______ _______ _______ _____ _____    ______ ____
ROOT
ATOM      1  C   UNL     1       7.102  -1.135  24.472  0.00  0.00    +0.248 C 
ATOM      2  N   UNL     1       8.271  -0.495  24.816  0.00  0.00    -0.310 N 
ATOM      3  H   UNL     1       9.143  -0.909  24.500  0.00  0.00    +0.149 HD
ATOM      4  O   UNL     1       6.004  -0.622  24.669  0.00  0.00    -0.270 OA
ENDROOT
BRANCH   1   6
ATOM      5  C   UNL     1       7.974  -3.595  24.365  0.00  0.00    +0.134 A 
ATOM      6  C   UNL     1       7.189  -2.505  23.840  0.00  0.00    +0.080 A 
ATOM      7  C   UNL     1       6.397  -2.648  22.667  0.00  0.00    +0.048 A 
ATOM      8  C   UNL     1       6.430  -3.912  22.059  0.00  0.00    +0.113 A 
ATOM      9  C   UNL     1       7.238  -5.006  22.588  0.00  0.00    +0.116 A 
ATOM     10  N   UNL     1       7.069  -6.080  21.799  0.00  0.00    -0.155 NA
ATOM     11  N   UNL     1       6.210  -5.622  20.880  0.00  0.00    -0.196 N 
ATOM     12  H   UNL     1       5.879  -6.228  20.133  0.00  0.00    +0.213 HD
ATOM     13  N   UNL     1       5.790  -4.353  20.963  0.00  0.00    -0.155 NA
ATOM     14  C   UNL     1       8.031  -4.866  23.739  0.00  0.00    +0.078 A 
BRANCH   5  16
ATOM     15  C   UNL     1       8.654  -4.322  26.535  0.00  0.00    +0.277 C 
ATOM     16  O   UNL     1       8.727  -3.344  25.498  0.00  0.00    -0.494 OA
ENDBRANCH   5  16
ENDBRANCH   1   6
BRANCH   2  17
ATOM     17  C   UNL     1       8.301   0.874  25.316  0.00  0.00    +0.123 C 
BRANCH  17  18
ATOM     18  C   UNL     1       8.361   1.963  24.223  0.00  0.00    +0.074 C 
ATOM     19  N   UNL     1       9.744   2.484  24.020  0.00  0.00    -0.294 NA
ATOM     20  C   UNL     1       9.649   3.937  23.790  0.00  0.00    +0.085 C 
ATOM     21  C   UNL     1       8.174   4.285  23.759  0.00  0.00    +0.017 C 
ATOM     22  C   UNL     1       7.539   3.195  24.589  0.00  0.00    +0.022 C 
BRANCH  19  23
ATOM     23  C   UNL     1      10.405   1.782  22.909  0.00  0.00    +0.111 C 
BRANCH  23  24
ATOM     24  C   UNL     1       9.424   1.284  21.883  0.00  0.00    -0.019 C 
ATOM     25  C   UNL     1       9.400   0.030  21.408  0.00  0.00    +0.005 C 
ENDBRANCH  23  24
ENDBRANCH  19  23
ENDBRANCH  17  18
ENDBRANCH   2  17
TORSDOF 6
ENDMDL
MODEL 5
REMARK VINA RESULT:      -6.4      2.309      7.157
REMARK  Name = 
REMARK  7 active torsions:
REMARK  status: ('A' for Active; 'I' for Inactive)
REMARK    1  A    between atoms: C_1  and  O_2
REMARK    2  A    between atoms: O_2  and  C_3
REMARK    3  A    between atoms: C_11  and  C_12
REMARK    4  A    between atoms: N_14  and  C_15
REMARK    5  A    between atoms: C_15  and  C_16
REMARK    6  A    between atoms: N_20  and  C_21
REMARK    7  A    between atoms: C_21  and  C_22
REMARK                            x       y       z     vdW  Elec       q    Type
REMARK                         _______ _______ _______ _____ _____    ______ ____
ROOT
ATOM      1  C   UNL     1       9.784  -1.433  23.455  0.00  0.00    +0.248 C 
ATOM      2  N   UNL     1       9.314  -2.226  24.476  0.00  0.00    -0.310 N 
ATOM      3  H   UNL     1       8.621  -1.824  25.100  0.00  0.00    +0.149 HD
ATOM      4  O   UNL     1      10.495  -1.886  22.562  0.00  0.00    -0.270 OA
ENDROOT
BRANCH   1   6
ATOM      5  C   UNL     1       8.059   0.528  23.503  0.00  0.00    +0.134 A 
ATOM      6  C   UNL     1       9.412   0.031  23.448  0.00  0.00    +0.080 A 
ATOM      7  C   UNL     1      10.532   0.908  23.405  0.00  0.00    +0.048 A 
ATOM      8  C   UNL     1      10.233   2.280  23.419  0.00  0.00    +0.113 A 
ATOM      9  C   UNL     1       8.861   2.775  23.461  0.00  0.00    +0.116 A 
ATOM     10  N   UNL     1       8.893   4.117  23.463  0.00  0.00    -0.155 NA
ATOM     11  N   UNL     1      10.208   4.368  23.431  0.00  0.00    -0.196 N 
ATOM     12  H   UNL     1      10.553   5.325  23.432  0.00  0.00    +0.213 HD
ATOM     13  N   UNL     1      11.062   3.337  23.399  0.00  0.00    -0.155 NA
ATOM     14  C   UNL     1       7.752   1.912  23.492  0.00  0.00    +0.078 A 
BRANCH   5  16
ATOM     15  C   UNL     1       6.079  -0.279  24.565  0.00  0.00    +0.277 C 
ATOM     16  O   UNL     1       7.042  -0.409  23.519  0.00  0.00    -0.494 OA
ENDBRANCH   5  16
ENDBRANCH   1   6
BRANCH   2  17
ATOM     17  C   UNL     1       9.513  -3.669  24.507  0.00  0.00    +0.123 C 
BRANCH  17  18
ATOM     18  C   UNL     1       8.235  -4.506  24.278  0.00  0.00    +0.074 C 
ATOM     19  N   UNL     1       7.104  -3.680  23.763  0.00  0.00    -0.294 NA
ATOM     20  C   UNL     1       5.868  -4.155  24.411  0.00  0.00    +0.085 C 
ATOM     21  C   UNL     1       6.244  -5.351  25.263  0.00  0.00    +0.017 C 
ATOM     22  C   UNL     1       7.704  -5.115  25.573  0.00  0.00    +0.022 C 
BRANCH  19  23
ATOM     23  C   UNL     1       7.033  -3.756  22.295  0.00  0.00    +0.111 C 
BRANCH  23  24
ATOM     24  C   UNL     1       6.060  -4.803  21.825  0.00  0.00    -0.019 C 
ATOM     25  C   UNL     1       6.418  -5.956  21.240  0.00  0.00    +0.005 C 
ENDBRANCH  23  24
ENDBRANCH  19  23
ENDBRANCH  17  18
ENDBRANCH   2  17
TORSDOF 6
ENDMDL
MODEL 6
REMARK VINA RESULT:      -6.2      1.851      2.733
REMARK  Name = 
REMARK  7 active torsions:
REMARK  status: ('A' for Active; 'I' for Inactive)
REMARK    1  A    between atoms: C_1  and  O_2
REMARK    2  A    between atoms: O_2  and  C_3
REMARK    3  A    between atoms: C_11  and  C_12
REMARK    4  A    between atoms: N_14  and  C_15
REMARK    5  A    between atoms: C_15  and  C_16
REMARK    6  A    between atoms: N_20  and  C_21
REMARK    7  A    between atoms: C_21  and  C_22
REMARK                            x       y       z     vdW  Elec       q    Type
REMARK                         _______ _______ _______ _____ _____    ______ ____
ROOT
ATOM      1  C   UNL     1       7.560  -4.125  25.785  0.00  0.00    +0.248 C 
ATOM      2  N   UNL     1       7.792  -2.981  25.056  0.00  0.00    -0.310 N 
ATOM      3  H   UNL     1       7.135  -2.755  24.316  0.00  0.00    +0.149 HD
ATOM      4  O   UNL     1       8.204  -4.387  26.797  0.00  0.00    -0.270 OA
ENDROOT
BRANCH   1   6
ATOM      5  C   UNL     1       6.271  -5.442  23.934  0.00  0.00    +0.134 A 
ATOM      6  C   UNL     1       6.485  -5.075  25.312  0.00  0.00    +0.080 A 
ATOM      7  C   UNL     1       5.691  -5.614  26.363  0.00  0.00    +0.048 A 
ATOM      8  C   UNL     1       4.693  -6.519  25.971  0.00  0.00    +0.113 A 
ATOM      9  C   UNL     1       4.473  -6.875  24.573  0.00  0.00    +0.116 A 
ATOM     10  N   UNL     1       3.458  -7.751  24.511  0.00  0.00    -0.155 NA
ATOM     11  N   UNL     1       3.126  -7.889  25.801  0.00  0.00    -0.196 N 
ATOM     12  H   UNL     1       2.373  -8.515  26.077  0.00  0.00    +0.213 HD
ATOM     13  N   UNL     1       3.805  -7.192  26.721  0.00  0.00    -0.155 NA
ATOM     14  C   UNL     1       5.247  -6.337  23.531  0.00  0.00    +0.078 A 
BRANCH   5  16
ATOM     15  C   UNL     1       7.133  -5.475  21.708  0.00  0.00    +0.277 C 
ATOM     16  O   UNL     1       7.083  -4.844  22.987  0.00  0.00    -0.494 OA
ENDBRANCH   5  16
ENDBRANCH   1   6
BRANCH   2  17
ATOM     17  C   UNL     1       8.718  -1.944  25.494  0.00  0.00    +0.123 C 
BRANCH  17  18
ATOM     18  C   UNL     1       9.422  -1.178  24.352  0.00  0.00    +0.074 C 
ATOM     19  N   UNL     1       8.474  -0.325  23.577  0.00  0.00    -0.294 NA
ATOM     20  C   UNL     1       8.855  -0.407  22.155  0.00  0.00    +0.085 C 
ATOM     21  C   UNL     1      10.112  -1.250  22.080  0.00  0.00    +0.017 C 
ATOM     22  C   UNL     1      10.027  -2.118  23.313  0.00  0.00    +0.022 C 
BRANCH  19  23
ATOM     23  C   UNL     1       8.488   1.057  24.082  0.00  0.00    +0.111 C 
BRANCH  23  24
ATOM     24  C   UNL     1       9.877   1.529  24.416  0.00  0.00    -0.019 C 
ATOM     25  C   UNL     1      10.575   2.401  23.674  0.00  0.00    +0.005 C 
ENDBRANCH  23  24
ENDBRANCH  19  23
ENDBRANCH  17  18
ENDBRANCH   2  17
TORSDOF 6
ENDMDL
MODEL 7
REMARK VINA RESULT:      -6.2      2.258      3.389
REMARK  Name = 
REMARK  7 active torsions:
REMARK  status: ('A' for Active; 'I' for Inactive)
REMARK    1  A    between atoms: C_1  and  O_2
REMARK    2  A    between atoms: O_2  and  C_3
REMARK    3  A    between atoms: C_11  and  C_12
REMARK    4  A    between atoms: N_14  and  C_15
REMARK    5  A    between atoms: C_15  and  C_16
REMARK    6  A    between atoms: N_20  and  C_21
REMARK    7  A    between atoms: C_21  and  C_22
REMARK                            x       y       z     vdW  Elec       q    Type
REMARK                         _______ _______ _______ _____ _____    ______ ____
ROOT
ATOM      1  C   UNL     1       9.240  -2.356  23.478  0.00  0.00    +0.248 C 
ATOM      2  N   UNL     1       9.155  -1.270  24.319  0.00  0.00    -0.310 N 
ATOM      3  H   UNL     1       8.473  -1.310  25.070  0.00  0.00    +0.149 HD
ATOM      4  O   UNL     1      10.140  -2.461  22.650  0.00  0.00    -0.270 OA
ENDROOT
BRANCH   1   6
ATOM      5  C   UNL     1       7.794  -4.067  24.820  0.00  0.00    +0.134 A 
ATOM      6  C   UNL     1       8.188  -3.435  23.585  0.00  0.00    +0.080 A 
ATOM      7  C   UNL     1       7.583  -3.773  22.343  0.00  0.00    +0.048 A 
ATOM      8  C   UNL     1       6.584  -4.757  22.399  0.00  0.00    +0.113 A 
ATOM      9  C   UNL     1       6.200  -5.403  23.650  0.00  0.00    +0.116 A 
ATOM     10  N   UNL     1       5.230  -6.294  23.389  0.00  0.00    -0.155 NA
ATOM     11  N   UNL     1       5.069  -6.156  22.067  0.00  0.00    -0.196 N 
ATOM     12  H   UNL     1       4.376  -6.710  21.569  0.00  0.00    +0.213 HD
ATOM     13  N   UNL     1       5.834  -5.273  21.411  0.00  0.00    -0.155 NA
ATOM     14  C   UNL     1       6.802  -5.080  24.877  0.00  0.00    +0.078 A 
BRANCH   5  16
ATOM     15  C   UNL     1       9.213  -4.697  26.633  0.00  0.00    +0.277 C 
ATOM     16  O   UNL     1       8.460  -3.682  25.969  0.00  0.00    -0.494 OA
ENDBRANCH   5  16
ENDBRANCH   1   6
BRANCH   2  17
ATOM     17  C   UNL     1      10.184  -0.239  24.379  0.00  0.00    +0.123 C 
BRANCH  17  18
ATOM     18  C   UNL     1       9.821   1.083  23.669  0.00  0.00    +0.074 C 
ATOM     19  N   UNL     1       8.415   1.502  23.939  0.00  0.00    -0.294 NA
ATOM     20  C   UNL     1       7.864   2.064  22.693  0.00  0.00    +0.085 C 
ATOM     21  C   UNL     1       8.987   2.071  21.675  0.00  0.00    +0.017 C 
ATOM     22  C   UNL     1       9.897   0.962  22.149  0.00  0.00    +0.022 C 
BRANCH  19  23
ATOM     23  C   UNL     1       8.365   2.460  25.056  0.00  0.00    +0.111 C 
BRANCH  23  24
ATOM     24  C   UNL     1       7.349   2.072  26.095  0.00  0.00    -0.019 C 
ATOM     25  C   UNL     1       7.161   0.819  26.535  0.00  0.00    +0.005 C 
ENDBRANCH  23  24
ENDBRANCH  19  23
ENDBRANCH  17  18
ENDBRANCH   2  17
TORSDOF 6
ENDMDL
MODEL 8
REMARK VINA RESULT:      -6.1      2.486      3.789
REMARK  Name = 
REMARK  7 active torsions:
REMARK  status: ('A' for Active; 'I' for Inactive)
REMARK    1  A    between atoms: C_1  and  O_2
REMARK    2  A    between atoms: O_2  and  C_3
REMARK    3  A    between atoms: C_11  and  C_12
REMARK    4  A    between atoms: N_14  and  C_15
REMARK    5  A    between atoms: C_15  and  C_16
REMARK    6  A    between atoms: N_20  and  C_21
REMARK    7  A    between atoms: C_21  and  C_22
REMARK                            x       y       z     vdW  Elec       q    Type
REMARK                         _______ _______ _______ _____ _____    ______ ____
ROOT
ATOM      1  C   UNL     1       9.234  -0.734  23.419  0.00  0.00    +0.248 C 
ATOM      2  N   UNL     1       9.516   0.522  23.906  0.00  0.00    -0.310 N 
ATOM      3  H   UNL     1       9.589   0.629  24.913  0.00  0.00    +0.149 HD
ATOM      4  O   UNL     1       9.289  -0.988  22.219  0.00  0.00    -0.270 OA
ENDROOT
BRANCH   1   6
ATOM      5  C   UNL     1       7.884  -1.644  25.461  0.00  0.00    +0.134 A 
ATOM      6  C   UNL     1       8.843  -1.816  24.398  0.00  0.00    +0.080 A 
ATOM      7  C   UNL     1       9.495  -3.060  24.171  0.00  0.00    +0.048 A 
ATOM      8  C   UNL     1       9.145  -4.101  25.044  0.00  0.00    +0.113 A 
ATOM      9  C   UNL     1       8.184  -3.916  26.127  0.00  0.00    +0.116 A 
ATOM     10  N   UNL     1       8.058  -5.078  26.787  0.00  0.00    -0.155 NA
ATOM     11  N   UNL     1       8.894  -5.877  26.113  0.00  0.00    -0.196 N 
ATOM     12  H   UNL     1       9.009  -6.851  26.384  0.00  0.00    +0.213 HD
ATOM     13  N   UNL     1       9.575  -5.373  25.076  0.00  0.00    -0.155 NA
ATOM     14  C   UNL     1       7.546  -2.686  26.362  0.00  0.00    +0.078 A 
BRANCH   5  16
ATOM     15  C   UNL     1       6.012  -0.212  25.076  0.00  0.00    +0.277 C 
ATOM     16  O   UNL     1       7.324  -0.388  25.611  0.00  0.00    -0.494 OA
ENDBRANCH   5  16
ENDBRANCH   1   6
BRANCH   2  17
ATOM     17  C   UNL     1      10.020   1.598  23.062  0.00  0.00    +0.123 C 
BRANCH  17  18
ATOM     18  C   UNL     1       9.027   2.756  22.825  0.00  0.00    +0.074 C 
ATOM     19  N   UNL     1       8.229   3.074  24.044  0.00  0.00    -0.294 NA
ATOM     20  C   UNL     1       6.853   3.385  23.613  0.00  0.00    +0.085 C 
ATOM     21  C   UNL     1       6.843   3.345  22.098  0.00  0.00    +0.017 C 
ATOM     22  C   UNL     1       7.984   2.414  21.764  0.00  0.00    +0.022 C 
BRANCH  19  23
ATOM     23  C   UNL     1       8.845   4.181  24.793  0.00  0.00    +0.111 C 
BRANCH  23  24
ATOM     24  C   UNL     1       9.564   5.149  23.894  0.00  0.00    -0.019 C 
ATOM     25  C   UNL     1       9.156   6.405  23.658  0.00  0.00    +0.005 C 
ENDBRANCH  23  24
ENDBRANCH  19  23
ENDBRANCH  17  18
ENDBRANCH   2  17
TORSDOF 6
ENDMDL
MODEL 9
REMARK VINA RESULT:      -6.0      2.635      3.797
REMARK  Name = 
REMARK  7 active torsions:
REMARK  status: ('A' for Active; 'I' for Inactive)
REMARK    1  A    between atoms: C_1  and  O_2
REMARK    2  A    between atoms: O_2  and  C_3
REMARK    3  A    between atoms: C_11  and  C_12
REMARK    4  A    between atoms: N_14  and  C_15
REMARK    5  A    between atoms: C_15  and  C_16
REMARK    6  A    between atoms: N_20  and  C_21
REMARK    7  A    between atoms: C_21  and  C_22
REMARK                            x       y       z     vdW  Elec       q    Type
REMARK                         _______ _______ _______ _____ _____    ______ ____
ROOT
ATOM      1  C   UNL     1       7.217  -1.363  24.509  0.00  0.00    +0.248 C 
ATOM      2  N   UNL     1       8.476  -0.910  24.829  0.00  0.00    -0.310 N 
ATOM      3  H   UNL     1       9.265  -1.485  24.555  0.00  0.00    +0.149 HD
ATOM      4  O   UNL     1       6.221  -0.660  24.654  0.00  0.00    -0.270 OA
ENDROOT
BRANCH   1   6
ATOM      5  C   UNL     1       7.339  -3.963  24.733  0.00  0.00    +0.134 A 
ATOM      6  C   UNL     1       7.072  -2.768  23.971  0.00  0.00    +0.080 A 
ATOM      7  C   UNL     1       6.616  -2.823  22.624  0.00  0.00    +0.048 A 
ATOM      8  C   UNL     1       6.446  -4.110  22.090  0.00  0.00    +0.113 A 
ATOM      9  C   UNL     1       6.732  -5.314  22.862  0.00  0.00    +0.116 A 
ATOM     10  N   UNL     1       6.479  -6.384  22.091  0.00  0.00    -0.155 NA
ATOM     11  N   UNL     1       6.067  -5.818  20.950  0.00  0.00    -0.196 N 
ATOM     12  H   UNL     1       5.790  -6.393  20.158  0.00  0.00    +0.213 HD
ATOM     13  N   UNL     1       6.025  -4.482  20.870  0.00  0.00    -0.155 NA
ATOM     14  C   UNL     1       7.193  -5.264  24.189  0.00  0.00    +0.078 A 
BRANCH   5  16
ATOM     15  C   UNL     1       9.026  -4.453  26.349  0.00  0.00    +0.277 C 
ATOM     16  O   UNL     1       7.800  -3.798  26.027  0.00  0.00    -0.494 OA
ENDBRANCH   5  16
ENDBRANCH   1   6
BRANCH   2  17
ATOM     17  C   UNL     1       8.736   0.466  25.237  0.00  0.00    +0.123 C 
BRANCH  17  18
ATOM     18  C   UNL     1       9.304   1.376  24.126  0.00  0.00    +0.074 C 
ATOM     19  N   UNL     1       8.229   2.080  23.369  0.00  0.00    -0.294 NA
ATOM     20  C   UNL     1       8.624   2.110  21.949  0.00  0.00    +0.085 C 
ATOM     21  C   UNL     1      10.006   1.495  21.860  0.00  0.00    +0.017 C 
ATOM     22  C   UNL     1      10.064   0.585  23.065  0.00  0.00    +0.022 C 
BRANCH  19  23
ATOM     23  C   UNL     1       8.006   3.428  23.917  0.00  0.00    +0.111 C 
BRANCH  23  24
ATOM     24  C   UNL     1       9.295   4.162  24.170  0.00  0.00    -0.019 C 
ATOM     25  C   UNL     1       9.422   5.496  24.131  0.00  0.00    +0.005 C 
ENDBRANCH  23  24
ENDBRANCH  19  23
ENDBRANCH  17  18
ENDBRANCH   2  17
TORSDOF 6
ENDMDL
