MODEL 1
REMARK VINA RESULT:      -5.8      0.000      0.000
REMARK  Name = 
REMARK  11 active torsions:
REMARK  status: ('A' for Active; 'I' for Inactive)
REMARK    1  A    between atoms: C_1  and  C_2
REMARK    2  A    between atoms: N_4  and  C_5
REMARK    3  A    between atoms: C_7  and  O_9
REMARK    4  A    between atoms: C_11  and  C_23
REMARK    5  A    between atoms: C_13  and  C_15
REMARK    6  A    between atoms: C_15  and  O_17
REMARK    7  A    between atoms: C_15  and  C_18
REMARK    8  A    between atoms: C_18  and  O_20
REMARK    9  A    between atoms: C_18  and  C_21
REMARK   10  A    between atoms: C_21  and  N_22
REMARK   11  A    between atoms: C_23  and  O_24
REMARK                            x       y       z     vdW  Elec       q    Type
REMARK                         _______ _______ _______ _____ _____    ______ ____
ROOT
ATOM      1  C   UNL     1       8.308  -3.528  25.415  0.00  0.00    +0.148 C 
ATOM      2  C   UNL     1       6.953  -4.019  26.009  0.00  0.00    +0.227 C 
ATOM      3  O   UNL     1       6.036  -4.605  25.051  0.00  0.00    -0.478 OA
ATOM      4  C   UNL     1       6.522  -5.148  23.885  0.00  0.00    +0.203 C 
ATOM      5  C   UNL     1       7.807  -5.118  23.519  0.00  0.00    +0.059 C 
ATOM      6  C   UNL     1       8.858  -4.462  24.323  0.00  0.00    +0.165 C 
ENDROOT
BRANCH   1   9
ATOM      7  C   UNL     1       8.575   0.260  25.124  0.00  0.00    +0.109 C 
ATOM      8  C   UNL     1       8.589  -1.091  25.773  0.00  0.00    +0.210 C 
ATOM      9  N   UNL     1       8.221  -2.129  24.945  0.00  0.00    -0.306 N 
ATOM     10  H   UNL     1       8.165  -1.942  23.950  0.00  0.00    +0.149 HD
ATOM     11  O   UNL     1       8.911  -1.260  26.945  0.00  0.00    -0.276 OA
ENDBRANCH   1   9
BRANCH   4  12
ATOM     12  C   UNL     1       5.544  -5.824  22.981  0.00  0.00    +0.372 C 
ATOM     13  O   UNL     1       5.283  -5.487  21.838  0.00  0.00    -0.242 OA
BRANCH  12  14
ATOM     14  O   UNL     1       4.957  -6.870  23.616  0.00  0.00    -0.475 OA
ATOM     15  H   UNL     1       4.417  -6.546  24.370  0.00  0.00    +0.296 HD
ENDBRANCH  12  14
ENDBRANCH   4  12
BRANCH   6  16
ATOM     16  O   UNL     1       9.638  -5.501  24.901  0.00  0.00    -0.386 OA
ATOM     17  H   UNL     1       9.837  -5.250  25.820  0.00  0.00    +0.210 HD
ENDBRANCH   6  16
BRANCH   2  18
ATOM     18  C   UNL     1       7.064  -4.951  27.251  0.00  0.00    +0.186 C 
BRANCH  18  19
ATOM     19  O   UNL     1       8.028  -5.984  26.917  0.00  0.00    -0.385 OA
ATOM     20  H   UNL     1       7.654  -6.813  27.281  0.00  0.00    +0.210 HD
ENDBRANCH  18  19
BRANCH  18  21
ATOM     21  C   UNL     1       5.752  -5.668  27.662  0.00  0.00    +0.160 C 
BRANCH  21  22
ATOM     22  O   UNL     1       5.538  -6.781  26.777  0.00  0.00    -0.388 OA
ATOM     23  H   UNL     1       6.356  -7.325  26.740  0.00  0.00    +0.210 HD
ENDBRANCH  21  22
BRANCH  21  24
ATOM     24  C   UNL     1       5.788  -6.268  29.088  0.00  0.00    +0.111 C 
BRANCH  24  25
ATOM     25  N   UNL     1       6.633  -7.451  29.232  0.00  0.00    -0.328 NA
ATOM     26  H   UNL     1       7.179  -7.350  30.089  0.00  0.00    +0.118 HD
ATOM     27  H   UNL     1       6.035  -8.262  29.401  0.00  0.00    +0.118 HD
ENDBRANCH  24  25
ENDBRANCH  21  24
ENDBRANCH  18  21
ENDBRANCH   2  18
TORSDOF 10
ENDMDL
MODEL 2
REMARK VINA RESULT:      -5.6      3.325      6.763
REMARK  Name = 
REMARK  11 active torsions:
REMARK  status: ('A' for Active; 'I' for Inactive)
REMARK    1  A    between atoms: C_1  and  C_2
REMARK    2  A    between atoms: N_4  and  C_5
REMARK    3  A    between atoms: C_7  and  O_9
REMARK    4  A    between atoms: C_11  and  C_23
REMARK    5  A    between atoms: C_13  and  C_15
REMARK    6  A    between atoms: C_15  and  O_17
REMARK    7  A    between atoms: C_15  and  C_18
REMARK    8  A    between atoms: C_18  and  O_20
REMARK    9  A    between atoms: C_18  and  C_21
REMARK   10  A    between atoms: C_21  and  N_22
REMARK   11  A    between atoms: C_23  and  O_24
REMARK                            x       y       z     vdW  Elec       q    Type
REMARK                         _______ _______ _______ _____ _____    ______ ____
ROOT
ATOM      1  C   UNL     1       7.943  -3.168  23.297  0.00  0.00    +0.148 C 
ATOM      2  C   UNL     1       7.662  -1.639  23.186  0.00  0.00    +0.227 C 
ATOM      3  O   UNL     1       7.520  -0.944  24.450  0.00  0.00    -0.478 OA
ATOM      4  C   UNL     1       8.097  -1.464  25.584  0.00  0.00    +0.203 C 
ATOM      5  C   UNL     1       8.746  -2.632  25.631  0.00  0.00    +0.059 C 
ATOM      6  C   UNL     1       8.887  -3.521  24.460  0.00  0.00    +0.165 C 
ENDROOT
BRANCH   1   9
ATOM      7  C   UNL     1       5.289  -5.867  22.883  0.00  0.00    +0.109 C 
ATOM      8  C   UNL     1       6.559  -5.112  22.628  0.00  0.00    +0.210 C 
ATOM      9  N   UNL     1       6.689  -3.948  23.355  0.00  0.00    -0.306 N 
ATOM     10  H   UNL     1       6.044  -3.796  24.122  0.00  0.00    +0.149 HD
ATOM     11  O   UNL     1       7.417  -5.503  21.843  0.00  0.00    -0.276 OA
ENDBRANCH   1   9
BRANCH   4  12
ATOM     12  C   UNL     1       8.001  -0.658  26.838  0.00  0.00    +0.372 C 
ATOM     13  O   UNL     1       6.989  -0.124  27.262  0.00  0.00    -0.242 OA
BRANCH  12  14
ATOM     14  O   UNL     1       9.212  -0.578  27.444  0.00  0.00    -0.475 OA
ATOM     15  H   UNL     1       9.897  -1.011  26.887  0.00  0.00    +0.296 HD
ENDBRANCH  12  14
ENDBRANCH   4  12
BRANCH   6  16
ATOM     16  O   UNL     1      10.245  -3.435  24.044  0.00  0.00    -0.386 OA
ATOM     17  H   UNL     1      10.600  -2.584  24.355  0.00  0.00    +0.210 HD
ENDBRANCH   6  16
BRANCH   2  18
ATOM     18  C   UNL     1       8.639  -0.843  22.270  0.00  0.00    +0.186 C 
BRANCH  18  19
ATOM     19  O   UNL     1       9.569  -1.806  21.710  0.00  0.00    -0.385 OA
ATOM     20  H   UNL     1       9.962  -2.265  22.481  0.00  0.00    +0.210 HD
ENDBRANCH  18  19
BRANCH  18  21
ATOM     21  C   UNL     1       9.484   0.243  22.985  0.00  0.00    +0.160 C 
BRANCH  21  22
ATOM     22  O   UNL     1      10.617  -0.389  23.604  0.00  0.00    -0.388 OA
ATOM     23  H   UNL     1      10.330  -1.233  24.019  0.00  0.00    +0.210 HD
ENDBRANCH  21  22
BRANCH  21  24
ATOM     24  C   UNL     1      10.069   1.310  22.030  0.00  0.00    +0.111 C 
BRANCH  24  25
ATOM     25  N   UNL     1       9.105   2.302  21.558  0.00  0.00    -0.328 NA
ATOM     26  H   UNL     1       9.310   3.189  22.020  0.00  0.00    +0.118 HD
ATOM     27  H   UNL     1       9.278   2.480  20.567  0.00  0.00    +0.118 HD
ENDBRANCH  24  25
ENDBRANCH  21  24
ENDBRANCH  18  21
ENDBRANCH   2  18
TORSDOF 10
ENDMDL
MODEL 3
REMARK VINA RESULT:      -5.5      2.833      4.663
REMARK  Name = 
REMARK  11 active torsions:
REMARK  status: ('A' for Active; 'I' for Inactive)
REMARK    1  A    between atoms: C_1  and  C_2
REMARK    2  A    between atoms: N_4  and  C_5
REMARK    3  A    between atoms: C_7  and  O_9
REMARK    4  A    between atoms: C_11  and  C_23
REMARK    5  A    between atoms: C_13  and  C_15
REMARK    6  A    between atoms: C_15  and  O_17
REMARK    7  A    between atoms: C_15  and  C_18
REMARK    8  A    between atoms: C_18  and  O_20
REMARK    9  A    between atoms: C_18  and  C_21
REMARK   10  A    between atoms: C_21  and  N_22
REMARK   11  A    between atoms: C_23  and  O_24
REMARK                            x       y       z     vdW  Elec       q    Type
REMARK                         _______ _______ _______ _____ _____    ______ ____
ROOT
ATOM      1  C   UNL     1       7.654  -1.597  23.022  0.00  0.00    +0.148 C 
ATOM      2  C   UNL     1       7.789  -3.087  22.584  0.00  0.00    +0.227 C 
ATOM      3  O   UNL     1       8.541  -3.930  23.492  0.00  0.00    -0.478 OA
ATOM      4  C   UNL     1       8.649  -3.583  24.817  0.00  0.00    +0.203 C 
ATOM      5  C   UNL     1       8.155  -2.457  25.343  0.00  0.00    +0.059 C 
ATOM      6  C   UNL     1       7.458  -1.433  24.539  0.00  0.00    +0.165 C 
ENDROOT
BRANCH   1   9
ATOM      7  C   UNL     1       9.853   1.287  21.858  0.00  0.00    +0.109 C 
ATOM      8  C   UNL     1       8.598   0.552  22.223  0.00  0.00    +0.210 C 
ATOM      9  N   UNL     1       8.782  -0.781  22.526  0.00  0.00    -0.306 N 
ATOM     10  H   UNL     1       9.732  -1.104  22.671  0.00  0.00    +0.149 HD
ATOM     11  O   UNL     1       7.498   1.094  22.258  0.00  0.00    -0.276 OA
ENDBRANCH   1   9
BRANCH   4  12
ATOM     12  C   UNL     1       9.353  -4.538  25.725  0.00  0.00    +0.372 C 
ATOM     13  O   UNL     1       9.129  -4.680  26.916  0.00  0.00    -0.242 OA
BRANCH  12  14
ATOM     14  O   UNL     1      10.305  -5.224  25.044  0.00  0.00    -0.475 OA
ATOM     15  H   UNL     1      11.196  -4.996  25.390  0.00  0.00    +0.296 HD
ENDBRANCH  12  14
ENDBRANCH   4  12
BRANCH   6  16
ATOM     16  O   UNL     1       6.078  -1.520  24.876  0.00  0.00    -0.386 OA
ATOM     17  H   UNL     1       5.575  -1.629  24.050  0.00  0.00    +0.210 HD
ENDBRANCH   6  16
BRANCH   2  18
ATOM     18  C   UNL     1       6.455  -3.797  22.209  0.00  0.00    +0.186 C 
BRANCH  18  19
ATOM     19  O   UNL     1       5.443  -2.763  22.099  0.00  0.00    -0.385 OA
ATOM     20  H   UNL     1       4.605  -3.239  21.923  0.00  0.00    +0.210 HD
ENDBRANCH  18  19
BRANCH  18  21
ATOM     21  C   UNL     1       5.939  -4.831  23.244  0.00  0.00    +0.160 C 
BRANCH  21  22
ATOM     22  O   UNL     1       5.157  -4.141  24.233  0.00  0.00    -0.388 OA
ATOM     23  H   UNL     1       5.677  -4.073  25.065  0.00  0.00    +0.210 HD
ENDBRANCH  21  22
BRANCH  21  24
ATOM     24  C   UNL     1       5.001  -5.903  22.642  0.00  0.00    +0.111 C 
BRANCH  24  25
ATOM     25  N   UNL     1       4.742  -7.048  23.513  0.00  0.00    -0.328 NA
ATOM     26  H   UNL     1       3.781  -7.355  23.357  0.00  0.00    +0.118 HD
ATOM     27  H   UNL     1       5.318  -7.832  23.202  0.00  0.00    +0.118 HD
ENDBRANCH  24  25
ENDBRANCH  21  24
ENDBRANCH  18  21
ENDBRANCH   2  18
TORSDOF 10
ENDMDL
MODEL 4
REMARK VINA RESULT:      -5.4      1.872      2.322
REMARK  Name = 
REMARK  11 active torsions:
REMARK  status: ('A' for Active; 'I' for Inactive)
REMARK    1  A    between atoms: C_1  and  C_2
REMARK    2  A    between atoms: N_4  and  C_5
REMARK    3  A    between atoms: C_7  and  O_9
REMARK    4  A    between atoms: C_11  and  C_23
REMARK    5  A    between atoms: C_13  and  C_15
REMARK    6  A    between atoms: C_15  and  O_17
REMARK    7  A    between atoms: C_15  and  C_18
REMARK    8  A    between atoms: C_18  and  O_20
REMARK    9  A    between atoms: C_18  and  C_21
REMARK   10  A    between atoms: C_21  and  N_22
REMARK   11  A    between atoms: C_23  and  O_24
REMARK                            x       y       z     vdW  Elec       q    Type
REMARK                         _______ _______ _______ _____ _____    ______ ____
ROOT
ATOM      1  C   UNL     1       8.500  -1.693  24.673  0.00  0.00    +0.148 C 
ATOM      2  C   UNL     1       7.141  -2.088  25.326  0.00  0.00    +0.227 C 
ATOM      3  O   UNL     1       6.130  -2.569  24.405  0.00  0.00    -0.478 OA
ATOM      4  C   UNL     1       6.507  -3.114  23.201  0.00  0.00    +0.203 C 
ATOM      5  C   UNL     1       7.769  -3.180  22.766  0.00  0.00    +0.059 C 
ATOM      6  C   UNL     1       8.912  -2.636  23.528  0.00  0.00    +0.165 C 
ENDROOT
BRANCH   1   9
ATOM      7  C   UNL     1       9.513   1.900  23.920  0.00  0.00    +0.109 C 
ATOM      8  C   UNL     1       9.584   0.532  24.527  0.00  0.00    +0.210 C 
ATOM      9  N   UNL     1       8.505  -0.278  24.244  0.00  0.00    -0.306 N 
ATOM     10  H   UNL     1       7.869   0.022  23.515  0.00  0.00    +0.149 HD
ATOM     11  O   UNL     1      10.531   0.158  25.213  0.00  0.00    -0.276 OA
ENDBRANCH   1   9
BRANCH   4  12
ATOM     12  C   UNL     1       5.430  -3.681  22.335  0.00  0.00    +0.372 C 
ATOM     13  O   UNL     1       4.411  -4.222  22.732  0.00  0.00    -0.242 OA
BRANCH  12  14
ATOM     14  O   UNL     1       5.748  -3.530  21.024  0.00  0.00    -0.475 OA
ATOM     15  H   UNL     1       5.478  -4.328  20.518  0.00  0.00    +0.296 HD
ENDBRANCH  12  14
ENDBRANCH   4  12
BRANCH   6  16
ATOM     16  O   UNL     1       9.631  -3.753  24.037  0.00  0.00    -0.386 OA
ATOM     17  H   UNL     1      10.116  -4.158  23.298  0.00  0.00    +0.210 HD
ENDBRANCH   6  16
BRANCH   2  18
ATOM     18  C   UNL     1       7.239  -3.063  26.536  0.00  0.00    +0.186 C 
BRANCH  18  19
ATOM     19  O   UNL     1       8.649  -3.341  26.740  0.00  0.00    -0.385 OA
ATOM     20  H   UNL     1       9.060  -2.472  26.928  0.00  0.00    +0.210 HD
ENDBRANCH  18  19
BRANCH  18  21
ATOM     21  C   UNL     1       6.529  -4.430  26.347  0.00  0.00    +0.160 C 
BRANCH  21  22
ATOM     22  O   UNL     1       7.347  -5.262  25.508  0.00  0.00    -0.388 OA
ATOM     23  H   UNL     1       6.953  -6.161  25.462  0.00  0.00    +0.210 HD
ENDBRANCH  21  22
BRANCH  21  24
ATOM     24  C   UNL     1       6.337  -5.221  27.662  0.00  0.00    +0.111 C 
BRANCH  24  25
ATOM     25  N   UNL     1       7.424  -6.144  27.984  0.00  0.00    -0.328 NA
ATOM     26  H   UNL     1       8.307  -5.640  27.888  0.00  0.00    +0.118 HD
ATOM     27  H   UNL     1       7.369  -6.380  28.977  0.00  0.00    +0.118 HD
ENDBRANCH  24  25
ENDBRANCH  21  24
ENDBRANCH  18  21
ENDBRANCH   2  18
TORSDOF 10
ENDMDL
MODEL 5
REMARK VINA RESULT:      -5.3      5.068      7.242
REMARK  Name = 
REMARK  11 active torsions:
REMARK  status: ('A' for Active; 'I' for Inactive)
REMARK    1  A    between atoms: C_1  and  C_2
REMARK    2  A    between atoms: N_4  and  C_5
REMARK    3  A    between atoms: C_7  and  O_9
REMARK    4  A    between atoms: C_11  and  C_23
REMARK    5  A    between atoms: C_13  and  C_15
REMARK    6  A    between atoms: C_15  and  O_17
REMARK    7  A    between atoms: C_15  and  C_18
REMARK    8  A    between atoms: C_18  and  O_20
REMARK    9  A    between atoms: C_18  and  C_21
REMARK   10  A    between atoms: C_21  and  N_22
REMARK   11  A    between atoms: C_23  and  O_24
REMARK                            x       y       z     vdW  Elec       q    Type
REMARK                         _______ _______ _______ _____ _____    ______ ____
ROOT
ATOM      1  C   UNL     1       9.298   2.670  23.046  0.00  0.00    +0.148 C 
ATOM      2  C   UNL     1       9.094   1.712  24.258  0.00  0.00    +0.227 C 
ATOM      3  O   UNL     1       7.724   1.574  24.712  0.00  0.00    -0.478 OA
ATOM      4  C   UNL     1       6.688   1.827  23.844  0.00  0.00    +0.203 C 
ATOM      5  C   UNL     1       6.846   2.270  22.592  0.00  0.00    +0.059 C 
ATOM      6  C   UNL     1       8.167   2.571  22.006  0.00  0.00    +0.165 C 
ENDROOT
BRANCH   1   9
ATOM      7  C   UNL     1      10.856   6.037  23.908  0.00  0.00    +0.109 C 
ATOM      8  C   UNL     1      10.792   4.576  23.578  0.00  0.00    +0.210 C 
ATOM      9  N   UNL     1       9.515   4.065  23.486  0.00  0.00    -0.306 N 
ATOM     10  H   UNL     1       8.745   4.723  23.449  0.00  0.00    +0.149 HD
ATOM     11  O   UNL     1      11.794   3.892  23.395  0.00  0.00    -0.276 OA
ENDBRANCH   1   9
BRANCH   4  12
ATOM     12  C   UNL     1       5.300   1.576  24.336  0.00  0.00    +0.372 C 
ATOM     13  O   UNL     1       4.994   0.807  25.232  0.00  0.00    -0.242 OA
BRANCH  12  14
ATOM     14  O   UNL     1       4.406   2.312  23.628  0.00  0.00    -0.475 OA
ATOM     15  H   UNL     1       4.877   2.984  23.088  0.00  0.00    +0.296 HD
ENDBRANCH  12  14
ENDBRANCH   4  12
BRANCH   6  16
ATOM     16  O   UNL     1       8.442   1.538  21.068  0.00  0.00    -0.386 OA
ATOM     17  H   UNL     1       8.083   0.707  21.424  0.00  0.00    +0.210 HD
ENDBRANCH   6  16
BRANCH   2  18
ATOM     18  C   UNL     1       9.731   0.299  24.109  0.00  0.00    +0.186 C 
BRANCH  18  19
ATOM     19  O   UNL     1      10.466   0.298  22.858  0.00  0.00    -0.385 OA
ATOM     20  H   UNL     1      10.981  -0.535  22.861  0.00  0.00    +0.210 HD
ENDBRANCH  18  19
BRANCH  18  21
ATOM     21  C   UNL     1       8.724  -0.880  24.047  0.00  0.00    +0.160 C 
BRANCH  21  22
ATOM     22  O   UNL     1       8.168  -0.941  22.722  0.00  0.00    -0.388 OA
ATOM     23  H   UNL     1       7.744  -1.818  22.591  0.00  0.00    +0.210 HD
ENDBRANCH  21  22
BRANCH  21  24
ATOM     24  C   UNL     1       9.367  -2.264  24.296  0.00  0.00    +0.111 C 
BRANCH  24  25
ATOM     25  N   UNL     1      10.344  -2.674  23.290  0.00  0.00    -0.328 NA
ATOM     26  H   UNL     1      10.388  -1.947  22.574  0.00  0.00    +0.118 HD
ATOM     27  H   UNL     1      11.273  -2.672  23.716  0.00  0.00    +0.118 HD
ENDBRANCH  24  25
ENDBRANCH  21  24
ENDBRANCH  18  21
ENDBRANCH   2  18
TORSDOF 10
ENDMDL
MODEL 6
REMARK VINA RESULT:      -5.2      3.545      6.824
REMARK  Name = 
REMARK  11 active torsions:
REMARK  status: ('A' for Active; 'I' for Inactive)
REMARK    1  A    between atoms: C_1  and  C_2
REMARK    2  A    between atoms: N_4  and  C_5
REMARK    3  A    between atoms: C_7  and  O_9
REMARK    4  A    between atoms: C_11  and  C_23
REMARK    5  A    between atoms: C_13  and  C_15
REMARK    6  A    between atoms: C_15  and  O_17
REMARK    7  A    between atoms: C_15  and  C_18
REMARK    8  A    between atoms: C_18  and  O_20
REMARK    9  A    between atoms: C_18  and  C_21
REMARK   10  A    between atoms: C_21  and  N_22
REMARK   11  A    between atoms: C_23  and  O_24
REMARK                            x       y       z     vdW  Elec       q    Type
REMARK                         _______ _______ _______ _____ _____    ______ ____
ROOT
ATOM      1  C   UNL     1       8.103  -2.802  23.052  0.00  0.00    +0.148 C 
ATOM      2  C   UNL     1       8.297  -1.354  22.509  0.00  0.00    +0.227 C 
ATOM      3  O   UNL     1       7.327  -0.384  22.977  0.00  0.00    -0.478 OA
ATOM      4  C   UNL     1       6.664  -0.598  24.161  0.00  0.00    +0.203 C 
ATOM      5  C   UNL     1       6.795  -1.699  24.909  0.00  0.00    +0.059 C 
ATOM      6  C   UNL     1       7.656  -2.835  24.524  0.00  0.00    +0.165 C 
ENDROOT
BRANCH   1   9
ATOM      7  C   UNL     1       6.174  -5.634  21.390  0.00  0.00    +0.109 C 
ATOM      8  C   UNL     1       7.233  -4.967  22.215  0.00  0.00    +0.210 C 
ATOM      9  N   UNL     1       7.198  -3.589  22.188  0.00  0.00    -0.306 N 
ATOM     10  H   UNL     1       6.375  -3.146  21.795  0.00  0.00    +0.149 HD
ATOM     11  O   UNL     1       8.059  -5.597  22.870  0.00  0.00    -0.276 OA
ENDBRANCH   1   9
BRANCH   4  12
ATOM     12  C   UNL     1       5.748   0.479  24.643  0.00  0.00    +0.372 C 
ATOM     13  O   UNL     1       4.853   0.337  25.460  0.00  0.00    -0.242 OA
BRANCH  12  14
ATOM     14  O   UNL     1       6.032   1.654  24.025  0.00  0.00    -0.475 OA
ATOM     15  H   UNL     1       7.006   1.780  23.974  0.00  0.00    +0.296 HD
ENDBRANCH  12  14
ENDBRANCH   4  12
BRANCH   6  16
ATOM     16  O   UNL     1       8.785  -2.803  25.389  0.00  0.00    -0.386 OA
ATOM     17  H   UNL     1       8.636  -2.106  26.051  0.00  0.00    +0.210 HD
ENDBRANCH   6  16
BRANCH   2  18
ATOM     18  C   UNL     1       9.730  -0.766  22.668  0.00  0.00    +0.186 C 
BRANCH  18  19
ATOM     19  O   UNL     1       9.909  -0.469  24.078  0.00  0.00    -0.385 OA
ATOM     20  H   UNL     1      10.840  -0.176  24.164  0.00  0.00    +0.210 HD
ENDBRANCH  18  19
BRANCH  18  21
ATOM     21  C   UNL     1       9.999   0.549  21.889  0.00  0.00    +0.160 C 
BRANCH  21  22
ATOM     22  O   UNL     1       8.900   0.785  20.992  0.00  0.00    -0.388 OA
ATOM     23  H   UNL     1       8.069   0.465  21.408  0.00  0.00    +0.210 HD
ENDBRANCH  21  22
BRANCH  21  24
ATOM     24  C   UNL     1      10.083   1.803  22.789  0.00  0.00    +0.111 C 
BRANCH  24  25
ATOM     25  N   UNL     1       8.795   2.290  23.280  0.00  0.00    -0.328 NA
ATOM     26  H   UNL     1       8.124   1.522  23.230  0.00  0.00    +0.118 HD
ATOM     27  H   UNL     1       8.881   2.493  24.278  0.00  0.00    +0.118 HD
ENDBRANCH  24  25
ENDBRANCH  21  24
ENDBRANCH  18  21
ENDBRANCH   2  18
TORSDOF 10
ENDMDL
MODEL 7
REMARK VINA RESULT:      -4.9      2.242      2.621
REMARK  Name = 
REMARK  11 active torsions:
REMARK  status: ('A' for Active; 'I' for Inactive)
REMARK    1  A    between atoms: C_1  and  C_2
REMARK    2  A    between atoms: N_4  and  C_5
REMARK    3  A    between atoms: C_7  and  O_9
REMARK    4  A    between atoms: C_11  and  C_23
REMARK    5  A    between atoms: C_13  and  C_15
REMARK    6  A    between atoms: C_15  and  O_17
REMARK    7  A    between atoms: C_15  and  C_18
REMARK    8  A    between atoms: C_18  and  O_20
REMARK    9  A    between atoms: C_18  and  C_21
REMARK   10  A    between atoms: C_21  and  N_22
REMARK   11  A    between atoms: C_23  and  O_24
REMARK                            x       y       z     vdW  Elec       q    Type
REMARK                         _______ _______ _______ _____ _____    ______ ____
ROOT
ATOM      1  C   UNL     1       8.681  -2.993  25.190  0.00  0.00    +0.148 C 
ATOM      2  C   UNL     1       7.137  -2.816  25.077  0.00  0.00    +0.227 C 
ATOM      3  O   UNL     1       6.508  -3.552  23.997  0.00  0.00    -0.478 OA
ATOM      4  C   UNL     1       7.117  -4.676  23.492  0.00  0.00    +0.203 C 
ATOM      5  C   UNL     1       8.315  -5.123  23.883  0.00  0.00    +0.059 C 
ATOM      6  C   UNL     1       9.142  -4.431  24.892  0.00  0.00    +0.165 C 
ENDROOT
BRANCH   1   9
ATOM      7  C   UNL     1      10.568   0.084  23.977  0.00  0.00    +0.109 C 
ATOM      8  C   UNL     1       9.722  -0.765  24.876  0.00  0.00    +0.210 C 
ATOM      9  N   UNL     1       9.404  -2.005  24.363  0.00  0.00    -0.306 N 
ATOM     10  H   UNL     1       9.908  -2.318  23.541  0.00  0.00    +0.149 HD
ATOM     11  O   UNL     1       9.350  -0.392  25.985  0.00  0.00    -0.276 OA
ENDBRANCH   1   9
BRANCH   4  12
ATOM     12  C   UNL     1       6.379  -5.449  22.449  0.00  0.00    +0.372 C 
ATOM     13  O   UNL     1       6.818  -6.407  21.833  0.00  0.00    -0.242 OA
BRANCH  12  14
ATOM     14  O   UNL     1       5.142  -4.925  22.257  0.00  0.00    -0.475 OA
ATOM     15  H   UNL     1       5.177  -4.224  21.569  0.00  0.00    +0.296 HD
ENDBRANCH  12  14
ENDBRANCH   4  12
BRANCH   6  16
ATOM     16  O   UNL     1       9.096  -5.224  26.072  0.00  0.00    -0.386 OA
ATOM     17  H   UNL     1       9.652  -6.009  25.927  0.00  0.00    +0.210 HD
ENDBRANCH   6  16
BRANCH   2  18
ATOM     18  C   UNL     1       6.337  -3.049  26.392  0.00  0.00    +0.186 C 
BRANCH  18  19
ATOM     19  O   UNL     1       6.286  -4.485  26.604  0.00  0.00    -0.385 OA
ATOM     20  H   UNL     1       6.306  -4.879  25.708  0.00  0.00    +0.210 HD
ENDBRANCH  18  19
BRANCH  18  21
ATOM     21  C   UNL     1       4.872  -2.539  26.378  0.00  0.00    +0.160 C 
BRANCH  21  22
ATOM     22  O   UNL     1       4.692  -1.686  25.235  0.00  0.00    -0.388 OA
ATOM     23  H   UNL     1       3.745  -1.429  25.170  0.00  0.00    +0.210 HD
ENDBRANCH  21  22
BRANCH  21  24
ATOM     24  C   UNL     1       3.820  -3.664  26.232  0.00  0.00    +0.111 C 
BRANCH  24  25
ATOM     25  N   UNL     1       3.734  -4.250  24.896  0.00  0.00    -0.328 NA
ATOM     26  H   UNL     1       4.199  -5.158  24.917  0.00  0.00    +0.118 HD
ATOM     27  H   UNL     1       2.755  -4.466  24.696  0.00  0.00    +0.118 HD
ENDBRANCH  24  25
ENDBRANCH  21  24
ENDBRANCH  18  21
ENDBRANCH   2  18
TORSDOF 10
ENDMDL
MODEL 8
REMARK VINA RESULT:      -4.9      3.689      4.426
REMARK  Name = 
REMARK  11 active torsions:
REMARK  status: ('A' for Active; 'I' for Inactive)
REMARK    1  A    between atoms: C_1  and  C_2
REMARK    2  A    between atoms: N_4  and  C_5
REMARK    3  A    between atoms: C_7  and  O_9
REMARK    4  A    between atoms: C_11  and  C_23
REMARK    5  A    between atoms: C_13  and  C_15
REMARK    6  A    between atoms: C_15  and  O_17
REMARK    7  A    between atoms: C_15  and  C_18
REMARK    8  A    between atoms: C_18  and  O_20
REMARK    9  A    between atoms: C_18  and  C_21
REMARK   10  A    between atoms: C_21  and  N_22
REMARK   11  A    between atoms: C_23  and  O_24
REMARK                            x       y       z     vdW  Elec       q    Type
REMARK                         _______ _______ _______ _____ _____    ______ ____
ROOT
ATOM      1  C   UNL     1       8.738  -1.288  23.872  0.00  0.00    +0.148 C 
ATOM      2  C   UNL     1       7.322  -1.214  24.520  0.00  0.00    +0.227 C 
ATOM      3  O   UNL     1       6.271  -1.889  23.784  0.00  0.00    -0.478 OA
ATOM      4  C   UNL     1       6.589  -2.912  22.923  0.00  0.00    +0.203 C 
ATOM      5  C   UNL     1       7.837  -3.305  22.649  0.00  0.00    +0.059 C 
ATOM      6  C   UNL     1       9.030  -2.653  23.225  0.00  0.00    +0.165 C 
ENDROOT
BRANCH   1   9
ATOM      7  C   UNL     1      10.066   1.832  22.137  0.00  0.00    +0.109 C 
ATOM      8  C   UNL     1       9.837   0.843  23.240  0.00  0.00    +0.210 C 
ATOM      9  N   UNL     1       8.961  -0.174  22.925  0.00  0.00    -0.306 N 
ATOM     10  H   UNL     1       8.703  -0.290  21.952  0.00  0.00    +0.149 HD
ATOM     11  O   UNL     1      10.392   0.926  24.332  0.00  0.00    -0.276 OA
ENDBRANCH   1   9
BRANCH   4  12
ATOM     12  C   UNL     1       5.459  -3.635  22.265  0.00  0.00    +0.372 C 
ATOM     13  O   UNL     1       4.479  -4.087  22.834  0.00  0.00    -0.242 OA
BRANCH  12  14
ATOM     14  O   UNL     1       5.680  -3.744  20.931  0.00  0.00    -0.475 OA
ATOM     15  H   UNL     1       4.903  -3.406  20.432  0.00  0.00    +0.296 HD
ENDBRANCH  12  14
ENDBRANCH   4  12
BRANCH   6  16
ATOM     16  O   UNL     1       9.566  -3.555  24.185  0.00  0.00    -0.386 OA
ATOM     17  H   UNL     1       9.149  -4.423  24.045  0.00  0.00    +0.210 HD
ENDBRANCH   6  16
BRANCH   2  18
ATOM     18  C   UNL     1       7.248  -1.629  26.018  0.00  0.00    +0.186 C 
BRANCH  18  19
ATOM     19  O   UNL     1       5.911  -2.147  26.247  0.00  0.00    -0.385 OA
ATOM     20  H   UNL     1       6.024  -2.879  26.888  0.00  0.00    +0.210 HD
ENDBRANCH  18  19
BRANCH  18  21
ATOM     21  C   UNL     1       7.472  -0.481  27.037  0.00  0.00    +0.160 C 
BRANCH  21  22
ATOM     22  O   UNL     1       8.884  -0.331  27.258  0.00  0.00    -0.388 OA
ATOM     23  H   UNL     1       9.312  -1.215  27.227  0.00  0.00    +0.210 HD
ENDBRANCH  21  22
BRANCH  21  24
ATOM     24  C   UNL     1       6.975   0.898  26.545  0.00  0.00    +0.111 C 
BRANCH  24  25
ATOM     25  N   UNL     1       8.036   1.832  26.172  0.00  0.00    -0.328 NA
ATOM     26  H   UNL     1       8.924   1.454  26.506  0.00  0.00    +0.118 HD
ATOM     27  H   UNL     1       8.124   1.837  25.155  0.00  0.00    +0.118 HD
ENDBRANCH  24  25
ENDBRANCH  21  24
ENDBRANCH  18  21
ENDBRANCH   2  18
TORSDOF 10
ENDMDL
MODEL 9
REMARK VINA RESULT:      -4.9      4.594      6.452
REMARK  Name = 
REMARK  11 active torsions:
REMARK  status: ('A' for Active; 'I' for Inactive)
REMARK    1  A    between atoms: C_1  and  C_2
REMARK    2  A    between atoms: N_4  and  C_5
REMARK    3  A    between atoms: C_7  and  O_9
REMARK    4  A    between atoms: C_11  and  C_23
REMARK    5  A    between atoms: C_13  and  C_15
REMARK    6  A    between atoms: C_15  and  O_17
REMARK    7  A    between atoms: C_15  and  C_18
REMARK    8  A    between atoms: C_18  and  O_20
REMARK    9  A    between atoms: C_18  and  C_21
REMARK   10  A    between atoms: C_21  and  N_22
REMARK   11  A    between atoms: C_23  and  O_24
REMARK                            x       y       z     vdW  Elec       q    Type
REMARK                         _______ _______ _______ _____ _____    ______ ____
ROOT
ATOM      1  C   UNL     1       7.171   2.248  23.163  0.00  0.00    +0.148 C 
ATOM      2  C   UNL     1       7.206   1.057  24.168  0.00  0.00    +0.227 C 
ATOM      3  O   UNL     1       7.607  -0.216  23.601  0.00  0.00    -0.478 OA
ATOM      4  C   UNL     1       8.375  -0.245  22.462  0.00  0.00    +0.203 C 
ATOM      5  C   UNL     1       8.739   0.841  21.771  0.00  0.00    +0.059 C 
ATOM      6  C   UNL     1       8.323   2.208  22.144  0.00  0.00    +0.165 C 
ENDROOT
BRANCH   1   9
ATOM      7  C   UNL     1       3.693   3.369  22.090  0.00  0.00    +0.109 C 
ATOM      8  C   UNL     1       4.925   3.275  22.938  0.00  0.00    +0.210 C 
ATOM      9  N   UNL     1       5.856   2.359  22.496  0.00  0.00    -0.306 N 
ATOM     10  H   UNL     1       5.738   1.978  21.564  0.00  0.00    +0.149 HD
ATOM     11  O   UNL     1       5.097   3.964  23.939  0.00  0.00    -0.276 OA
ENDBRANCH   1   9
BRANCH   4  12
ATOM     12  C   UNL     1       8.839  -1.580  21.978  0.00  0.00    +0.372 C 
ATOM     13  O   UNL     1       8.243  -2.634  22.123  0.00  0.00    -0.242 OA
BRANCH  12  14
ATOM     14  O   UNL     1      10.044  -1.467  21.363  0.00  0.00    -0.475 OA
ATOM     15  H   UNL     1       9.917  -1.262  20.410  0.00  0.00    +0.296 HD
ENDBRANCH  12  14
ENDBRANCH   4  12
BRANCH   6  16
ATOM     16  O   UNL     1       9.476   2.855  22.669  0.00  0.00    -0.386 OA
ATOM     17  H   UNL     1       9.974   3.232  21.923  0.00  0.00    +0.210 HD
ENDBRANCH   6  16
BRANCH   2  18
ATOM     18  C   UNL     1       8.005   1.311  25.479  0.00  0.00    +0.186 C 
BRANCH  18  19
ATOM     19  O   UNL     1       9.410   1.135  25.157  0.00  0.00    -0.385 OA
ATOM     20  H   UNL     1       9.718   2.014  24.854  0.00  0.00    +0.210 HD
ENDBRANCH  18  19
BRANCH  18  21
ATOM     21  C   UNL     1       7.683   0.346  26.650  0.00  0.00    +0.160 C 
BRANCH  21  22
ATOM     22  O   UNL     1       6.448  -0.332  26.362  0.00  0.00    -0.388 OA
ATOM     23  H   UNL     1       6.477  -0.678  25.443  0.00  0.00    +0.210 HD
ENDBRANCH  21  22
BRANCH  21  24
ATOM     24  C   UNL     1       8.736  -0.769  26.850  0.00  0.00    +0.111 C 
BRANCH  24  25
ATOM     25  N   UNL     1       8.695  -1.835  25.851  0.00  0.00    -0.328 NA
ATOM     26  H   UNL     1       9.125  -2.667  26.257  0.00  0.00    +0.118 HD
ATOM     27  H   UNL     1       7.720  -2.098  25.694  0.00  0.00    +0.118 HD
ENDBRANCH  24  25
ENDBRANCH  21  24
ENDBRANCH  18  21
ENDBRANCH   2  18
TORSDOF 10
ENDMDL
