MODEL 1
REMARK VINA RESULT:      -5.9      0.000      0.000
REMARK  Name = 
REMARK  12 active torsions:
REMARK  status: ('A' for Active; 'I' for Inactive)
REMARK    1  A    between atoms: N_6  and  C_7
REMARK    2  A    between atoms: C_7  and  C_8
REMARK    3  A    between atoms: C_8  and  C_9
REMARK    4  A    between atoms: C_9  and  C_10
REMARK    5  A    between atoms: C_10  and  C_11
REMARK    6  A    between atoms: C_11  and  C_12
REMARK    7  A    between atoms: C_12  and  C_13
REMARK    8  A    between atoms: C_13  and  C_14
REMARK    9  A    between atoms: C_16  and  O_18
REMARK   10  A    between atoms: C_19  and  O_21
REMARK   11  A    between atoms: C_22  and  O_24
REMARK   12  A    between atoms: C_25  and  O_27
REMARK                            x       y       z     vdW  Elec       q    Type
REMARK                         _______ _______ _______ _____ _____    ______ ____
ROOT
ATOM      1  C   UNL     1       8.238  -4.175  25.154  0.00  0.00    +0.149 C 
ATOM      2  C   UNL     1       7.687  -5.496  25.644  0.00  0.00    +0.169 C 
ATOM      3  C   UNL     1       6.171  -5.314  25.773  0.00  0.00    +0.177 C 
ATOM      4  C   UNL     1       5.500  -4.857  24.469  0.00  0.00    +0.192 C 
ATOM      5  C   UNL     1       6.311  -3.842  23.608  0.00  0.00    +0.238 C 
ATOM      6  N   UNL     1       7.726  -3.859  23.840  0.00  0.00    -0.249 N 
ATOM      7  C   UNL     1       8.613  -2.992  23.251  0.00  0.00    +0.283 C 
ATOM      8  N   UNL     1       8.369  -2.210  22.269  0.00  0.00    -0.237 NA
ATOM      9  O   UNL     1       9.828  -3.073  23.876  0.00  0.00    -0.464 OA
ATOM     10  C   UNL     1       9.725  -4.115  24.875  0.00  0.00    +0.257 C 
ENDROOT
BRANCH   2  11
ATOM     11  O   UNL     1       8.253  -5.807  26.920  0.00  0.00    -0.387 OA
ATOM     12  H   UNL     1       8.291  -6.785  26.963  0.00  0.00    +0.210 HD
ENDBRANCH   2  11
BRANCH   3  13
ATOM     13  O   UNL     1       5.602  -6.564  26.207  0.00  0.00    -0.386 OA
ATOM     14  H   UNL     1       4.763  -6.663  25.713  0.00  0.00    +0.210 HD
ENDBRANCH   3  13
BRANCH   4  15
ATOM     15  O   UNL     1       4.215  -4.305  24.845  0.00  0.00    -0.385 OA
ATOM     16  H   UNL     1       4.186  -4.292  25.821  0.00  0.00    +0.210 HD
ENDBRANCH   4  15
BRANCH   5  17
ATOM     17  O   UNL     1       6.094  -4.249  22.263  0.00  0.00    -0.371 OA
ATOM     18  H   UNL     1       6.983  -4.198  21.866  0.00  0.00    +0.212 HD
ENDBRANCH   5  17
BRANCH   8  19
ATOM     19  C   UNL     1       9.471  -1.360  21.819  0.00  0.00    +0.147 C 
BRANCH  19  20
ATOM     20  C   UNL     1       8.897   0.033  21.546  0.00  0.00    +0.023 C 
BRANCH  20  21
ATOM     21  C   UNL     1       9.907   1.140  21.846  0.00  0.00    +0.002 C 
BRANCH  21  22
ATOM     22  C   UNL     1       9.651   1.770  23.219  0.00  0.00    +0.000 C 
BRANCH  22  23
ATOM     23  C   UNL     1      10.780   1.448  24.200  0.00  0.00    -0.000 C 
BRANCH  23  24
ATOM     24  C   UNL     1      10.478   0.186  25.011  0.00  0.00    -0.000 C 
BRANCH  24  25
ATOM     25  C   UNL     1       8.991   0.097  25.360  0.00  0.00    -0.003 C 
ATOM     26  C   UNL     1       8.753  -0.783  26.577  0.00  0.00    +0.004 C 
ENDBRANCH  24  25
ENDBRANCH  23  24
ENDBRANCH  22  23
ENDBRANCH  21  22
ENDBRANCH  20  21
ENDBRANCH  19  20
ENDBRANCH   8  19
TORSDOF 11
ENDMDL
MODEL 2
REMARK VINA RESULT:      -5.8      1.661      2.571
REMARK  Name = 
REMARK  12 active torsions:
REMARK  status: ('A' for Active; 'I' for Inactive)
REMARK    1  A    between atoms: N_6  and  C_7
REMARK    2  A    between atoms: C_7  and  C_8
REMARK    3  A    between atoms: C_8  and  C_9
REMARK    4  A    between atoms: C_9  and  C_10
REMARK    5  A    between atoms: C_10  and  C_11
REMARK    6  A    between atoms: C_11  and  C_12
REMARK    7  A    between atoms: C_12  and  C_13
REMARK    8  A    between atoms: C_13  and  C_14
REMARK    9  A    between atoms: C_16  and  O_18
REMARK   10  A    between atoms: C_19  and  O_21
REMARK   11  A    between atoms: C_22  and  O_24
REMARK   12  A    between atoms: C_25  and  O_27
REMARK                            x       y       z     vdW  Elec       q    Type
REMARK                         _______ _______ _______ _____ _____    ______ ____
ROOT
ATOM      1  C   UNL     1       6.256  -5.072  25.646  0.00  0.00    +0.149 C 
ATOM      2  C   UNL     1       5.514  -6.379  25.810  0.00  0.00    +0.169 C 
ATOM      3  C   UNL     1       4.552  -6.485  24.622  0.00  0.00    +0.177 C 
ATOM      4  C   UNL     1       5.255  -6.388  23.260  0.00  0.00    +0.192 C 
ATOM      5  C   UNL     1       6.444  -5.384  23.180  0.00  0.00    +0.238 C 
ATOM      6  N   UNL     1       7.055  -5.080  24.442  0.00  0.00    -0.249 N 
ATOM      7  C   UNL     1       8.060  -4.160  24.609  0.00  0.00    +0.283 C 
ATOM      8  N   UNL     1       8.747  -3.612  23.679  0.00  0.00    -0.237 NA
ATOM      9  O   UNL     1       8.232  -3.895  25.941  0.00  0.00    -0.464 OA
ATOM     10  C   UNL     1       7.330  -4.762  26.668  0.00  0.00    +0.257 C 
ENDROOT
BRANCH   2  11
ATOM     11  O   UNL     1       4.777  -6.361  27.035  0.00  0.00    -0.387 OA
ATOM     12  H   UNL     1       4.103  -7.067  26.951  0.00  0.00    +0.210 HD
ENDBRANCH   2  11
BRANCH   3  13
ATOM     13  O   UNL     1       3.846  -7.738  24.723  0.00  0.00    -0.386 OA
ATOM     14  H   UNL     1       3.562  -7.959  23.813  0.00  0.00    +0.210 HD
ENDBRANCH   3  13
BRANCH   4  15
ATOM     15  O   UNL     1       4.229  -6.050  22.295  0.00  0.00    -0.385 OA
ATOM     16  H   UNL     1       3.461  -5.721  22.801  0.00  0.00    +0.210 HD
ENDBRANCH   4  15
BRANCH   5  17
ATOM     17  O   UNL     1       7.421  -6.038  22.380  0.00  0.00    -0.371 OA
ATOM     18  H   UNL     1       8.140  -6.225  23.011  0.00  0.00    +0.212 HD
ENDBRANCH   5  17
BRANCH   8  19
ATOM     19  C   UNL     1       9.760  -2.643  24.098  0.00  0.00    +0.147 C 
BRANCH  19  20
ATOM     20  C   UNL     1      10.205  -1.873  22.851  0.00  0.00    +0.023 C 
BRANCH  20  21
ATOM     21  C   UNL     1       9.018  -1.356  22.041  0.00  0.00    +0.002 C 
BRANCH  21  22
ATOM     22  C   UNL     1       9.388  -0.094  21.255  0.00  0.00    +0.000 C 
BRANCH  22  23
ATOM     23  C   UNL     1       8.939   1.172  21.987  0.00  0.00    -0.000 C 
BRANCH  23  24
ATOM     24  C   UNL     1      10.132   2.032  22.410  0.00  0.00    -0.000 C 
BRANCH  24  25
ATOM     25  C   UNL     1      10.528   1.750  23.860  0.00  0.00    -0.003 C 
ATOM     26  C   UNL     1       9.329   1.346  24.702  0.00  0.00    +0.004 C 
ENDBRANCH  24  25
ENDBRANCH  23  24
ENDBRANCH  22  23
ENDBRANCH  21  22
ENDBRANCH  20  21
ENDBRANCH  19  20
ENDBRANCH   8  19
TORSDOF 11
ENDMDL
MODEL 3
REMARK VINA RESULT:      -5.8      2.060      3.544
REMARK  Name = 
REMARK  12 active torsions:
REMARK  status: ('A' for Active; 'I' for Inactive)
REMARK    1  A    between atoms: N_6  and  C_7
REMARK    2  A    between atoms: C_7  and  C_8
REMARK    3  A    between atoms: C_8  and  C_9
REMARK    4  A    between atoms: C_9  and  C_10
REMARK    5  A    between atoms: C_10  and  C_11
REMARK    6  A    between atoms: C_11  and  C_12
REMARK    7  A    between atoms: C_12  and  C_13
REMARK    8  A    between atoms: C_13  and  C_14
REMARK    9  A    between atoms: C_16  and  O_18
REMARK   10  A    between atoms: C_19  and  O_21
REMARK   11  A    between atoms: C_22  and  O_24
REMARK   12  A    between atoms: C_25  and  O_27
REMARK                            x       y       z     vdW  Elec       q    Type
REMARK                         _______ _______ _______ _____ _____    ______ ____
ROOT
ATOM      1  C   UNL     1       7.511  -4.250  23.520  0.00  0.00    +0.149 C 
ATOM      2  C   UNL     1       6.572  -4.859  24.537  0.00  0.00    +0.169 C 
ATOM      3  C   UNL     1       7.445  -5.342  25.701  0.00  0.00    +0.177 C 
ATOM      4  C   UNL     1       8.315  -4.232  26.310  0.00  0.00    +0.192 C 
ATOM      5  C   UNL     1       8.906  -3.202  25.301  0.00  0.00    +0.238 C 
ATOM      6  N   UNL     1       8.183  -3.093  24.067  0.00  0.00    -0.249 N 
ATOM      7  C   UNL     1       8.577  -2.310  23.010  0.00  0.00    +0.283 C 
ATOM      8  N   UNL     1       9.487  -1.411  23.033  0.00  0.00    -0.237 NA
ATOM      9  O   UNL     1       7.850  -2.631  21.896  0.00  0.00    -0.464 OA
ATOM     10  C   UNL     1       6.879  -3.628  22.292  0.00  0.00    +0.257 C 
ENDROOT
BRANCH   2  11
ATOM     11  O   UNL     1       5.883  -5.967  23.951  0.00  0.00    -0.387 OA
ATOM     12  H   UNL     1       5.817  -5.763  22.995  0.00  0.00    +0.210 HD
ENDBRANCH   2  11
BRANCH   3  13
ATOM     13  O   UNL     1       6.583  -5.901  26.711  0.00  0.00    -0.386 OA
ATOM     14  H   UNL     1       6.665  -6.872  26.625  0.00  0.00    +0.210 HD
ENDBRANCH   3  13
BRANCH   4  15
ATOM     15  O   UNL     1       9.370  -4.899  27.044  0.00  0.00    -0.385 OA
ATOM     16  H   UNL     1       9.945  -5.333  26.384  0.00  0.00    +0.210 HD
ENDBRANCH   4  15
BRANCH   5  17
ATOM     17  O   UNL     1       8.810  -1.947  25.963  0.00  0.00    -0.371 OA
ATOM     18  H   UNL     1       8.201  -1.439  25.396  0.00  0.00    +0.212 HD
ENDBRANCH   5  17
BRANCH   8  19
ATOM     19  C   UNL     1       9.746  -0.711  21.774  0.00  0.00    +0.147 C 
BRANCH  19  20
ATOM     20  C   UNL     1       9.770   0.789  22.078  0.00  0.00    +0.023 C 
BRANCH  20  21
ATOM     21  C   UNL     1      10.287   1.084  23.485  0.00  0.00    +0.002 C 
BRANCH  21  22
ATOM     22  C   UNL     1       9.974   2.524  23.902  0.00  0.00    +0.000 C 
BRANCH  22  23
ATOM     23  C   UNL     1      11.009   3.504  23.347  0.00  0.00    -0.000 C 
BRANCH  23  24
ATOM     24  C   UNL     1      10.677   4.949  23.727  0.00  0.00    -0.000 C 
BRANCH  24  25
ATOM     25  C   UNL     1      11.946   5.797  23.837  0.00  0.00    -0.003 C 
ATOM     26  C   UNL     1      13.101   5.180  23.065  0.00  0.00    +0.004 C 
ENDBRANCH  24  25
ENDBRANCH  23  24
ENDBRANCH  22  23
ENDBRANCH  21  22
ENDBRANCH  20  21
ENDBRANCH  19  20
ENDBRANCH   8  19
TORSDOF 11
ENDMDL
MODEL 4
REMARK VINA RESULT:      -5.7      1.727      3.211
REMARK  Name = 
REMARK  12 active torsions:
REMARK  status: ('A' for Active; 'I' for Inactive)
REMARK    1  A    between atoms: N_6  and  C_7
REMARK    2  A    between atoms: C_7  and  C_8
REMARK    3  A    between atoms: C_8  and  C_9
REMARK    4  A    between atoms: C_9  and  C_10
REMARK    5  A    between atoms: C_10  and  C_11
REMARK    6  A    between atoms: C_11  and  C_12
REMARK    7  A    between atoms: C_12  and  C_13
REMARK    8  A    between atoms: C_13  and  C_14
REMARK    9  A    between atoms: C_16  and  O_18
REMARK   10  A    between atoms: C_19  and  O_21
REMARK   11  A    between atoms: C_22  and  O_24
REMARK   12  A    between atoms: C_25  and  O_27
REMARK                            x       y       z     vdW  Elec       q    Type
REMARK                         _______ _______ _______ _____ _____    ______ ____
ROOT
ATOM      1  C   UNL     1       5.929  -5.766  23.794  0.00  0.00    +0.149 C 
ATOM      2  C   UNL     1       4.704  -6.312  24.493  0.00  0.00    +0.169 C 
ATOM      3  C   UNL     1       5.149  -6.704  25.907  0.00  0.00    +0.177 C 
ATOM      4  C   UNL     1       5.790  -5.545  26.685  0.00  0.00    +0.192 C 
ATOM      5  C   UNL     1       6.688  -4.582  25.852  0.00  0.00    +0.238 C 
ATOM      6  N   UNL     1       6.403  -4.567  24.446  0.00  0.00    -0.249 N 
ATOM      7  C   UNL     1       7.127  -3.855  23.522  0.00  0.00    +0.283 C 
ATOM      8  N   UNL     1       7.992  -2.948  23.774  0.00  0.00    -0.237 NA
ATOM      9  O   UNL     1       6.794  -4.261  22.257  0.00  0.00    -0.464 OA
ATOM     10  C   UNL     1       5.735  -5.238  22.388  0.00  0.00    +0.257 C 
ENDROOT
BRANCH   2  11
ATOM     11  O   UNL     1       4.227  -7.465  23.795  0.00  0.00    -0.387 OA
ATOM     12  H   UNL     1       4.043  -7.165  22.881  0.00  0.00    +0.210 HD
ENDBRANCH   2  11
BRANCH   3  13
ATOM     13  O   UNL     1       4.000  -7.200  26.621  0.00  0.00    -0.386 OA
ATOM     14  H   UNL     1       4.002  -8.170  26.491  0.00  0.00    +0.210 HD
ENDBRANCH   3  13
BRANCH   4  15
ATOM     15  O   UNL     1       6.544  -6.148  27.765  0.00  0.00    -0.385 OA
ATOM     16  H   UNL     1       6.143  -7.023  27.937  0.00  0.00    +0.210 HD
ENDBRANCH   4  15
BRANCH   5  17
ATOM     17  O   UNL     1       6.400  -3.285  26.359  0.00  0.00    -0.371 OA
ATOM     18  H   UNL     1       5.783  -2.917  25.700  0.00  0.00    +0.212 HD
ENDBRANCH   5  17
BRANCH   8  19
ATOM     19  C   UNL     1       8.653  -2.335  22.621  0.00  0.00    +0.147 C 
BRANCH  19  20
ATOM     20  C   UNL     1       9.996  -1.779  23.102  0.00  0.00    +0.023 C 
BRANCH  20  21
ATOM     21  C   UNL     1       9.854  -0.961  24.385  0.00  0.00    +0.002 C 
BRANCH  21  22
ATOM     22  C   UNL     1      10.691   0.321  24.323  0.00  0.00    +0.000 C 
BRANCH  22  23
ATOM     23  C   UNL     1       9.820   1.566  24.504  0.00  0.00    -0.000 C 
BRANCH  23  24
ATOM     24  C   UNL     1       9.960   2.527  23.321  0.00  0.00    -0.000 C 
BRANCH  24  25
ATOM     25  C   UNL     1       9.986   1.768  21.993  0.00  0.00    -0.003 C 
ATOM     26  C   UNL     1       8.583   1.432  21.511  0.00  0.00    +0.004 C 
ENDBRANCH  24  25
ENDBRANCH  23  24
ENDBRANCH  22  23
ENDBRANCH  21  22
ENDBRANCH  20  21
ENDBRANCH  19  20
ENDBRANCH   8  19
TORSDOF 11
ENDMDL
MODEL 5
REMARK VINA RESULT:      -5.7      1.711      2.921
REMARK  Name = 
REMARK  12 active torsions:
REMARK  status: ('A' for Active; 'I' for Inactive)
REMARK    1  A    between atoms: N_6  and  C_7
REMARK    2  A    between atoms: C_7  and  C_8
REMARK    3  A    between atoms: C_8  and  C_9
REMARK    4  A    between atoms: C_9  and  C_10
REMARK    5  A    between atoms: C_10  and  C_11
REMARK    6  A    between atoms: C_11  and  C_12
REMARK    7  A    between atoms: C_12  and  C_13
REMARK    8  A    between atoms: C_13  and  C_14
REMARK    9  A    between atoms: C_16  and  O_18
REMARK   10  A    between atoms: C_19  and  O_21
REMARK   11  A    between atoms: C_22  and  O_24
REMARK   12  A    between atoms: C_25  and  O_27
REMARK                            x       y       z     vdW  Elec       q    Type
REMARK                         _______ _______ _______ _____ _____    ______ ____
ROOT
ATOM      1  C   UNL     1       7.297  -4.407  23.575  0.00  0.00    +0.149 C 
ATOM      2  C   UNL     1       6.073  -4.949  24.279  0.00  0.00    +0.169 C 
ATOM      3  C   UNL     1       6.577  -5.672  25.533  0.00  0.00    +0.177 C 
ATOM      4  C   UNL     1       7.424  -4.779  26.451  0.00  0.00    +0.192 C 
ATOM      5  C   UNL     1       8.368  -3.769  25.734  0.00  0.00    +0.238 C 
ATOM      6  N   UNL     1       7.975  -3.430  24.396  0.00  0.00    -0.249 N 
ATOM      7  C   UNL     1       8.707  -2.626  23.558  0.00  0.00    +0.283 C 
ATOM      8  N   UNL     1       9.700  -1.892  23.891  0.00  0.00    -0.237 NA
ATOM      9  O   UNL     1       8.222  -2.720  22.282  0.00  0.00    -0.464 OA
ATOM     10  C   UNL     1       7.059  -3.580  22.329  0.00  0.00    +0.257 C 
ENDROOT
BRANCH   2  11
ATOM     11  O   UNL     1       5.395  -5.870  23.422  0.00  0.00    -0.387 OA
ATOM     12  H   UNL     1       5.639  -6.763  23.744  0.00  0.00    +0.210 HD
ENDBRANCH   2  11
BRANCH   3  13
ATOM     13  O   UNL     1       5.435  -6.176  26.253  0.00  0.00    -0.386 OA
ATOM     14  H   UNL     1       5.211  -7.032  25.835  0.00  0.00    +0.210 HD
ENDBRANCH   3  13
BRANCH   4  15
ATOM     15  O   UNL     1       8.179  -5.674  27.305  0.00  0.00    -0.385 OA
ATOM     16  H   UNL     1       7.530  -6.237  27.770  0.00  0.00    +0.210 HD
ENDBRANCH   4  15
BRANCH   5  17
ATOM     17  O   UNL     1       8.294  -2.582  26.513  0.00  0.00    -0.371 OA
ATOM     18  H   UNL     1       7.336  -2.460  26.647  0.00  0.00    +0.212 HD
ENDBRANCH   5  17
BRANCH   8  19
ATOM     19  C   UNL     1      10.339  -1.130  22.818  0.00  0.00    +0.147 C 
BRANCH  19  20
ATOM     20  C   UNL     1      10.358   0.341  23.246  0.00  0.00    +0.023 C 
BRANCH  20  21
ATOM     21  C   UNL     1      10.122   1.285  22.068  0.00  0.00    +0.002 C 
BRANCH  21  22
ATOM     22  C   UNL     1       8.701   1.140  21.515  0.00  0.00    +0.000 C 
BRANCH  22  23
ATOM     23  C   UNL     1       7.821   2.325  21.918  0.00  0.00    -0.000 C 
BRANCH  23  24
ATOM     24  C   UNL     1       6.556   1.864  22.646  0.00  0.00    -0.000 C 
BRANCH  24  25
ATOM     25  C   UNL     1       6.714   0.438  23.178  0.00  0.00    -0.003 C 
ATOM     26  C   UNL     1       6.855   0.416  24.691  0.00  0.00    +0.004 C 
ENDBRANCH  24  25
ENDBRANCH  23  24
ENDBRANCH  22  23
ENDBRANCH  21  22
ENDBRANCH  20  21
ENDBRANCH  19  20
ENDBRANCH   8  19
TORSDOF 11
ENDMDL
MODEL 6
REMARK VINA RESULT:      -5.7      2.779      6.918
REMARK  Name = 
REMARK  12 active torsions:
REMARK  status: ('A' for Active; 'I' for Inactive)
REMARK    1  A    between atoms: N_6  and  C_7
REMARK    2  A    between atoms: C_7  and  C_8
REMARK    3  A    between atoms: C_8  and  C_9
REMARK    4  A    between atoms: C_9  and  C_10
REMARK    5  A    between atoms: C_10  and  C_11
REMARK    6  A    between atoms: C_11  and  C_12
REMARK    7  A    between atoms: C_12  and  C_13
REMARK    8  A    between atoms: C_13  and  C_14
REMARK    9  A    between atoms: C_16  and  O_18
REMARK   10  A    between atoms: C_19  and  O_21
REMARK   11  A    between atoms: C_22  and  O_24
REMARK   12  A    between atoms: C_25  and  O_27
REMARK                            x       y       z     vdW  Elec       q    Type
REMARK                         _______ _______ _______ _____ _____    ______ ____
ROOT
ATOM      1  C   UNL     1       8.709  -0.136  22.576  0.00  0.00    +0.149 C 
ATOM      2  C   UNL     1       9.226   1.196  22.080  0.00  0.00    +0.169 C 
ATOM      3  C   UNL     1       8.773   2.245  23.101  0.00  0.00    +0.177 C 
ATOM      4  C   UNL     1       9.239   1.942  24.533  0.00  0.00    +0.192 C 
ATOM      5  C   UNL     1       9.234   0.439  24.944  0.00  0.00    +0.238 C 
ATOM      6  N   UNL     1       9.307  -0.481  23.845  0.00  0.00    -0.249 N 
ATOM      7  C   UNL     1       9.232  -1.846  23.977  0.00  0.00    +0.283 C 
ATOM      8  N   UNL     1       9.313  -2.506  25.069  0.00  0.00    -0.237 NA
ATOM      9  O   UNL     1       9.050  -2.423  22.749  0.00  0.00    -0.464 OA
ATOM     10  C   UNL     1       9.089  -1.360  21.768  0.00  0.00    +0.257 C 
ENDROOT
BRANCH   2  11
ATOM     11  O   UNL     1       8.659   1.485  20.799  0.00  0.00    -0.387 OA
ATOM     12  H   UNL     1       9.316   2.047  20.338  0.00  0.00    +0.210 HD
ENDBRANCH   2  11
BRANCH   3  13
ATOM     13  O   UNL     1       9.275   3.529  22.683  0.00  0.00    -0.386 OA
ATOM     14  H   UNL     1       8.490   4.055  22.430  0.00  0.00    +0.210 HD
ENDBRANCH   3  13
BRANCH   4  15
ATOM     15  O   UNL     1       8.389   2.719  25.411  0.00  0.00    -0.385 OA
ATOM     16  H   UNL     1       8.523   2.374  26.315  0.00  0.00    +0.210 HD
ENDBRANCH   4  15
BRANCH   5  17
ATOM     17  O   UNL     1      10.413   0.269  25.721  0.00  0.00    -0.371 OA
ATOM     18  H   UNL     1      10.788  -0.565  25.381  0.00  0.00    +0.212 HD
ENDBRANCH   5  17
BRANCH   8  19
ATOM     19  C   UNL     1       9.189  -3.960  24.965  0.00  0.00    +0.147 C 
BRANCH  19  20
ATOM     20  C   UNL     1       8.940  -4.503  26.376  0.00  0.00    +0.023 C 
BRANCH  20  21
ATOM     21  C   UNL     1       7.627  -5.278  26.470  0.00  0.00    +0.002 C 
BRANCH  21  22
ATOM     22  C   UNL     1       6.602  -4.761  25.456  0.00  0.00    +0.000 C 
BRANCH  22  23
ATOM     23  C   UNL     1       5.588  -5.845  25.084  0.00  0.00    -0.000 C 
BRANCH  23  24
ATOM     24  C   UNL     1       5.371  -5.916  23.571  0.00  0.00    -0.000 C 
BRANCH  24  25
ATOM     25  C   UNL     1       6.504  -5.217  22.817  0.00  0.00    -0.003 C 
ATOM     26  C   UNL     1       6.801  -5.899  21.491  0.00  0.00    +0.004 C 
ENDBRANCH  24  25
ENDBRANCH  23  24
ENDBRANCH  22  23
ENDBRANCH  21  22
ENDBRANCH  20  21
ENDBRANCH  19  20
ENDBRANCH   8  19
TORSDOF 11
ENDMDL
MODEL 7
REMARK VINA RESULT:      -5.6      1.673      3.070
REMARK  Name = 
REMARK  12 active torsions:
REMARK  status: ('A' for Active; 'I' for Inactive)
REMARK    1  A    between atoms: N_6  and  C_7
REMARK    2  A    between atoms: C_7  and  C_8
REMARK    3  A    between atoms: C_8  and  C_9
REMARK    4  A    between atoms: C_9  and  C_10
REMARK    5  A    between atoms: C_10  and  C_11
REMARK    6  A    between atoms: C_11  and  C_12
REMARK    7  A    between atoms: C_12  and  C_13
REMARK    8  A    between atoms: C_13  and  C_14
REMARK    9  A    between atoms: C_16  and  O_18
REMARK   10  A    between atoms: C_19  and  O_21
REMARK   11  A    between atoms: C_22  and  O_24
REMARK   12  A    between atoms: C_25  and  O_27
REMARK                            x       y       z     vdW  Elec       q    Type
REMARK                         _______ _______ _______ _____ _____    ______ ____
ROOT
ATOM      1  C   UNL     1       7.166  -4.552  23.661  0.00  0.00    +0.149 C 
ATOM      2  C   UNL     1       5.935  -4.960  24.439  0.00  0.00    +0.169 C 
ATOM      3  C   UNL     1       6.434  -5.673  25.700  0.00  0.00    +0.177 C 
ATOM      4  C   UNL     1       7.393  -4.820  26.543  0.00  0.00    +0.192 C 
ATOM      5  C   UNL     1       8.383  -3.921  25.743  0.00  0.00    +0.238 C 
ATOM      6  N   UNL     1       7.958  -3.604  24.410  0.00  0.00    -0.249 N 
ATOM      7  C   UNL     1       8.715  -2.898  23.508  0.00  0.00    +0.283 C 
ATOM      8  N   UNL     1       9.780  -2.238  23.766  0.00  0.00    -0.237 NA
ATOM      9  O   UNL     1       8.166  -3.001  22.258  0.00  0.00    -0.464 OA
ATOM     10  C   UNL     1       6.939  -3.757  22.392  0.00  0.00    +0.257 C 
ENDROOT
BRANCH   2  11
ATOM     11  O   UNL     1       5.144  -5.855  23.652  0.00  0.00    -0.387 OA
ATOM     12  H   UNL     1       5.041  -5.421  22.780  0.00  0.00    +0.210 HD
ENDBRANCH   2  11
BRANCH   3  13
ATOM     13  O   UNL     1       5.289  -6.051  26.489  0.00  0.00    -0.386 OA
ATOM     14  H   UNL     1       4.563  -6.206  25.852  0.00  0.00    +0.210 HD
ENDBRANCH   3  13
BRANCH   4  15
ATOM     15  O   UNL     1       8.110  -5.740  27.402  0.00  0.00    -0.385 OA
ATOM     16  H   UNL     1       8.581  -6.365  26.818  0.00  0.00    +0.210 HD
ENDBRANCH   4  15
BRANCH   5  17
ATOM     17  O   UNL     1       8.443  -2.703  26.473  0.00  0.00    -0.371 OA
ATOM     18  H   UNL     1       8.037  -2.933  27.329  0.00  0.00    +0.212 HD
ENDBRANCH   5  17
BRANCH   8  19
ATOM     19  C   UNL     1      10.429  -1.575  22.635  0.00  0.00    +0.147 C 
BRANCH  19  20
ATOM     20  C   UNL     1      10.174  -0.071  22.774  0.00  0.00    +0.023 C 
BRANCH  20  21
ATOM     21  C   UNL     1       9.387   0.492  21.592  0.00  0.00    +0.002 C 
BRANCH  21  22
ATOM     22  C   UNL     1       8.085   1.152  22.054  0.00  0.00    +0.000 C 
BRANCH  22  23
ATOM     23  C   UNL     1       8.241   2.669  22.180  0.00  0.00    -0.000 C 
BRANCH  23  24
ATOM     24  C   UNL     1       8.484   3.091  23.631  0.00  0.00    -0.000 C 
BRANCH  24  25
ATOM     25  C   UNL     1       9.642   4.086  23.730  0.00  0.00    -0.003 C 
ATOM     26  C   UNL     1      10.977   3.426  23.426  0.00  0.00    +0.004 C 
ENDBRANCH  24  25
ENDBRANCH  23  24
ENDBRANCH  22  23
ENDBRANCH  21  22
ENDBRANCH  20  21
ENDBRANCH  19  20
ENDBRANCH   8  19
TORSDOF 11
ENDMDL
MODEL 8
REMARK VINA RESULT:      -5.4      2.943      6.329
REMARK  Name = 
REMARK  12 active torsions:
REMARK  status: ('A' for Active; 'I' for Inactive)
REMARK    1  A    between atoms: N_6  and  C_7
REMARK    2  A    between atoms: C_7  and  C_8
REMARK    3  A    between atoms: C_8  and  C_9
REMARK    4  A    between atoms: C_9  and  C_10
REMARK    5  A    between atoms: C_10  and  C_11
REMARK    6  A    between atoms: C_11  and  C_12
REMARK    7  A    between atoms: C_12  and  C_13
REMARK    8  A    between atoms: C_13  and  C_14
REMARK    9  A    between atoms: C_16  and  O_18
REMARK   10  A    between atoms: C_19  and  O_21
REMARK   11  A    between atoms: C_22  and  O_24
REMARK   12  A    between atoms: C_25  and  O_27
REMARK                            x       y       z     vdW  Elec       q    Type
REMARK                         _______ _______ _______ _____ _____    ______ ____
ROOT
ATOM      1  C   UNL     1       9.462  -0.003  22.903  0.00  0.00    +0.149 C 
ATOM      2  C   UNL     1       9.884   1.449  22.866  0.00  0.00    +0.169 C 
ATOM      3  C   UNL     1       8.796   2.236  23.603  0.00  0.00    +0.177 C 
ATOM      4  C   UNL     1       8.553   1.742  25.036  0.00  0.00    +0.192 C 
ATOM      5  C   UNL     1       8.641   0.201  25.248  0.00  0.00    +0.238 C 
ATOM      6  N   UNL     1       9.419  -0.493  24.262  0.00  0.00    -0.249 N 
ATOM      7  C   UNL     1       9.557  -1.858  24.211  0.00  0.00    +0.283 C 
ATOM      8  N   UNL     1       9.222  -2.687  25.126  0.00  0.00    -0.237 NA
ATOM      9  O   UNL     1      10.114  -2.226  23.016  0.00  0.00    -0.464 OA
ATOM     10  C   UNL     1      10.418  -1.009  22.295  0.00  0.00    +0.257 C 
ENDROOT
BRANCH   2  11
ATOM     11  O   UNL     1       9.971   1.888  21.508  0.00  0.00    -0.387 OA
ATOM     12  H   UNL     1       9.538   1.191  20.974  0.00  0.00    +0.210 HD
ENDBRANCH   2  11
BRANCH   3  13
ATOM     13  O   UNL     1       9.177   3.626  23.619  0.00  0.00    -0.386 OA
ATOM     14  H   UNL     1      10.015   3.680  23.118  0.00  0.00    +0.210 HD
ENDBRANCH   3  13
BRANCH   4  15
ATOM     15  O   UNL     1       7.249   2.242  25.424  0.00  0.00    -0.385 OA
ATOM     16  H   UNL     1       7.008   1.790  26.255  0.00  0.00    +0.210 HD
ENDBRANCH   4  15
BRANCH   5  17
ATOM     17  O   UNL     1       9.298   0.041  26.499  0.00  0.00    -0.371 OA
ATOM     18  H   UNL     1       8.578  -0.228  27.099  0.00  0.00    +0.212 HD
ENDBRANCH   5  17
BRANCH   8  19
ATOM     19  C   UNL     1       9.451  -4.104  24.841  0.00  0.00    +0.147 C 
BRANCH  19  20
ATOM     20  C   UNL     1       8.084  -4.795  24.814  0.00  0.00    +0.023 C 
BRANCH  20  21
ATOM     21  C   UNL     1       7.806  -5.468  23.471  0.00  0.00    +0.002 C 
BRANCH  21  22
ATOM     22  C   UNL     1       7.451  -4.438  22.395  0.00  0.00    +0.000 C 
BRANCH  22  23
ATOM     23  C   UNL     1       5.979  -4.541  21.987  0.00  0.00    -0.000 C 
BRANCH  23  24
ATOM     24  C   UNL     1       5.134  -3.451  22.650  0.00  0.00    -0.000 C 
BRANCH  24  25
ATOM     25  C   UNL     1       6.005  -2.282  23.113  0.00  0.00    -0.003 C 
ATOM     26  C   UNL     1       5.687  -1.876  24.544  0.00  0.00    +0.004 C 
ENDBRANCH  24  25
ENDBRANCH  23  24
ENDBRANCH  22  23
ENDBRANCH  21  22
ENDBRANCH  20  21
ENDBRANCH  19  20
ENDBRANCH   8  19
TORSDOF 11
ENDMDL
MODEL 9
REMARK VINA RESULT:      -5.2      2.031      3.538
REMARK  Name = 
REMARK  12 active torsions:
REMARK  status: ('A' for Active; 'I' for Inactive)
REMARK    1  A    between atoms: N_6  and  C_7
REMARK    2  A    between atoms: C_7  and  C_8
REMARK    3  A    between atoms: C_8  and  C_9
REMARK    4  A    between atoms: C_9  and  C_10
REMARK    5  A    between atoms: C_10  and  C_11
REMARK    6  A    between atoms: C_11  and  C_12
REMARK    7  A    between atoms: C_12  and  C_13
REMARK    8  A    between atoms: C_13  and  C_14
REMARK    9  A    between atoms: C_16  and  O_18
REMARK   10  A    between atoms: C_19  and  O_21
REMARK   11  A    between atoms: C_22  and  O_24
REMARK   12  A    between atoms: C_25  and  O_27
REMARK                            x       y       z     vdW  Elec       q    Type
REMARK                         _______ _______ _______ _____ _____    ______ ____
ROOT
ATOM      1  C   UNL     1       5.931  -4.436  22.972  0.00  0.00    +0.149 C 
ATOM      2  C   UNL     1       4.976  -5.603  22.857  0.00  0.00    +0.169 C 
ATOM      3  C   UNL     1       5.207  -6.477  24.094  0.00  0.00    +0.177 C 
ATOM      4  C   UNL     1       5.033  -5.717  25.417  0.00  0.00    +0.192 C 
ATOM      5  C   UNL     1       5.546  -4.246  25.428  0.00  0.00    +0.238 C 
ATOM      6  N   UNL     1       5.626  -3.632  24.133  0.00  0.00    -0.249 N 
ATOM      7  C   UNL     1       6.129  -2.375  23.907  0.00  0.00    +0.283 C 
ATOM      8  N   UNL     1       6.387  -1.492  24.795  0.00  0.00    -0.237 NA
ATOM      9  O   UNL     1       6.329  -2.188  22.565  0.00  0.00    -0.464 OA
ATOM     10  C   UNL     1       5.848  -3.376  21.893  0.00  0.00    +0.257 C 
ENDROOT
BRANCH   2  11
ATOM     11  O   UNL     1       5.268  -6.347  21.671  0.00  0.00    -0.387 OA
ATOM     12  H   UNL     1       5.779  -5.741  21.096  0.00  0.00    +0.210 HD
ENDBRANCH   2  11
BRANCH   3  13
ATOM     13  O   UNL     1       4.289  -7.587  24.040  0.00  0.00    -0.386 OA
ATOM     14  H   UNL     1       4.405  -7.988  23.155  0.00  0.00    +0.210 HD
ENDBRANCH   3  13
BRANCH   4  15
ATOM     15  O   UNL     1       5.704  -6.505  26.431  0.00  0.00    -0.385 OA
ATOM     16  H   UNL     1       6.003  -5.883  27.122  0.00  0.00    +0.210 HD
ENDBRANCH   4  15
BRANCH   5  17
ATOM     17  O   UNL     1       4.579  -3.527  26.182  0.00  0.00    -0.371 OA
ATOM     18  H   UNL     1       5.102  -2.817  26.599  0.00  0.00    +0.212 HD
ENDBRANCH   5  17
BRANCH   8  19
ATOM     19  C   UNL     1       6.935  -0.223  24.316  0.00  0.00    +0.147 C 
BRANCH  19  20
ATOM     20  C   UNL     1       7.931   0.275  25.368  0.00  0.00    +0.023 C 
BRANCH  20  21
ATOM     21  C   UNL     1       9.165  -0.621  25.461  0.00  0.00    +0.002 C 
BRANCH  21  22
ATOM     22  C   UNL     1       9.627  -1.077  24.073  0.00  0.00    +0.000 C 
BRANCH  22  23
ATOM     23  C   UNL     1      10.538  -0.036  23.418  0.00  0.00    -0.000 C 
BRANCH  23  24
ATOM     24  C   UNL     1       9.966   0.453  22.086  0.00  0.00    -0.000 C 
BRANCH  24  25
ATOM     25  C   UNL     1       9.649   1.949  22.137  0.00  0.00    -0.003 C 
ATOM     26  C   UNL     1      10.302   2.620  23.334  0.00  0.00    +0.004 C 
ENDBRANCH  24  25
ENDBRANCH  23  24
ENDBRANCH  22  23
ENDBRANCH  21  22
ENDBRANCH  20  21
ENDBRANCH  19  20
ENDBRANCH   8  19
TORSDOF 11
ENDMDL
