MODEL 1
REMARK VINA RESULT:      -5.2      0.000      0.000
REMARK  Name = 
REMARK  9 active torsions:
REMARK  status: ('A' for Active; 'I' for Inactive)
REMARK    1  A    between atoms: C_1  and  C_2
REMARK    2  A    between atoms: C_2  and  C_3
REMARK    3  A    between atoms: C_2  and  N_4
REMARK    4  A    between atoms: N_4  and  C_5
REMARK    5  A    between atoms: C_5  and  C_6
REMARK    6  A    between atoms: C_6  and  O_7
REMARK    7  A    between atoms: C_6  and  C_8
REMARK    8  A    between atoms: C_10  and  O_11
REMARK    9  A    between atoms: C_13  and  O_14
REMARK                            x       y       z     vdW  Elec       q    Type
REMARK                         _______ _______ _______ _____ _____    ______ ____
ROOT
ATOM      1  C   UNL     1       8.151  -4.434  23.951  0.00  0.00    -0.011 A 
ATOM      2  C   UNL     1       7.623  -5.500  23.205  0.00  0.00    +0.051 A 
ATOM      3  C   UNL     1       6.561  -5.291  22.329  0.00  0.00    +0.121 A 
ATOM      4  C   UNL     1       6.009  -4.028  22.165  0.00  0.00    +0.090 A 
ATOM      5  C   UNL     1       6.539  -2.965  22.886  0.00  0.00    +0.121 A 
ATOM      6  C   UNL     1       7.601  -3.153  23.771  0.00  0.00    +0.051 A 
ENDROOT
BRANCH   3   7
ATOM      7  O   UNL     1       6.077  -6.374  21.655  0.00  0.00    -0.507 OA
ATOM      8  H   UNL     1       5.850  -6.095  20.751  0.00  0.00    +0.292 HD
ENDBRANCH   3   7
BRANCH   5   9
ATOM      9  O   UNL     1       5.973  -1.737  22.708  0.00  0.00    -0.507 OA
ATOM     10  H   UNL     1       6.658  -1.118  22.407  0.00  0.00    +0.292 HD
ENDBRANCH   5   9
BRANCH   1  11
ATOM     11  C   UNL     1       9.248  -4.649  24.976  0.00  0.00    +0.158 C 
BRANCH  11  12
ATOM     12  O   UNL     1       9.846  -5.935  24.798  0.00  0.00    -0.386 OA
ATOM     13  H   UNL     1      10.420  -5.884  24.016  0.00  0.00    +0.210 HD
ENDBRANCH  11  12
BRANCH  11  14
ATOM     14  C   UNL     1       8.701  -4.500  26.420  0.00  0.00    +0.117 C 
BRANCH  14  15
ATOM     15  N   UNL     1       7.996  -5.711  26.868  0.00  0.00    -0.311 NA
ATOM     16  H   UNL     1       8.059  -6.413  26.127  0.00  0.00    +0.122 HD
BRANCH  15  18
ATOM     17  C   UNL     1       6.360  -3.949  27.235  0.00  0.00    +0.023 C 
ATOM     18  C   UNL     1       6.592  -5.461  27.217  0.00  0.00    +0.048 C 
ATOM     19  C   UNL     1       5.629  -6.114  26.222  0.00  0.00    +0.023 C 
ENDBRANCH  15  18
ENDBRANCH  14  15
ENDBRANCH  11  14
ENDBRANCH   1  11
TORSDOF 7
ENDMDL
MODEL 2
REMARK VINA RESULT:      -5.2      0.097      2.136
REMARK  Name = 
REMARK  9 active torsions:
REMARK  status: ('A' for Active; 'I' for Inactive)
REMARK    1  A    between atoms: C_1  and  C_2
REMARK    2  A    between atoms: C_2  and  C_3
REMARK    3  A    between atoms: C_2  and  N_4
REMARK    4  A    between atoms: N_4  and  C_5
REMARK    5  A    between atoms: C_5  and  C_6
REMARK    6  A    between atoms: C_6  and  O_7
REMARK    7  A    between atoms: C_6  and  C_8
REMARK    8  A    between atoms: C_10  and  O_11
REMARK    9  A    between atoms: C_13  and  O_14
REMARK                            x       y       z     vdW  Elec       q    Type
REMARK                         _______ _______ _______ _____ _____    ______ ____
ROOT
ATOM      1  C   UNL     1       8.040  -4.423  23.965  0.00  0.00    -0.011 A 
ATOM      2  C   UNL     1       7.472  -3.153  23.772  0.00  0.00    +0.051 A 
ATOM      3  C   UNL     1       6.480  -2.962  22.815  0.00  0.00    +0.121 A 
ATOM      4  C   UNL     1       6.022  -4.018  22.040  0.00  0.00    +0.090 A 
ATOM      5  C   UNL     1       6.566  -5.281  22.238  0.00  0.00    +0.121 A 
ATOM      6  C   UNL     1       7.563  -5.495  23.190  0.00  0.00    +0.051 A 
ENDROOT
BRANCH   3   7
ATOM      7  O   UNL     1       5.989  -1.698  22.658  0.00  0.00    -0.507 OA
ATOM      8  H   UNL     1       6.732  -1.073  22.714  0.00  0.00    +0.292 HD
ENDBRANCH   3   7
BRANCH   5   9
ATOM      9  O   UNL     1       6.101  -6.299  21.459  0.00  0.00    -0.507 OA
ATOM     10  H   UNL     1       5.696  -5.922  20.661  0.00  0.00    +0.292 HD
ENDBRANCH   5   9
BRANCH   1  11
ATOM     11  C   UNL     1       9.183  -4.642  24.938  0.00  0.00    +0.158 C 
BRANCH  11  12
ATOM     12  O   UNL     1       9.780  -5.921  24.720  0.00  0.00    -0.386 OA
ATOM     13  H   UNL     1      10.736  -5.826  24.867  0.00  0.00    +0.210 HD
ENDBRANCH  11  12
BRANCH  11  14
ATOM     14  C   UNL     1       8.700  -4.512  26.406  0.00  0.00    +0.117 C 
BRANCH  14  15
ATOM     15  N   UNL     1       8.008  -5.725  26.866  0.00  0.00    -0.311 NA
ATOM     16  H   UNL     1       8.053  -6.424  26.121  0.00  0.00    +0.122 HD
BRANCH  15  18
ATOM     17  C   UNL     1       6.378  -3.967  27.281  0.00  0.00    +0.023 C 
ATOM     18  C   UNL     1       6.613  -5.479  27.253  0.00  0.00    +0.048 C 
ATOM     19  C   UNL     1       5.625  -6.130  26.280  0.00  0.00    +0.023 C 
ENDBRANCH  15  18
ENDBRANCH  14  15
ENDBRANCH  11  14
ENDBRANCH   1  11
TORSDOF 7
ENDMDL
MODEL 3
REMARK VINA RESULT:      -5.1      6.739      8.567
REMARK  Name = 
REMARK  9 active torsions:
REMARK  status: ('A' for Active; 'I' for Inactive)
REMARK    1  A    between atoms: C_1  and  C_2
REMARK    2  A    between atoms: C_2  and  C_3
REMARK    3  A    between atoms: C_2  and  N_4
REMARK    4  A    between atoms: N_4  and  C_5
REMARK    5  A    between atoms: C_5  and  C_6
REMARK    6  A    between atoms: C_6  and  O_7
REMARK    7  A    between atoms: C_6  and  C_8
REMARK    8  A    between atoms: C_10  and  O_11
REMARK    9  A    between atoms: C_13  and  O_14
REMARK                            x       y       z     vdW  Elec       q    Type
REMARK                         _______ _______ _______ _____ _____    ______ ____
ROOT
ATOM      1  C   UNL     1       9.616   1.005  23.468  0.00  0.00    -0.011 A 
ATOM      2  C   UNL     1       9.613   0.856  24.865  0.00  0.00    +0.051 A 
ATOM      3  C   UNL     1       9.307  -0.374  25.442  0.00  0.00    +0.121 A 
ATOM      4  C   UNL     1       9.011  -1.478  24.656  0.00  0.00    +0.090 A 
ATOM      5  C   UNL     1       9.031  -1.342  23.273  0.00  0.00    +0.121 A 
ATOM      6  C   UNL     1       9.332  -0.119  22.674  0.00  0.00    +0.051 A 
ENDROOT
BRANCH   3   7
ATOM      7  O   UNL     1       9.295  -0.445  26.805  0.00  0.00    -0.507 OA
ATOM      8  H   UNL     1       8.810  -1.247  27.064  0.00  0.00    +0.292 HD
ENDBRANCH   3   7
BRANCH   5   9
ATOM      9  O   UNL     1       8.731  -2.443  22.526  0.00  0.00    -0.507 OA
ATOM     10  H   UNL     1       9.190  -3.211  22.904  0.00  0.00    +0.292 HD
ENDBRANCH   5   9
BRANCH   1  11
ATOM     11  C   UNL     1       9.859   2.352  22.815  0.00  0.00    +0.158 C 
BRANCH  11  12
ATOM     12  O   UNL     1      10.198   2.181  21.438  0.00  0.00    -0.386 OA
ATOM     13  H   UNL     1      10.260   1.226  21.269  0.00  0.00    +0.210 HD
ENDBRANCH  11  12
BRANCH  11  14
ATOM     14  C   UNL     1      10.972   3.140  23.555  0.00  0.00    +0.117 C 
BRANCH  14  15
ATOM     15  N   UNL     1      11.216   4.454  22.940  0.00  0.00    -0.311 NA
ATOM     16  H   UNL     1      11.181   4.346  21.924  0.00  0.00    +0.122 HD
BRANCH  15  18
ATOM     17  C   UNL     1      13.222   5.538  22.095  0.00  0.00    +0.023 C 
ATOM     18  C   UNL     1      12.494   5.050  23.348  0.00  0.00    +0.048 C 
ATOM     19  C   UNL     1      12.297   6.222  24.314  0.00  0.00    +0.023 C 
ENDBRANCH  15  18
ENDBRANCH  14  15
ENDBRANCH  11  14
ENDBRANCH   1  11
TORSDOF 7
ENDMDL
MODEL 4
REMARK VINA RESULT:      -5.0      6.619      8.338
REMARK  Name = 
REMARK  9 active torsions:
REMARK  status: ('A' for Active; 'I' for Inactive)
REMARK    1  A    between atoms: C_1  and  C_2
REMARK    2  A    between atoms: C_2  and  C_3
REMARK    3  A    between atoms: C_2  and  N_4
REMARK    4  A    between atoms: N_4  and  C_5
REMARK    5  A    between atoms: C_5  and  C_6
REMARK    6  A    between atoms: C_6  and  O_7
REMARK    7  A    between atoms: C_6  and  C_8
REMARK    8  A    between atoms: C_10  and  O_11
REMARK    9  A    between atoms: C_13  and  O_14
REMARK                            x       y       z     vdW  Elec       q    Type
REMARK                         _______ _______ _______ _____ _____    ______ ____
ROOT
ATOM      1  C   UNL     1       9.469   1.040  23.462  0.00  0.00    -0.011 A 
ATOM      2  C   UNL     1       9.878  -0.127  22.795  0.00  0.00    +0.051 A 
ATOM      3  C   UNL     1      10.003  -1.328  23.488  0.00  0.00    +0.121 A 
ATOM      4  C   UNL     1       9.715  -1.403  24.844  0.00  0.00    +0.090 A 
ATOM      5  C   UNL     1       9.292  -0.257  25.505  0.00  0.00    +0.121 A 
ATOM      6  C   UNL     1       9.163   0.958  24.831  0.00  0.00    +0.051 A 
ENDROOT
BRANCH   3   7
ATOM      7  O   UNL     1      10.431  -2.418  22.789  0.00  0.00    -0.507 OA
ATOM      8  H   UNL     1      10.112  -3.217  23.242  0.00  0.00    +0.292 HD
ENDBRANCH   3   7
BRANCH   5   9
ATOM      9  O   UNL     1       9.021  -0.360  26.838  0.00  0.00    -0.507 OA
ATOM     10  H   UNL     1       8.427  -1.115  26.979  0.00  0.00    +0.292 HD
ENDBRANCH   5   9
BRANCH   1  11
ATOM     11  C   UNL     1       9.410   2.379  22.752  0.00  0.00    +0.158 C 
BRANCH  11  12
ATOM     12  O   UNL     1       9.989   2.275  21.450  0.00  0.00    -0.386 OA
ATOM     13  H   UNL     1      10.757   1.684  21.518  0.00  0.00    +0.210 HD
ENDBRANCH  11  12
BRANCH  11  14
ATOM     14  C   UNL     1      10.123   3.481  23.577  0.00  0.00    +0.117 C 
BRANCH  14  15
ATOM     15  N   UNL     1      11.492   3.727  23.098  0.00  0.00    -0.311 NA
ATOM     16  H   UNL     1      12.086   2.954  23.409  0.00  0.00    +0.122 HD
BRANCH  15  18
ATOM     17  C   UNL     1      13.014   5.526  22.497  0.00  0.00    +0.023 C 
ATOM     18  C   UNL     1      12.040   5.009  23.557  0.00  0.00    +0.048 C 
ATOM     19  C   UNL     1      10.941   6.050  23.792  0.00  0.00    +0.023 C 
ENDBRANCH  15  18
ENDBRANCH  14  15
ENDBRANCH  11  14
ENDBRANCH   1  11
TORSDOF 7
ENDMDL
MODEL 5
REMARK VINA RESULT:      -5.0      3.633      5.093
REMARK  Name = 
REMARK  9 active torsions:
REMARK  status: ('A' for Active; 'I' for Inactive)
REMARK    1  A    between atoms: C_1  and  C_2
REMARK    2  A    between atoms: C_2  and  C_3
REMARK    3  A    between atoms: C_2  and  N_4
REMARK    4  A    between atoms: N_4  and  C_5
REMARK    5  A    between atoms: C_5  and  C_6
REMARK    6  A    between atoms: C_6  and  O_7
REMARK    7  A    between atoms: C_6  and  C_8
REMARK    8  A    between atoms: C_10  and  O_11
REMARK    9  A    between atoms: C_13  and  O_14
REMARK                            x       y       z     vdW  Elec       q    Type
REMARK                         _______ _______ _______ _____ _____    ______ ____
ROOT
ATOM      1  C   UNL     1       9.040  -0.556  23.136  0.00  0.00    -0.011 A 
ATOM      2  C   UNL     1       7.687  -0.183  23.096  0.00  0.00    +0.051 A 
ATOM      3  C   UNL     1       7.309   1.041  22.550  0.00  0.00    +0.121 A 
ATOM      4  C   UNL     1       8.254   1.912  22.026  0.00  0.00    +0.090 A 
ATOM      5  C   UNL     1       9.593   1.540  22.046  0.00  0.00    +0.121 A 
ATOM      6  C   UNL     1       9.994   0.320  22.590  0.00  0.00    +0.051 A 
ENDROOT
BRANCH   3   7
ATOM      7  O   UNL     1       5.982   1.356  22.566  0.00  0.00    -0.507 OA
ATOM      8  H   UNL     1       5.478   0.573  22.286  0.00  0.00    +0.292 HD
ENDBRANCH   3   7
BRANCH   5   9
ATOM      9  O   UNL     1      10.500   2.417  21.528  0.00  0.00    -0.507 OA
ATOM     10  H   UNL     1      11.079   2.727  22.244  0.00  0.00    +0.292 HD
ENDBRANCH   5   9
BRANCH   1  11
ATOM     11  C   UNL     1       9.488  -1.843  23.803  0.00  0.00    +0.158 C 
BRANCH  11  12
ATOM     12  O   UNL     1      10.443  -2.519  22.983  0.00  0.00    -0.386 OA
ATOM     13  H   UNL     1      10.746  -1.890  22.307  0.00  0.00    +0.210 HD
ENDBRANCH  11  12
BRANCH  11  14
ATOM     14  C   UNL     1       8.280  -2.768  24.103  0.00  0.00    +0.117 C 
BRANCH  14  15
ATOM     15  N   UNL     1       8.415  -4.078  23.449  0.00  0.00    -0.311 NA
ATOM     16  H   UNL     1       9.098  -3.992  22.692  0.00  0.00    +0.122 HD
BRANCH  15  18
ATOM     17  C   UNL     1       6.511  -3.525  22.040  0.00  0.00    +0.023 C 
ATOM     18  C   UNL     1       7.142  -4.595  22.931  0.00  0.00    +0.048 C 
ATOM     19  C   UNL     1       7.332  -5.884  22.126  0.00  0.00    +0.023 C 
ENDBRANCH  15  18
ENDBRANCH  14  15
ENDBRANCH  11  14
ENDBRANCH   1  11
TORSDOF 7
ENDMDL
MODEL 6
REMARK VINA RESULT:      -4.9      1.783      2.661
REMARK  Name = 
REMARK  9 active torsions:
REMARK  status: ('A' for Active; 'I' for Inactive)
REMARK    1  A    between atoms: C_1  and  C_2
REMARK    2  A    between atoms: C_2  and  C_3
REMARK    3  A    between atoms: C_2  and  N_4
REMARK    4  A    between atoms: N_4  and  C_5
REMARK    5  A    between atoms: C_5  and  C_6
REMARK    6  A    between atoms: C_6  and  O_7
REMARK    7  A    between atoms: C_6  and  C_8
REMARK    8  A    between atoms: C_10  and  O_11
REMARK    9  A    between atoms: C_13  and  O_14
REMARK                            x       y       z     vdW  Elec       q    Type
REMARK                         _______ _______ _______ _____ _____    ______ ____
ROOT
ATOM      1  C   UNL     1       8.991  -3.758  24.446  0.00  0.00    -0.011 A 
ATOM      2  C   UNL     1       9.875  -2.723  24.098  0.00  0.00    +0.051 A 
ATOM      3  C   UNL     1       9.624  -1.925  22.986  0.00  0.00    +0.121 A 
ATOM      4  C   UNL     1       8.493  -2.124  22.205  0.00  0.00    +0.090 A 
ATOM      5  C   UNL     1       7.606  -3.134  22.554  0.00  0.00    +0.121 A 
ATOM      6  C   UNL     1       7.840  -3.948  23.663  0.00  0.00    +0.051 A 
ENDROOT
BRANCH   3   7
ATOM      7  O   UNL     1      10.535  -0.955  22.686  0.00  0.00    -0.507 OA
ATOM      8  H   UNL     1      11.425  -1.337  22.768  0.00  0.00    +0.292 HD
ENDBRANCH   3   7
BRANCH   5   9
ATOM      9  O   UNL     1       6.507  -3.310  21.766  0.00  0.00    -0.507 OA
ATOM     10  H   UNL     1       6.234  -2.447  21.413  0.00  0.00    +0.292 HD
ENDBRANCH   5   9
BRANCH   1  11
ATOM     11  C   UNL     1       9.286  -4.699  25.600  0.00  0.00    +0.158 C 
BRANCH  11  12
ATOM     12  O   UNL     1      10.421  -5.512  25.297  0.00  0.00    -0.386 OA
ATOM     13  H   UNL     1      11.145  -5.233  25.881  0.00  0.00    +0.210 HD
ENDBRANCH  11  12
BRANCH  11  14
ATOM     14  C   UNL     1       8.055  -5.583  25.928  0.00  0.00    +0.117 C 
BRANCH  14  15
ATOM     15  N   UNL     1       7.797  -5.650  27.374  0.00  0.00    -0.311 NA
ATOM     16  H   UNL     1       8.054  -6.582  27.705  0.00  0.00    +0.122 HD
BRANCH  15  18
ATOM     17  C   UNL     1       6.103  -3.905  27.320  0.00  0.00    +0.023 C 
ATOM     18  C   UNL     1       6.402  -5.350  27.722  0.00  0.00    +0.048 C 
ATOM     19  C   UNL     1       5.421  -6.290  27.016  0.00  0.00    +0.023 C 
ENDBRANCH  15  18
ENDBRANCH  14  15
ENDBRANCH  11  14
ENDBRANCH   1  11
TORSDOF 7
ENDMDL
MODEL 7
REMARK VINA RESULT:      -4.9      3.707      5.285
REMARK  Name = 
REMARK  9 active torsions:
REMARK  status: ('A' for Active; 'I' for Inactive)
REMARK    1  A    between atoms: C_1  and  C_2
REMARK    2  A    between atoms: C_2  and  C_3
REMARK    3  A    between atoms: C_2  and  N_4
REMARK    4  A    between atoms: N_4  and  C_5
REMARK    5  A    between atoms: C_5  and  C_6
REMARK    6  A    between atoms: C_6  and  O_7
REMARK    7  A    between atoms: C_6  and  C_8
REMARK    8  A    between atoms: C_10  and  O_11
REMARK    9  A    between atoms: C_13  and  O_14
REMARK                            x       y       z     vdW  Elec       q    Type
REMARK                         _______ _______ _______ _____ _____    ______ ____
ROOT
ATOM      1  C   UNL     1       8.807  -0.559  22.782  0.00  0.00    -0.011 A 
ATOM      2  C   UNL     1       9.811   0.322  22.347  0.00  0.00    +0.051 A 
ATOM      3  C   UNL     1       9.492   1.625  21.974  0.00  0.00    +0.121 A 
ATOM      4  C   UNL     1       8.184   2.086  22.035  0.00  0.00    +0.090 A 
ATOM      5  C   UNL     1       7.190   1.225  22.482  0.00  0.00    +0.121 A 
ATOM      6  C   UNL     1       7.486  -0.086  22.857  0.00  0.00    +0.051 A 
ENDROOT
BRANCH   3   7
ATOM      7  O   UNL     1      10.509   2.422  21.535  0.00  0.00    -0.507 OA
ATOM      8  H   UNL     1      11.240   2.365  22.174  0.00  0.00    +0.292 HD
ENDBRANCH   3   7
BRANCH   5   9
ATOM      9  O   UNL     1       5.913   1.703  22.526  0.00  0.00    -0.507 OA
ATOM     10  H   UNL     1       5.941   2.673  22.473  0.00  0.00    +0.292 HD
ENDBRANCH   5   9
BRANCH   1  11
ATOM     11  C   UNL     1       9.112  -2.008  23.110  0.00  0.00    +0.158 C 
BRANCH  11  12
ATOM     12  O   UNL     1      10.452  -2.330  22.732  0.00  0.00    -0.386 OA
ATOM     13  H   UNL     1      10.989  -2.342  23.541  0.00  0.00    +0.210 HD
ENDBRANCH  11  12
BRANCH  11  14
ATOM     14  C   UNL     1       8.107  -2.962  22.412  0.00  0.00    +0.117 C 
BRANCH  14  15
ATOM     15  N   UNL     1       7.837  -4.161  23.220  0.00  0.00    -0.311 NA
ATOM     16  H   UNL     1       8.605  -4.822  23.083  0.00  0.00    +0.122 HD
BRANCH  15  18
ATOM     17  C   UNL     1       5.658  -3.755  22.220  0.00  0.00    +0.023 C 
ATOM     18  C   UNL     1       6.553  -4.795  22.895  0.00  0.00    +0.048 C 
ATOM     19  C   UNL     1       6.728  -5.999  21.966  0.00  0.00    +0.023 C 
ENDBRANCH  15  18
ENDBRANCH  14  15
ENDBRANCH  11  14
ENDBRANCH   1  11
TORSDOF 7
ENDMDL
MODEL 8
REMARK VINA RESULT:      -4.9      1.704      2.059
REMARK  Name = 
REMARK  9 active torsions:
REMARK  status: ('A' for Active; 'I' for Inactive)
REMARK    1  A    between atoms: C_1  and  C_2
REMARK    2  A    between atoms: C_2  and  C_3
REMARK    3  A    between atoms: C_2  and  N_4
REMARK    4  A    between atoms: N_4  and  C_5
REMARK    5  A    between atoms: C_5  and  C_6
REMARK    6  A    between atoms: C_6  and  O_7
REMARK    7  A    between atoms: C_6  and  C_8
REMARK    8  A    between atoms: C_10  and  O_11
REMARK    9  A    between atoms: C_13  and  O_14
REMARK                            x       y       z     vdW  Elec       q    Type
REMARK                         _______ _______ _______ _____ _____    ______ ____
ROOT
ATOM      1  C   UNL     1       9.078  -3.818  24.426  0.00  0.00    -0.011 A 
ATOM      2  C   UNL     1       7.924  -4.084  23.670  0.00  0.00    +0.051 A 
ATOM      3  C   UNL     1       7.591  -3.277  22.585  0.00  0.00    +0.121 A 
ATOM      4  C   UNL     1       8.392  -2.204  22.220  0.00  0.00    +0.090 A 
ATOM      5  C   UNL     1       9.544  -1.947  22.953  0.00  0.00    +0.121 A 
ATOM      6  C   UNL     1       9.895  -2.740  24.045  0.00  0.00    +0.051 A 
ENDROOT
BRANCH   3   7
ATOM      7  O   UNL     1       6.443  -3.572  21.909  0.00  0.00    -0.507 OA
ATOM      8  H   UNL     1       6.642  -3.575  20.957  0.00  0.00    +0.292 HD
ENDBRANCH   3   7
BRANCH   5   9
ATOM      9  O   UNL     1      10.309  -0.883  22.574  0.00  0.00    -0.507 OA
ATOM     10  H   UNL     1       9.809  -0.350  21.935  0.00  0.00    +0.292 HD
ENDBRANCH   5   9
BRANCH   1  11
ATOM     11  C   UNL     1       9.418  -4.625  25.665  0.00  0.00    +0.158 C 
BRANCH  11  12
ATOM     12  O   UNL     1       9.619  -5.997  25.321  0.00  0.00    -0.386 OA
ATOM     13  H   UNL     1       9.289  -6.535  26.060  0.00  0.00    +0.210 HD
ENDBRANCH  11  12
BRANCH  11  14
ATOM     14  C   UNL     1       8.309  -4.492  26.741  0.00  0.00    +0.117 C 
BRANCH  14  15
ATOM     15  N   UNL     1       7.775  -5.802  27.144  0.00  0.00    -0.311 NA
ATOM     16  H   UNL     1       8.087  -6.500  26.465  0.00  0.00    +0.122 HD
BRANCH  15  18
ATOM     17  C   UNL     1       5.858  -4.480  27.847  0.00  0.00    +0.023 C 
ATOM     18  C   UNL     1       6.311  -5.816  27.255  0.00  0.00    +0.048 C 
ATOM     19  C   UNL     1       5.635  -6.027  25.897  0.00  0.00    +0.023 C 
ENDBRANCH  15  18
ENDBRANCH  14  15
ENDBRANCH  11  14
ENDBRANCH   1  11
TORSDOF 7
ENDMDL
MODEL 9
REMARK VINA RESULT:      -4.8      2.202      4.699
REMARK  Name = 
REMARK  9 active torsions:
REMARK  status: ('A' for Active; 'I' for Inactive)
REMARK    1  A    between atoms: C_1  and  C_2
REMARK    2  A    between atoms: C_2  and  C_3
REMARK    3  A    between atoms: C_2  and  N_4
REMARK    4  A    between atoms: N_4  and  C_5
REMARK    5  A    between atoms: C_5  and  C_6
REMARK    6  A    between atoms: C_6  and  O_7
REMARK    7  A    between atoms: C_6  and  C_8
REMARK    8  A    between atoms: C_10  and  O_11
REMARK    9  A    between atoms: C_13  and  O_14
REMARK                            x       y       z     vdW  Elec       q    Type
REMARK                         _______ _______ _______ _____ _____    ______ ____
ROOT
ATOM      1  C   UNL     1       7.449  -3.428  24.486  0.00  0.00    -0.011 A 
ATOM      2  C   UNL     1       6.745  -3.548  25.695  0.00  0.00    +0.051 A 
ATOM      3  C   UNL     1       7.234  -4.356  26.718  0.00  0.00    +0.121 A 
ATOM      4  C   UNL     1       8.428  -5.049  26.573  0.00  0.00    +0.090 A 
ATOM      5  C   UNL     1       9.139  -4.919  25.386  0.00  0.00    +0.121 A 
ATOM      6  C   UNL     1       8.666  -4.117  24.347  0.00  0.00    +0.051 A 
ENDROOT
BRANCH   3   7
ATOM      7  O   UNL     1       6.489  -4.452  27.857  0.00  0.00    -0.507 OA
ATOM      8  H   UNL     1       6.555  -3.609  28.337  0.00  0.00    +0.292 HD
ENDBRANCH   3   7
BRANCH   5   9
ATOM      9  O   UNL     1      10.306  -5.615  25.269  0.00  0.00    -0.507 OA
ATOM     10  H   UNL     1      11.018  -5.104  25.689  0.00  0.00    +0.292 HD
ENDBRANCH   5   9
BRANCH   1  11
ATOM     11  C   UNL     1       6.896  -2.626  23.323  0.00  0.00    +0.158 C 
BRANCH  11  12
ATOM     12  O   UNL     1       5.701  -1.948  23.714  0.00  0.00    -0.386 OA
ATOM     13  H   UNL     1       4.966  -2.339  23.213  0.00  0.00    +0.210 HD
ENDBRANCH  11  12
BRANCH  11  14
ATOM     14  C   UNL     1       6.629  -3.534  22.095  0.00  0.00    +0.117 C 
BRANCH  14  15
ATOM     15  N   UNL     1       5.323  -4.205  22.182  0.00  0.00    -0.311 NA
ATOM     16  H   UNL     1       4.841  -3.864  23.017  0.00  0.00    +0.122 HD
BRANCH  15  18
ATOM     17  C   UNL     1       6.845  -6.059  21.781  0.00  0.00    +0.023 C 
ATOM     18  C   UNL     1       5.432  -5.669  22.217  0.00  0.00    +0.048 C 
ATOM     19  C   UNL     1       5.154  -6.231  23.614  0.00  0.00    +0.023 C 
ENDBRANCH  15  18
ENDBRANCH  14  15
ENDBRANCH  11  14
ENDBRANCH   1  11
TORSDOF 7
ENDMDL
