MODEL 1
REMARK VINA RESULT:      -5.2      0.000      0.000
REMARK  Name = 
REMARK  6 active torsions:
REMARK  status: ('A' for Active; 'I' for Inactive)
REMARK    1  A    between atoms: N_1  and  CA_2
REMARK    2  A    between atoms: CA_2  and  C_4
REMARK    3  A    between atoms: CA_2  and  C_12
REMARK    4  A    between atoms: C_4  and  C_5
REMARK    5  A    between atoms: C_9  and  O_10
REMARK    6  A    between atoms: C_12  and  O_13
REMARK                            x       y       z     vdW  Elec       q    Type
REMARK                         _______ _______ _______ _____ _____    ______ ____
ROOT
ATOM      1  C   UNL     1       8.653  -3.804  24.134  0.00  0.00    +0.065 C 
ENDROOT
BRANCH   1   2
ATOM      2  C   UNL     1       9.140  -2.427  23.741  0.00  0.00    -0.042 A 
ATOM      3  C   UNL     1       9.553  -1.509  24.716  0.00  0.00    +0.049 A 
ATOM      4  C   UNL     1      10.108  -0.290  24.339  0.00  0.00    +0.117 A 
ATOM      5  C   UNL     1      10.215   0.062  22.998  0.00  0.00    +0.045 A 
ATOM      6  C   UNL     1       9.768  -0.828  22.022  0.00  0.00    +0.004 A 
ATOM      7  C   UNL     1       9.242  -2.068  22.389  0.00  0.00    +0.004 A 
BRANCH   4   8
ATOM      8  O   UNL     1      10.565   0.526  25.329  0.00  0.00    -0.507 OA
ATOM      9  H   UNL     1      11.513   0.683  25.184  0.00  0.00    +0.292 HD
ENDBRANCH   4   8
ENDBRANCH   1   2
BRANCH   1  10
ATOM     10  CA  UNL     1       9.267  -4.349  25.439  0.00  0.00    +0.165 C 
BRANCH  10  11
ATOM     11  N   UNL     1       9.994  -5.651  25.281  0.00  0.00    -0.318 NA
ATOM     12  H1  UNL     1      10.995  -5.448  25.172  0.00  0.00    +0.119 HD
ATOM     13  H2  UNL     1       9.943  -6.140  26.180  0.00  0.00    +0.119 HD
ENDBRANCH  10  11
BRANCH  10  14
ATOM     14  C   UNL     1       8.203  -4.503  26.537  0.00  0.00    +0.322 C 
ATOM     15  OXT UNL     1       7.371  -3.660  26.838  0.00  0.00    -0.249 OA
BRANCH  14  16
ATOM     16  O   UNL     1       8.311  -5.702  27.170  0.00  0.00    -0.480 OA
ATOM     17  H   UNL     1       9.192  -5.685  27.620  0.00  0.00    +0.295 HD
ENDBRANCH  14  16
ENDBRANCH  10  14
ENDBRANCH   1  10
TORSDOF 6
ENDMDL
MODEL 2
REMARK VINA RESULT:      -5.2      4.730      6.618
REMARK  Name = 
REMARK  6 active torsions:
REMARK  status: ('A' for Active; 'I' for Inactive)
REMARK    1  A    between atoms: N_1  and  CA_2
REMARK    2  A    between atoms: CA_2  and  C_4
REMARK    3  A    between atoms: CA_2  and  C_12
REMARK    4  A    between atoms: C_4  and  C_5
REMARK    5  A    between atoms: C_9  and  O_10
REMARK    6  A    between atoms: C_12  and  O_13
REMARK                            x       y       z     vdW  Elec       q    Type
REMARK                         _______ _______ _______ _____ _____    ______ ____
ROOT
ATOM      1  C   UNL     1       9.436   2.371  23.382  0.00  0.00    +0.065 C 
ENDROOT
BRANCH   1   2
ATOM      2  C   UNL     1      10.223   3.644  23.597  0.00  0.00    -0.042 A 
ATOM      3  C   UNL     1      11.614   3.665  23.418  0.00  0.00    +0.049 A 
ATOM      4  C   UNL     1      12.312   4.865  23.504  0.00  0.00    +0.117 A 
ATOM      5  C   UNL     1      11.658   6.051  23.821  0.00  0.00    +0.045 A 
ATOM      6  C   UNL     1      10.282   6.032  24.042  0.00  0.00    +0.004 A 
ATOM      7  C   UNL     1       9.567   4.840  23.922  0.00  0.00    +0.004 A 
BRANCH   4   8
ATOM      8  O   UNL     1      13.647   4.835  23.241  0.00  0.00    -0.507 OA
ATOM      9  H   UNL     1      14.012   4.005  23.593  0.00  0.00    +0.292 HD
ENDBRANCH   4   8
ENDBRANCH   1   2
BRANCH   1  10
ATOM     10  CA  UNL     1       9.835   1.580  22.119  0.00  0.00    +0.165 C 
BRANCH  10  11
ATOM     11  N   UNL     1       8.804   1.598  21.030  0.00  0.00    -0.318 NA
ATOM     12  H1  UNL     1       9.286   1.486  20.130  0.00  0.00    +0.119 HD
ATOM     13  H2  UNL     1       8.253   0.739  21.117  0.00  0.00    +0.119 HD
ENDBRANCH  10  11
BRANCH  10  14
ATOM     14  C   UNL     1      10.178   0.121  22.457  0.00  0.00    +0.322 C 
ATOM     15  OXT UNL     1      10.605  -0.274  23.531  0.00  0.00    -0.249 OA
BRANCH  14  16
ATOM     16  O   UNL     1       9.973  -0.698  21.390  0.00  0.00    -0.480 OA
ATOM     17  H   UNL     1      10.722  -1.344  21.405  0.00  0.00    +0.295 HD
ENDBRANCH  14  16
ENDBRANCH  10  14
ENDBRANCH   1  10
TORSDOF 6
ENDMDL
MODEL 3
REMARK VINA RESULT:      -5.0      1.439      1.963
REMARK  Name = 
REMARK  6 active torsions:
REMARK  status: ('A' for Active; 'I' for Inactive)
REMARK    1  A    between atoms: N_1  and  CA_2
REMARK    2  A    between atoms: CA_2  and  C_4
REMARK    3  A    between atoms: CA_2  and  C_12
REMARK    4  A    between atoms: C_4  and  C_5
REMARK    5  A    between atoms: C_9  and  O_10
REMARK    6  A    between atoms: C_12  and  O_13
REMARK                            x       y       z     vdW  Elec       q    Type
REMARK                         _______ _______ _______ _____ _____    ______ ____
ROOT
ATOM      1  C   UNL     1       8.425  -4.039  24.046  0.00  0.00    +0.065 C 
ENDROOT
BRANCH   1   2
ATOM      2  C   UNL     1       8.992  -2.671  23.740  0.00  0.00    -0.042 A 
ATOM      3  C   UNL     1       9.098  -2.220  22.416  0.00  0.00    +0.049 A 
ATOM      4  C   UNL     1       9.512  -0.919  22.152  0.00  0.00    +0.117 A 
ATOM      5  C   UNL     1       9.877  -0.061  23.184  0.00  0.00    +0.045 A 
ATOM      6  C   UNL     1       9.815  -0.515  24.501  0.00  0.00    +0.004 A 
ATOM      7  C   UNL     1       9.367  -1.807  24.779  0.00  0.00    +0.004 A 
BRANCH   4   8
ATOM      8  O   UNL     1       9.519  -0.513  20.852  0.00  0.00    -0.507 OA
ATOM      9  H   UNL     1      10.422  -0.608  20.505  0.00  0.00    +0.292 HD
ENDBRANCH   4   8
ENDBRANCH   1   2
BRANCH   1  10
ATOM     10  CA  UNL     1       8.916  -4.651  25.373  0.00  0.00    +0.165 C 
BRANCH  10  11
ATOM     11  N   UNL     1       9.896  -5.774  25.208  0.00  0.00    -0.318 NA
ATOM     12  H1  UNL     1       9.637  -6.307  24.369  0.00  0.00    +0.119 HD
ATOM     13  H2  UNL     1      10.799  -5.358  24.960  0.00  0.00    +0.119 HD
ENDBRANCH  10  11
BRANCH  10  14
ATOM     14  C   UNL     1       7.740  -5.138  26.235  0.00  0.00    +0.322 C 
ATOM     15  OXT UNL     1       6.560  -4.910  26.014  0.00  0.00    -0.249 OA
BRANCH  14  16
ATOM     16  O   UNL     1       8.174  -5.845  27.313  0.00  0.00    -0.480 OA
ATOM     17  H   UNL     1       7.824  -5.364  28.103  0.00  0.00    +0.295 HD
ENDBRANCH  14  16
ENDBRANCH  10  14
ENDBRANCH   1  10
TORSDOF 6
ENDMDL
MODEL 4
REMARK VINA RESULT:      -5.0      3.338      3.957
REMARK  Name = 
REMARK  6 active torsions:
REMARK  status: ('A' for Active; 'I' for Inactive)
REMARK    1  A    between atoms: N_1  and  CA_2
REMARK    2  A    between atoms: CA_2  and  C_4
REMARK    3  A    between atoms: CA_2  and  C_12
REMARK    4  A    between atoms: C_4  and  C_5
REMARK    5  A    between atoms: C_9  and  O_10
REMARK    6  A    between atoms: C_12  and  O_13
REMARK                            x       y       z     vdW  Elec       q    Type
REMARK                         _______ _______ _______ _____ _____    ______ ____
ROOT
ATOM      1  C   UNL     1       8.744  -2.282  22.803  0.00  0.00    +0.065 C 
ENDROOT
BRANCH   1   2
ATOM      2  C   UNL     1       9.415  -0.965  23.122  0.00  0.00    -0.042 A 
ATOM      3  C   UNL     1       9.551   0.026  22.140  0.00  0.00    +0.049 A 
ATOM      4  C   UNL     1      10.064   1.275  22.473  0.00  0.00    +0.117 A 
ATOM      5  C   UNL     1      10.498   1.548  23.766  0.00  0.00    +0.045 A 
ATOM      6  C   UNL     1      10.405   0.555  24.740  0.00  0.00    +0.004 A 
ATOM      7  C   UNL     1       9.859  -0.691  24.424  0.00  0.00    +0.004 A 
BRANCH   4   8
ATOM      8  O   UNL     1      10.097   2.222  21.496  0.00  0.00    -0.507 OA
ATOM      9  H   UNL     1      10.879   2.062  20.940  0.00  0.00    +0.292 HD
ENDBRANCH   4   8
ENDBRANCH   1   2
BRANCH   1  10
ATOM     10  CA  UNL     1       7.294  -2.153  22.294  0.00  0.00    +0.165 C 
BRANCH  10  11
ATOM     11  N   UNL     1       6.390  -1.372  23.201  0.00  0.00    -0.318 NA
ATOM     12  H1  UNL     1       6.793  -1.386  24.145  0.00  0.00    +0.119 HD
ATOM     13  H2  UNL     1       6.457  -0.388  22.925  0.00  0.00    +0.119 HD
ENDBRANCH  10  11
BRANCH  10  14
ATOM     14  C   UNL     1       6.668  -3.531  22.031  0.00  0.00    +0.322 C 
ATOM     15  OXT UNL     1       7.265  -4.597  22.063  0.00  0.00    -0.249 OA
BRANCH  14  16
ATOM     16  O   UNL     1       5.346  -3.426  21.724  0.00  0.00    -0.480 OA
ATOM     17  H   UNL     1       5.105  -2.486  21.914  0.00  0.00    +0.295 HD
ENDBRANCH  14  16
ENDBRANCH  10  14
ENDBRANCH   1  10
TORSDOF 6
ENDMDL
MODEL 5
REMARK VINA RESULT:      -4.9      2.323      3.114
REMARK  Name = 
REMARK  6 active torsions:
REMARK  status: ('A' for Active; 'I' for Inactive)
REMARK    1  A    between atoms: N_1  and  CA_2
REMARK    2  A    between atoms: CA_2  and  C_4
REMARK    3  A    between atoms: CA_2  and  C_12
REMARK    4  A    between atoms: C_4  and  C_5
REMARK    5  A    between atoms: C_9  and  O_10
REMARK    6  A    between atoms: C_12  and  O_13
REMARK                            x       y       z     vdW  Elec       q    Type
REMARK                         _______ _______ _______ _____ _____    ______ ____
ROOT
ATOM      1  C   UNL     1      10.221  -2.242  23.201  0.00  0.00    +0.065 C 
ENDROOT
BRANCH   1   2
ATOM      2  C   UNL     1      10.133  -0.745  23.395  0.00  0.00    -0.042 A 
ATOM      3  C   UNL     1      10.055   0.117  22.292  0.00  0.00    +0.049 A 
ATOM      4  C   UNL     1       9.858   1.480  22.482  0.00  0.00    +0.117 A 
ATOM      5  C   UNL     1       9.788   2.021  23.761  0.00  0.00    +0.045 A 
ATOM      6  C   UNL     1       9.906   1.177  24.865  0.00  0.00    +0.004 A 
ATOM      7  C   UNL     1      10.069  -0.197  24.685  0.00  0.00    +0.004 A 
BRANCH   4   8
ATOM      8  O   UNL     1       9.710   2.255  21.372  0.00  0.00    -0.507 OA
ATOM      9  H   UNL     1       8.865   2.731  21.440  0.00  0.00    +0.292 HD
ENDBRANCH   4   8
ENDBRANCH   1   2
BRANCH   1  10
ATOM     10  CA  UNL     1       9.191  -3.052  24.014  0.00  0.00    +0.165 C 
BRANCH  10  11
ATOM     11  N   UNL     1       9.752  -4.278  24.671  0.00  0.00    -0.318 NA
ATOM     12  H1  UNL     1       9.447  -5.098  24.135  0.00  0.00    +0.119 HD
ATOM     13  H2  UNL     1      10.767  -4.262  24.531  0.00  0.00    +0.119 HD
ENDBRANCH  10  11
BRANCH  10  14
ATOM     14  C   UNL     1       7.987  -3.457  23.149  0.00  0.00    +0.322 C 
ATOM     15  OXT UNL     1       7.442  -2.744  22.319  0.00  0.00    -0.249 OA
BRANCH  14  16
ATOM     16  O   UNL     1       7.569  -4.719  23.438  0.00  0.00    -0.480 OA
ATOM     17  H   UNL     1       6.996  -4.630  24.240  0.00  0.00    +0.295 HD
ENDBRANCH  14  16
ENDBRANCH  10  14
ENDBRANCH   1  10
TORSDOF 6
ENDMDL
MODEL 6
REMARK VINA RESULT:      -4.9      1.898      2.068
REMARK  Name = 
REMARK  6 active torsions:
REMARK  status: ('A' for Active; 'I' for Inactive)
REMARK    1  A    between atoms: N_1  and  CA_2
REMARK    2  A    between atoms: CA_2  and  C_4
REMARK    3  A    between atoms: CA_2  and  C_12
REMARK    4  A    between atoms: C_4  and  C_5
REMARK    5  A    between atoms: C_9  and  O_10
REMARK    6  A    between atoms: C_12  and  O_13
REMARK                            x       y       z     vdW  Elec       q    Type
REMARK                         _______ _______ _______ _____ _____    ______ ____
ROOT
ATOM      1  C   UNL     1       9.986  -2.753  23.965  0.00  0.00    +0.065 C 
ENDROOT
BRANCH   1   2
ATOM      2  C   UNL     1       9.875  -1.401  23.298  0.00  0.00    -0.042 A 
ATOM      3  C   UNL     1      10.273  -0.236  23.970  0.00  0.00    +0.049 A 
ATOM      4  C   UNL     1      10.276   0.987  23.308  0.00  0.00    +0.117 A 
ATOM      5  C   UNL     1       9.838   1.089  21.993  0.00  0.00    +0.045 A 
ATOM      6  C   UNL     1       9.401  -0.057  21.329  0.00  0.00    +0.004 A 
ATOM      7  C   UNL     1       9.428  -1.295  21.973  0.00  0.00    +0.004 A 
BRANCH   4   8
ATOM      8  O   UNL     1      10.748   2.068  23.988  0.00  0.00    -0.507 OA
ATOM      9  H   UNL     1      10.099   2.309  24.671  0.00  0.00    +0.292 HD
ENDBRANCH   4   8
ENDBRANCH   1   2
BRANCH   1  10
ATOM     10  CA  UNL     1       8.666  -3.283  24.559  0.00  0.00    +0.165 C 
BRANCH  10  11
ATOM     11  N   UNL     1       8.507  -3.034  26.029  0.00  0.00    -0.318 NA
ATOM     12  H1  UNL     1       8.182  -2.069  26.159  0.00  0.00    +0.119 HD
ATOM     13  H2  UNL     1       7.717  -3.601  26.351  0.00  0.00    +0.119 HD
ENDBRANCH  10  11
BRANCH  10  14
ATOM     14  C   UNL     1       8.490  -4.785  24.285  0.00  0.00    +0.322 C 
ATOM     15  OXT UNL     1       7.481  -5.309  23.838  0.00  0.00    -0.249 OA
BRANCH  14  16
ATOM     16  O   UNL     1       9.604  -5.486  24.630  0.00  0.00    -0.480 OA
ATOM     17  H   UNL     1      10.326  -4.814  24.705  0.00  0.00    +0.295 HD
ENDBRANCH  14  16
ENDBRANCH  10  14
ENDBRANCH   1  10
TORSDOF 6
ENDMDL
MODEL 7
REMARK VINA RESULT:      -4.8      3.017      5.244
REMARK  Name = 
REMARK  6 active torsions:
REMARK  status: ('A' for Active; 'I' for Inactive)
REMARK    1  A    between atoms: N_1  and  CA_2
REMARK    2  A    between atoms: CA_2  and  C_4
REMARK    3  A    between atoms: CA_2  and  C_12
REMARK    4  A    between atoms: C_4  and  C_5
REMARK    5  A    between atoms: C_9  and  O_10
REMARK    6  A    between atoms: C_12  and  O_13
REMARK                            x       y       z     vdW  Elec       q    Type
REMARK                         _______ _______ _______ _____ _____    ______ ____
ROOT
ATOM      1  C   UNL     1       9.915  -0.182  22.071  0.00  0.00    +0.065 C 
ENDROOT
BRANCH   1   2
ATOM      2  C   UNL     1       9.183  -1.290  22.793  0.00  0.00    -0.042 A 
ATOM      3  C   UNL     1       9.887  -2.360  23.364  0.00  0.00    +0.049 A 
ATOM      4  C   UNL     1       9.217  -3.312  24.124  0.00  0.00    +0.117 A 
ATOM      5  C   UNL     1       7.837  -3.253  24.289  0.00  0.00    +0.045 A 
ATOM      6  C   UNL     1       7.123  -2.216  23.691  0.00  0.00    +0.004 A 
ATOM      7  C   UNL     1       7.791  -1.236  22.955  0.00  0.00    +0.004 A 
BRANCH   4   8
ATOM      8  O   UNL     1       9.965  -4.282  24.719  0.00  0.00    -0.507 OA
ATOM      9  H   UNL     1      10.620  -3.854  25.296  0.00  0.00    +0.292 HD
ENDBRANCH   4   8
ENDBRANCH   1   2
BRANCH   1  10
ATOM     10  CA  UNL     1       9.685   1.225  22.660  0.00  0.00    +0.165 C 
BRANCH  10  11
ATOM     11  N   UNL     1      10.228   2.342  21.820  0.00  0.00    -0.318 NA
ATOM     12  H1  UNL     1      10.388   1.982  20.872  0.00  0.00    +0.119 HD
ATOM     13  H2  UNL     1       9.473   3.024  21.695  0.00  0.00    +0.119 HD
ENDBRANCH  10  11
BRANCH  10  14
ATOM     14  C   UNL     1      10.265   1.340  24.079  0.00  0.00    +0.322 C 
ATOM     15  OXT UNL     1      11.362   0.931  24.429  0.00  0.00    -0.249 OA
BRANCH  14  16
ATOM     16  O   UNL     1       9.387   1.941  24.927  0.00  0.00    -0.480 OA
ATOM     17  H   UNL     1       9.700   1.710  25.837  0.00  0.00    +0.295 HD
ENDBRANCH  14  16
ENDBRANCH  10  14
ENDBRANCH   1  10
TORSDOF 6
ENDMDL
MODEL 8
REMARK VINA RESULT:      -4.8      1.301      1.506
REMARK  Name = 
REMARK  6 active torsions:
REMARK  status: ('A' for Active; 'I' for Inactive)
REMARK    1  A    between atoms: N_1  and  CA_2
REMARK    2  A    between atoms: CA_2  and  C_4
REMARK    3  A    between atoms: CA_2  and  C_12
REMARK    4  A    between atoms: C_4  and  C_5
REMARK    5  A    between atoms: C_9  and  O_10
REMARK    6  A    between atoms: C_12  and  O_13
REMARK                            x       y       z     vdW  Elec       q    Type
REMARK                         _______ _______ _______ _____ _____    ______ ____
ROOT
ATOM      1  C   UNL     1       7.890  -3.209  24.488  0.00  0.00    +0.065 C 
ENDROOT
BRANCH   1   2
ATOM      2  C   UNL     1       8.702  -2.053  23.949  0.00  0.00    -0.042 A 
ATOM      3  C   UNL     1       9.274  -1.112  24.818  0.00  0.00    +0.049 A 
ATOM      4  C   UNL     1      10.113  -0.121  24.321  0.00  0.00    +0.117 A 
ATOM      5  C   UNL     1      10.360  -0.011  22.957  0.00  0.00    +0.045 A 
ATOM      6  C   UNL     1       9.763  -0.916  22.081  0.00  0.00    +0.004 A 
ATOM      7  C   UNL     1       8.947  -1.936  22.573  0.00  0.00    +0.004 A 
BRANCH   4   8
ATOM      8  O   UNL     1      10.702   0.713  25.221  0.00  0.00    -0.507 OA
ATOM      9  H   UNL     1      11.409   0.225  25.676  0.00  0.00    +0.292 HD
ENDBRANCH   4   8
ENDBRANCH   1   2
BRANCH   1  10
ATOM     10  CA  UNL     1       8.431  -4.602  24.105  0.00  0.00    +0.165 C 
BRANCH  10  11
ATOM     11  N   UNL     1       7.482  -5.428  23.289  0.00  0.00    -0.318 NA
ATOM     12  H1  UNL     1       7.496  -5.074  22.325  0.00  0.00    +0.119 HD
ATOM     13  H2  UNL     1       7.887  -6.366  23.208  0.00  0.00    +0.119 HD
ENDBRANCH  10  11
BRANCH  10  14
ATOM     14  C   UNL     1       8.846  -5.403  25.349  0.00  0.00    +0.322 C 
ATOM     15  OXT UNL     1       8.099  -5.737  26.257  0.00  0.00    -0.249 OA
BRANCH  14  16
ATOM     16  O   UNL     1      10.178  -5.684  25.338  0.00  0.00    -0.480 OA
ATOM     17  H   UNL     1      10.394  -5.900  24.397  0.00  0.00    +0.295 HD
ENDBRANCH  14  16
ENDBRANCH  10  14
ENDBRANCH   1  10
TORSDOF 6
ENDMDL
MODEL 9
REMARK VINA RESULT:      -4.8      2.593      5.194
REMARK  Name = 
REMARK  6 active torsions:
REMARK  status: ('A' for Active; 'I' for Inactive)
REMARK    1  A    between atoms: N_1  and  CA_2
REMARK    2  A    between atoms: CA_2  and  C_4
REMARK    3  A    between atoms: CA_2  and  C_12
REMARK    4  A    between atoms: C_4  and  C_5
REMARK    5  A    between atoms: C_9  and  O_10
REMARK    6  A    between atoms: C_12  and  O_13
REMARK                            x       y       z     vdW  Elec       q    Type
REMARK                         _______ _______ _______ _____ _____    ______ ____
ROOT
ATOM      1  C   UNL     1       8.498  -1.270  24.114  0.00  0.00    +0.065 C 
ENDROOT
BRANCH   1   2
ATOM      2  C   UNL     1       8.326  -2.685  24.619  0.00  0.00    -0.042 A 
ATOM      3  C   UNL     1       9.421  -3.560  24.683  0.00  0.00    +0.049 A 
ATOM      4  C   UNL     1       9.277  -4.818  25.257  0.00  0.00    +0.117 A 
ATOM      5  C   UNL     1       8.043  -5.253  25.727  0.00  0.00    +0.045 A 
ATOM      6  C   UNL     1       6.940  -4.405  25.630  0.00  0.00    +0.004 A 
ATOM      7  C   UNL     1       7.081  -3.127  25.089  0.00  0.00    +0.004 A 
BRANCH   4   8
ATOM      8  O   UNL     1      10.392  -5.592  25.363  0.00  0.00    -0.507 OA
ATOM      9  H   UNL     1      10.787  -5.443  26.239  0.00  0.00    +0.292 HD
ENDBRANCH   4   8
ENDBRANCH   1   2
BRANCH   1  10
ATOM     10  CA  UNL     1       9.945  -0.900  23.732  0.00  0.00    +0.165 C 
BRANCH  10  11
ATOM     11  N   UNL     1      10.549   0.182  24.578  0.00  0.00    -0.318 NA
ATOM     12  H1  UNL     1       9.788   0.772  24.935  0.00  0.00    +0.119 HD
ATOM     13  H2  UNL     1      10.926  -0.263  25.420  0.00  0.00    +0.119 HD
ENDBRANCH  10  11
BRANCH  10  14
ATOM     14  C   UNL     1      10.048  -0.493  22.254  0.00  0.00    +0.322 C 
ATOM     15  OXT UNL     1       9.965   0.649  21.828  0.00  0.00    -0.249 OA
BRANCH  14  16
ATOM     16  O   UNL     1      10.220  -1.578  21.451  0.00  0.00    -0.480 OA
ATOM     17  H   UNL     1      10.468  -2.319  22.058  0.00  0.00    +0.295 HD
ENDBRANCH  14  16
ENDBRANCH  10  14
ENDBRANCH   1  10
TORSDOF 6
ENDMDL
