MODEL 1
REMARK VINA RESULT:      -6.7      0.000      0.000
REMARK  Name = 
REMARK  5 active torsions:
REMARK  status: ('A' for Active; 'I' for Inactive)
REMARK    1  A    between atoms: C_1  and  N_2
REMARK    2  A    between atoms: N_2  and  C_3
REMARK    3  A    between atoms: N_2  and  C_4
REMARK    4  A    between atoms: C_4  and  C_5
REMARK    5  A    between atoms: C_11  and  C_12
REMARK                            x       y       z     vdW  Elec       q    Type
REMARK                         _______ _______ _______ _____ _____    ______ ____
ROOT
ATOM      1  C   UNL     1       5.628  -5.230  26.871  0.00  0.00    +0.152 A 
ATOM      2  N   UNL     1       6.600  -5.241  25.881  0.00  0.00    -0.280 N 
ATOM      3  C   UNL     1       7.795  -5.222  26.570  0.00  0.00    +0.159 A 
ATOM      4  C   UNL     1       9.109  -5.233  25.893  0.00  0.00    +0.218 C 
ATOM      5  N   UNL     1       9.274  -4.016  25.111  0.00  0.00    -0.275 NA
ATOM      6  C   UNL     1       8.491  -3.765  24.116  0.00  0.00    +0.075 C 
ATOM      7  C   UNL     1       7.410  -4.681  23.622  0.00  0.00    +0.026 A 
ATOM      8  C   UNL     1       7.285  -4.828  22.227  0.00  0.00    +0.032 A 
ATOM      9  C   UNL     1       6.217  -5.537  21.686  0.00  0.00    +0.042 A 
ATOM     10 CL   UNL     1       6.037  -5.642  19.979  0.00  0.00    -0.084 Cl
ATOM     11  C   UNL     1       5.285  -6.143  22.518  0.00  0.00    +0.022 A 
ATOM     12  C   UNL     1       5.420  -6.041  23.904  0.00  0.00    +0.028 A 
ATOM     13  N   UNL     1       7.567  -5.261  27.865  0.00  0.00    -0.132 NA
ATOM     14  C   UNL     1       6.472  -5.303  24.470  0.00  0.00    +0.059 A 
ATOM     15  N   UNL     1       6.216  -5.256  28.055  0.00  0.00    -0.133 NA
ENDROOT
BRANCH   6  16
ATOM     16  C   UNL     1       8.679  -2.443  23.428  0.00  0.00    +0.001 A 
ATOM     17  C   UNL     1       7.629  -1.518  23.333  0.00  0.00    +0.010 A 
ATOM     18  C   UNL     1       7.832  -0.291  22.700  0.00  0.00    +0.001 A 
ATOM     19  C   UNL     1       9.086   0.027  22.179  0.00  0.00    +0.000 A 
ATOM     20  C   UNL     1      10.139  -0.880  22.290  0.00  0.00    +0.001 A 
ATOM     21  C   UNL     1       9.938  -2.112  22.914  0.00  0.00    +0.010 A 
ENDBRANCH   6  16
BRANCH   1  22
ATOM     22  C   UNL     1       4.157  -5.031  26.677  0.00  0.00    +0.160 C 
BRANCH  22  24
ATOM     23  C   UNL     1       2.896  -3.501  25.267  0.00  0.00    +0.105 C 
ATOM     24  N   UNL     1       3.775  -3.623  26.438  0.00  0.00    -0.301 NA
ATOM     25  C   UNL     1       3.086  -3.092  27.618  0.00  0.00    +0.105 C 
ENDBRANCH  22  24
ENDBRANCH   1  22
TORSDOF 3
ENDMDL
MODEL 2
REMARK VINA RESULT:      -6.4      3.772      6.547
REMARK  Name = 
REMARK  5 active torsions:
REMARK  status: ('A' for Active; 'I' for Inactive)
REMARK    1  A    between atoms: C_1  and  N_2
REMARK    2  A    between atoms: N_2  and  C_3
REMARK    3  A    between atoms: N_2  and  C_4
REMARK    4  A    between atoms: C_4  and  C_5
REMARK    5  A    between atoms: C_11  and  C_12
REMARK                            x       y       z     vdW  Elec       q    Type
REMARK                         _______ _______ _______ _____ _____    ______ ____
ROOT
ATOM      1  C   UNL     1       8.116   1.663  22.384  0.00  0.00    +0.152 A 
ATOM      2  N   UNL     1       8.195   0.518  23.164  0.00  0.00    -0.280 N 
ATOM      3  C   UNL     1       9.500   0.094  23.023  0.00  0.00    +0.159 A 
ATOM      4  C   UNL     1      10.028  -1.108  23.703  0.00  0.00    +0.218 C 
ATOM      5  N   UNL     1       9.344  -2.296  23.212  0.00  0.00    -0.275 NA
ATOM      6  C   UNL     1       8.077  -2.448  23.402  0.00  0.00    +0.075 C 
ATOM      7  C   UNL     1       7.204  -1.500  24.172  0.00  0.00    +0.026 A 
ATOM      8  C   UNL     1       6.261  -2.069  25.049  0.00  0.00    +0.032 A 
ATOM      9  C   UNL     1       5.316  -1.269  25.684  0.00  0.00    +0.042 A 
ATOM     10 CL   UNL     1       4.123  -1.989  26.692  0.00  0.00    -0.084 Cl
ATOM     11  C   UNL     1       5.319   0.106  25.491  0.00  0.00    +0.022 A 
ATOM     12  C   UNL     1       6.277   0.689  24.657  0.00  0.00    +0.028 A 
ATOM     13  N   UNL     1      10.170   0.942  22.273  0.00  0.00    -0.132 NA
ATOM     14  C   UNL     1       7.217  -0.104  23.982  0.00  0.00    +0.059 A 
ATOM     15  N   UNL     1       9.305   1.916  21.865  0.00  0.00    -0.133 NA
ENDROOT
BRANCH   6  16
ATOM     16  C   UNL     1       7.442  -3.659  22.780  0.00  0.00    +0.001 A 
ATOM     17  C   UNL     1       6.487  -3.536  21.760  0.00  0.00    +0.010 A 
ATOM     18  C   UNL     1       5.923  -4.677  21.190  0.00  0.00    +0.001 A 
ATOM     19  C   UNL     1       6.322  -5.943  21.617  0.00  0.00    +0.000 A 
ATOM     20  C   UNL     1       7.287  -6.072  22.615  0.00  0.00    +0.001 A 
ATOM     21  C   UNL     1       7.848  -4.933  23.195  0.00  0.00    +0.010 A 
ENDBRANCH   6  16
BRANCH   1  22
ATOM     22  C   UNL     1       6.871   2.406  22.011  0.00  0.00    +0.160 C 
BRANCH  22  24
ATOM     23  C   UNL     1       7.259   4.798  22.228  0.00  0.00    +0.105 C 
ATOM     24  N   UNL     1       6.632   3.614  22.830  0.00  0.00    -0.301 NA
ATOM     25  C   UNL     1       5.191   3.843  22.961  0.00  0.00    +0.105 C 
ENDBRANCH  22  24
ENDBRANCH   1  22
TORSDOF 3
ENDMDL
MODEL 3
REMARK VINA RESULT:      -6.4      3.926      6.414
REMARK  Name = 
REMARK  5 active torsions:
REMARK  status: ('A' for Active; 'I' for Inactive)
REMARK    1  A    between atoms: C_1  and  N_2
REMARK    2  A    between atoms: N_2  and  C_3
REMARK    3  A    between atoms: N_2  and  C_4
REMARK    4  A    between atoms: C_4  and  C_5
REMARK    5  A    between atoms: C_11  and  C_12
REMARK                            x       y       z     vdW  Elec       q    Type
REMARK                         _______ _______ _______ _____ _____    ______ ____
ROOT
ATOM      1  C   UNL     1       9.180  -1.942  24.359  0.00  0.00    +0.152 A 
ATOM      2  N   UNL     1       8.794  -0.850  23.596  0.00  0.00    -0.280 N 
ATOM      3  C   UNL     1       9.574  -0.929  22.461  0.00  0.00    +0.159 A 
ATOM      4  C   UNL     1       9.482   0.051  21.357  0.00  0.00    +0.218 C 
ATOM      5  N   UNL     1       9.890   1.367  21.827  0.00  0.00    -0.275 NA
ATOM      6  C   UNL     1       9.216   1.973  22.745  0.00  0.00    +0.075 C 
ATOM      7  C   UNL     1       7.951   1.455  23.366  0.00  0.00    +0.026 A 
ATOM      8  C   UNL     1       6.911   2.382  23.567  0.00  0.00    +0.032 A 
ATOM      9  C   UNL     1       5.768   2.017  24.272  0.00  0.00    +0.042 A 
ATOM     10 CL   UNL     1       4.540   3.183  24.575  0.00  0.00    -0.084 Cl
ATOM     11  C   UNL     1       5.622   0.721  24.748  0.00  0.00    +0.022 A 
ATOM     12  C   UNL     1       6.628  -0.221  24.518  0.00  0.00    +0.028 A 
ATOM     13  N   UNL     1      10.322  -2.010  22.504  0.00  0.00    -0.132 NA
ATOM     14  C   UNL     1       7.803   0.136  23.839  0.00  0.00    +0.059 A 
ATOM     15  N   UNL     1      10.085  -2.638  23.692  0.00  0.00    -0.133 NA
ENDROOT
BRANCH   6  16
ATOM     16  C   UNL     1       9.765   3.285  23.231  0.00  0.00    +0.001 A 
ATOM     17  C   UNL     1      11.144   3.540  23.228  0.00  0.00    +0.010 A 
ATOM     18  C   UNL     1      11.628   4.771  23.671  0.00  0.00    +0.001 A 
ATOM     19  C   UNL     1      10.741   5.758  24.099  0.00  0.00    +0.000 A 
ATOM     20  C   UNL     1       9.367   5.517  24.084  0.00  0.00    +0.001 A 
ATOM     21  C   UNL     1       8.879   4.284  23.649  0.00  0.00    +0.010 A 
ENDBRANCH   6  16
BRANCH   1  22
ATOM     22  C   UNL     1       8.802  -2.217  25.781  0.00  0.00    +0.160 C 
BRANCH  22  24
ATOM     23  C   UNL     1       8.892  -4.506  26.601  0.00  0.00    +0.105 C 
ATOM     24  N   UNL     1       8.055  -3.481  25.964  0.00  0.00    -0.301 NA
ATOM     25  C   UNL     1       6.871  -3.238  26.792  0.00  0.00    +0.105 C 
ENDBRANCH  22  24
ENDBRANCH   1  22
TORSDOF 3
ENDMDL
MODEL 4
REMARK VINA RESULT:      -6.4      2.695      6.186
REMARK  Name = 
REMARK  5 active torsions:
REMARK  status: ('A' for Active; 'I' for Inactive)
REMARK    1  A    between atoms: C_1  and  N_2
REMARK    2  A    between atoms: N_2  and  C_3
REMARK    3  A    between atoms: N_2  and  C_4
REMARK    4  A    between atoms: C_4  and  C_5
REMARK    5  A    between atoms: C_11  and  C_12
REMARK                            x       y       z     vdW  Elec       q    Type
REMARK                         _______ _______ _______ _____ _____    ______ ____
ROOT
ATOM      1  C   UNL     1       8.985  -2.375  23.849  0.00  0.00    +0.152 A 
ATOM      2  N   UNL     1       8.196  -2.958  24.830  0.00  0.00    -0.280 N 
ATOM      3  C   UNL     1       8.931  -4.040  25.266  0.00  0.00    +0.159 A 
ATOM      4  C   UNL     1       8.459  -4.951  26.332  0.00  0.00    +0.218 C 
ATOM      5  N   UNL     1       7.258  -5.648  25.892  0.00  0.00    -0.275 NA
ATOM      6  C   UNL     1       6.177  -4.993  25.636  0.00  0.00    +0.075 C 
ATOM      7  C   UNL     1       6.006  -3.512  25.815  0.00  0.00    +0.026 A 
ATOM      8  C   UNL     1       4.799  -3.073  26.390  0.00  0.00    +0.032 A 
ATOM      9  C   UNL     1       4.500  -1.715  26.452  0.00  0.00    +0.042 A 
ATOM     10 CL   UNL     1       2.987  -1.199  27.087  0.00  0.00    -0.084 Cl
ATOM     11  C   UNL     1       5.410  -0.776  25.985  0.00  0.00    +0.022 A 
ATOM     12  C   UNL     1       6.631  -1.196  25.452  0.00  0.00    +0.028 A 
ATOM     13  N   UNL     1      10.092  -4.074  24.648  0.00  0.00    -0.132 NA
ATOM     14  C   UNL     1       6.937  -2.562  25.350  0.00  0.00    +0.059 A 
ATOM     15  N   UNL     1      10.123  -3.042  23.756  0.00  0.00    -0.133 NA
ENDROOT
BRANCH   6  16
ATOM     16  C   UNL     1       5.019  -5.786  25.100  0.00  0.00    +0.001 A 
ATOM     17  C   UNL     1       4.419  -6.800  25.861  0.00  0.00    +0.010 A 
ATOM     18  C   UNL     1       3.336  -7.513  25.346  0.00  0.00    +0.001 A 
ATOM     19  C   UNL     1       2.834  -7.205  24.082  0.00  0.00    +0.000 A 
ATOM     20  C   UNL     1       3.413  -6.183  23.330  0.00  0.00    +0.001 A 
ATOM     21  C   UNL     1       4.502  -5.473  23.838  0.00  0.00    +0.010 A 
ENDBRANCH   6  16
BRANCH   1  22
ATOM     22  C   UNL     1       8.577  -1.291  22.900  0.00  0.00    +0.160 C 
BRANCH  22  24
ATOM     23  C   UNL     1       9.259   0.671  21.634  0.00  0.00    +0.105 C 
ATOM     24  N   UNL     1       9.580  -0.214  22.762  0.00  0.00    -0.301 NA
ATOM     25  C   UNL     1       9.630   0.574  23.997  0.00  0.00    +0.105 C 
ENDBRANCH  22  24
ENDBRANCH   1  22
TORSDOF 3
ENDMDL
MODEL 5
REMARK VINA RESULT:      -6.3      3.028      6.303
REMARK  Name = 
REMARK  5 active torsions:
REMARK  status: ('A' for Active; 'I' for Inactive)
REMARK    1  A    between atoms: C_1  and  N_2
REMARK    2  A    between atoms: N_2  and  C_3
REMARK    3  A    between atoms: N_2  and  C_4
REMARK    4  A    between atoms: C_4  and  C_5
REMARK    5  A    between atoms: C_11  and  C_12
REMARK                            x       y       z     vdW  Elec       q    Type
REMARK                         _______ _______ _______ _____ _____    ______ ____
ROOT
ATOM      1  C   UNL     1       8.948  -1.152  23.447  0.00  0.00    +0.152 A 
ATOM      2  N   UNL     1       8.518  -2.064  24.400  0.00  0.00    -0.280 N 
ATOM      3  C   UNL     1       9.397  -3.121  24.289  0.00  0.00    +0.159 A 
ATOM      4  C   UNL     1       9.308  -4.328  25.139  0.00  0.00    +0.218 C 
ATOM      5  N   UNL     1       8.063  -5.034  24.869  0.00  0.00    -0.275 NA
ATOM      6  C   UNL     1       6.927  -4.476  25.120  0.00  0.00    +0.075 C 
ATOM      7  C   UNL     1       6.753  -3.127  25.753  0.00  0.00    +0.026 A 
ATOM      8  C   UNL     1       5.756  -3.007  26.740  0.00  0.00    +0.032 A 
ATOM      9  C   UNL     1       5.430  -1.760  27.265  0.00  0.00    +0.042 A 
ATOM     10 CL   UNL     1       4.157  -1.621  28.413  0.00  0.00    -0.084 Cl
ATOM     11  C   UNL     1       6.115  -0.625  26.851  0.00  0.00    +0.022 A 
ATOM     12  C   UNL     1       7.136  -0.735  25.905  0.00  0.00    +0.028 A 
ATOM     13  N   UNL     1      10.318  -2.847  23.391  0.00  0.00    -0.132 NA
ATOM     14  C   UNL     1       7.457  -1.979  25.338  0.00  0.00    +0.059 A 
ATOM     15  N   UNL     1      10.034  -1.624  22.857  0.00  0.00    -0.133 NA
ENDROOT
BRANCH   6  16
ATOM     16  C   UNL     1       5.698  -5.244  24.723  0.00  0.00    +0.001 A 
ATOM     17  C   UNL     1       4.992  -4.930  23.552  0.00  0.00    +0.010 A 
ATOM     18  C   UNL     1       3.861  -5.666  23.199  0.00  0.00    +0.001 A 
ATOM     19  C   UNL     1       3.442  -6.730  23.997  0.00  0.00    +0.000 A 
ATOM     20  C   UNL     1       4.152  -7.060  25.151  0.00  0.00    +0.001 A 
ATOM     21  C   UNL     1       5.279  -6.321  25.513  0.00  0.00    +0.010 A 
ENDBRANCH   6  16
BRANCH   1  22
ATOM     22  C   UNL     1       8.226   0.079  22.997  0.00  0.00    +0.160 C 
BRANCH  22  24
ATOM     23  C   UNL     1       8.459   2.331  22.105  0.00  0.00    +0.105 C 
ATOM     24  N   UNL     1       9.090   1.276  22.909  0.00  0.00    -0.301 NA
ATOM     25  C   UNL     1       9.360   1.788  24.256  0.00  0.00    +0.105 C 
ENDBRANCH  22  24
ENDBRANCH   1  22
TORSDOF 3
ENDMDL
MODEL 6
REMARK VINA RESULT:      -6.1      2.861      6.192
REMARK  Name = 
REMARK  5 active torsions:
REMARK  status: ('A' for Active; 'I' for Inactive)
REMARK    1  A    between atoms: C_1  and  N_2
REMARK    2  A    between atoms: N_2  and  C_3
REMARK    3  A    between atoms: N_2  and  C_4
REMARK    4  A    between atoms: C_4  and  C_5
REMARK    5  A    between atoms: C_11  and  C_12
REMARK                            x       y       z     vdW  Elec       q    Type
REMARK                         _______ _______ _______ _____ _____    ______ ____
ROOT
ATOM      1  C   UNL     1       7.929  -2.281  23.803  0.00  0.00    +0.152 A 
ATOM      2  N   UNL     1       7.239  -3.485  23.804  0.00  0.00    -0.280 N 
ATOM      3  C   UNL     1       7.119  -3.815  22.470  0.00  0.00    +0.159 A 
ATOM      4  C   UNL     1       6.445  -5.048  22.009  0.00  0.00    +0.218 C 
ATOM      5  N   UNL     1       5.034  -5.005  22.365  0.00  0.00    -0.275 NA
ATOM      6  C   UNL     1       4.671  -4.980  23.603  0.00  0.00    +0.075 C 
ATOM      7  C   UNL     1       5.607  -5.056  24.774  0.00  0.00    +0.026 A 
ATOM      8  C   UNL     1       5.221  -5.882  25.848  0.00  0.00    +0.032 A 
ATOM      9  C   UNL     1       5.955  -5.889  27.030  0.00  0.00    +0.042 A 
ATOM     10 CL   UNL     1       5.428  -6.845  28.359  0.00  0.00    -0.084 Cl
ATOM     11  C   UNL     1       7.101  -5.114  27.148  0.00  0.00    +0.022 A 
ATOM     12  C   UNL     1       7.519  -4.323  26.076  0.00  0.00    +0.028 A 
ATOM     13  N   UNL     1       7.737  -2.922  21.729  0.00  0.00    -0.132 NA
ATOM     14  C   UNL     1       6.774  -4.275  24.887  0.00  0.00    +0.059 A 
ATOM     15  N   UNL     1       8.234  -1.959  22.558  0.00  0.00    -0.133 NA
ENDROOT
BRANCH   6  16
ATOM     16  C   UNL     1       3.199  -4.843  23.871  0.00  0.00    +0.001 A 
ATOM     17  C   UNL     1       2.714  -3.912  24.802  0.00  0.00    +0.010 A 
ATOM     18  C   UNL     1       1.342  -3.795  25.023  0.00  0.00    +0.001 A 
ATOM     19  C   UNL     1       0.448  -4.588  24.304  0.00  0.00    +0.000 A 
ATOM     20  C   UNL     1       0.923  -5.499  23.362  0.00  0.00    +0.001 A 
ATOM     21  C   UNL     1       2.296  -5.626  23.144  0.00  0.00    +0.010 A 
ENDBRANCH   6  16
BRANCH   1  22
ATOM     22  C   UNL     1       8.144  -1.373  24.974  0.00  0.00    +0.160 C 
BRANCH  22  24
ATOM     23  C   UNL     1       7.995   1.047  25.175  0.00  0.00    +0.105 C 
ATOM     24  N   UNL     1       8.758  -0.077  24.615  0.00  0.00    -0.301 NA
ATOM     25  C   UNL     1      10.134  -0.027  25.119  0.00  0.00    +0.105 C 
ENDBRANCH  22  24
ENDBRANCH   1  22
TORSDOF 3
ENDMDL
MODEL 7
REMARK VINA RESULT:      -6.1      4.582      7.270
REMARK  Name = 
REMARK  5 active torsions:
REMARK  status: ('A' for Active; 'I' for Inactive)
REMARK    1  A    between atoms: C_1  and  N_2
REMARK    2  A    between atoms: N_2  and  C_3
REMARK    3  A    between atoms: N_2  and  C_4
REMARK    4  A    between atoms: C_4  and  C_5
REMARK    5  A    between atoms: C_11  and  C_12
REMARK                            x       y       z     vdW  Elec       q    Type
REMARK                         _______ _______ _______ _____ _____    ______ ____
ROOT
ATOM      1  C   UNL     1       8.943   3.214  24.098  0.00  0.00    +0.152 A 
ATOM      2  N   UNL     1       8.988   1.958  24.686  0.00  0.00    -0.280 N 
ATOM      3  C   UNL     1      10.249   1.484  24.391  0.00  0.00    +0.159 A 
ATOM      4  C   UNL     1      10.729   0.159  24.840  0.00  0.00    +0.218 C 
ATOM      5  N   UNL     1       9.936  -0.893  24.221  0.00  0.00    -0.275 NA
ATOM      6  C   UNL     1       8.674  -0.995  24.472  0.00  0.00    +0.075 C 
ATOM      7  C   UNL     1       7.917  -0.130  25.437  0.00  0.00    +0.026 A 
ATOM      8  C   UNL     1       6.989  -0.772  26.280  0.00  0.00    +0.032 A 
ATOM      9  C   UNL     1       6.142  -0.027  27.093  0.00  0.00    +0.042 A 
ATOM     10 CL   UNL     1       4.962  -0.823  28.059  0.00  0.00    -0.084 Cl
ATOM     11  C   UNL     1       6.231   1.359  27.115  0.00  0.00    +0.022 A 
ATOM     12  C   UNL     1       7.177   2.007  26.316  0.00  0.00    +0.028 A 
ATOM     13  N   UNL     1      10.932   2.397  23.736  0.00  0.00    -0.132 NA
ATOM     14  C   UNL     1       8.018   1.275  25.464  0.00  0.00    +0.059 A 
ATOM     15  N   UNL     1      10.116   3.473  23.543  0.00  0.00    -0.133 NA
ENDROOT
BRANCH   6  16
ATOM     16  C   UNL     1       7.920  -2.053  23.717  0.00  0.00    +0.001 A 
ATOM     17  C   UNL     1       8.287  -3.404  23.797  0.00  0.00    +0.010 A 
ATOM     18  C   UNL     1       7.562  -4.368  23.096  0.00  0.00    +0.001 A 
ATOM     19  C   UNL     1       6.458  -3.993  22.331  0.00  0.00    +0.000 A 
ATOM     20  C   UNL     1       6.076  -2.654  22.265  0.00  0.00    +0.001 A 
ATOM     21  C   UNL     1       6.803  -1.684  22.957  0.00  0.00    +0.010 A 
ENDBRANCH   6  16
BRANCH   1  22
ATOM     22  C   UNL     1       7.735   4.081  23.930  0.00  0.00    +0.160 C 
BRANCH  22  24
ATOM     23  C   UNL     1       6.057   3.600  22.235  0.00  0.00    +0.105 C 
ATOM     24  N   UNL     1       7.331   4.273  22.521  0.00  0.00    -0.301 NA
ATOM     25  C   UNL     1       7.198   5.704  22.236  0.00  0.00    +0.105 C 
ENDBRANCH  22  24
ENDBRANCH   1  22
TORSDOF 3
ENDMDL
MODEL 8
REMARK VINA RESULT:      -5.8      4.307      6.700
REMARK  Name = 
REMARK  5 active torsions:
REMARK  status: ('A' for Active; 'I' for Inactive)
REMARK    1  A    between atoms: C_1  and  N_2
REMARK    2  A    between atoms: N_2  and  C_3
REMARK    3  A    between atoms: N_2  and  C_4
REMARK    4  A    between atoms: C_4  and  C_5
REMARK    5  A    between atoms: C_11  and  C_12
REMARK                            x       y       z     vdW  Elec       q    Type
REMARK                         _______ _______ _______ _____ _____    ______ ____
ROOT
ATOM      1  C   UNL     1       8.104  -2.056  25.322  0.00  0.00    +0.152 A 
ATOM      2  N   UNL     1       8.133  -0.708  25.650  0.00  0.00    -0.280 N 
ATOM      3  C   UNL     1       7.280  -0.597  26.728  0.00  0.00    +0.159 A 
ATOM      4  C   UNL     1       7.017   0.689  27.410  0.00  0.00    +0.218 C 
ATOM      5  N   UNL     1       6.356   1.609  26.496  0.00  0.00    -0.275 NA
ATOM      6  C   UNL     1       6.957   2.019  25.431  0.00  0.00    +0.075 C 
ATOM      7  C   UNL     1       8.367   1.671  25.053  0.00  0.00    +0.026 A 
ATOM      8  C   UNL     1       9.169   2.713  24.548  0.00  0.00    +0.032 A 
ATOM      9  C   UNL     1      10.434   2.443  24.034  0.00  0.00    +0.042 A 
ATOM     10 CL   UNL     1      11.369   3.714  23.351  0.00  0.00    -0.084 Cl
ATOM     11  C   UNL     1      10.937   1.149  24.054  0.00  0.00    +0.022 A 
ATOM     12  C   UNL     1      10.169   0.113  24.592  0.00  0.00    +0.028 A 
ATOM     13  N   UNL     1       6.823  -1.784  27.064  0.00  0.00    -0.132 NA
ATOM     14  C   UNL     1       8.878   0.359  25.084  0.00  0.00    +0.059 A 
ATOM     15  N   UNL     1       7.328  -2.694  26.182  0.00  0.00    -0.133 NA
ENDROOT
BRANCH   6  16
ATOM     16  C   UNL     1       6.162   2.893  24.502  0.00  0.00    +0.001 A 
ATOM     17  C   UNL     1       5.791   2.448  23.225  0.00  0.00    +0.010 A 
ATOM     18  C   UNL     1       5.042   3.273  22.387  0.00  0.00    +0.001 A 
ATOM     19  C   UNL     1       4.641   4.535  22.825  0.00  0.00    +0.000 A 
ATOM     20  C   UNL     1       4.989   4.975  24.102  0.00  0.00    +0.001 A 
ATOM     21  C   UNL     1       5.746   4.156  24.941  0.00  0.00    +0.010 A 
ENDBRANCH   6  16
BRANCH   1  22
ATOM     22  C   UNL     1       8.685  -2.690  24.097  0.00  0.00    +0.160 C 
BRANCH  22  24
ATOM     23  C   UNL     1       8.856  -1.751  21.859  0.00  0.00    +0.105 C 
ATOM     24  N   UNL     1       7.959  -2.356  22.853  0.00  0.00    -0.301 NA
ATOM     25  C   UNL     1       7.360  -3.570  22.290  0.00  0.00    +0.105 C 
ENDBRANCH  22  24
ENDBRANCH   1  22
TORSDOF 3
ENDMDL
MODEL 9
REMARK VINA RESULT:      -5.8      4.383      7.284
REMARK  Name = 
REMARK  5 active torsions:
REMARK  status: ('A' for Active; 'I' for Inactive)
REMARK    1  A    between atoms: C_1  and  N_2
REMARK    2  A    between atoms: N_2  and  C_3
REMARK    3  A    between atoms: N_2  and  C_4
REMARK    4  A    between atoms: C_4  and  C_5
REMARK    5  A    between atoms: C_11  and  C_12
REMARK                            x       y       z     vdW  Elec       q    Type
REMARK                         _______ _______ _______ _____ _____    ______ ____
ROOT
ATOM      1  C   UNL     1       7.840   1.612  22.375  0.00  0.00    +0.152 A 
ATOM      2  N   UNL     1       8.396   0.962  23.467  0.00  0.00    -0.280 N 
ATOM      3  C   UNL     1       9.544   0.377  22.974  0.00  0.00    +0.159 A 
ATOM      4  C   UNL     1      10.460  -0.422  23.816  0.00  0.00    +0.218 C 
ATOM      5  N   UNL     1       9.779  -1.616  24.295  0.00  0.00    -0.275 NA
ATOM      6  C   UNL     1       8.756  -1.519  25.075  0.00  0.00    +0.075 C 
ATOM      7  C   UNL     1       8.208  -0.231  25.616  0.00  0.00    +0.026 A 
ATOM      8  C   UNL     1       7.828  -0.216  26.972  0.00  0.00    +0.032 A 
ATOM      9  C   UNL     1       7.173   0.888  27.509  0.00  0.00    +0.042 A 
ATOM     10 CL   UNL     1       6.648   0.859  29.146  0.00  0.00    -0.084 Cl
ATOM     11  C   UNL     1       6.924   2.006  26.723  0.00  0.00    +0.022 A 
ATOM     12  C   UNL     1       7.334   2.022  25.387  0.00  0.00    +0.028 A 
ATOM     13  N   UNL     1       9.703   0.697  21.708  0.00  0.00    -0.132 NA
ATOM     14  C   UNL     1       7.966   0.905  24.818  0.00  0.00    +0.059 A 
ATOM     15  N   UNL     1       8.637   1.459  21.330  0.00  0.00    -0.133 NA
ENDROOT
BRANCH   6  16
ATOM     16  C   UNL     1       8.064  -2.801  25.443  0.00  0.00    +0.001 A 
ATOM     17  C   UNL     1       8.608  -3.673  26.396  0.00  0.00    +0.010 A 
ATOM     18  C   UNL     1       7.939  -4.851  26.729  0.00  0.00    +0.001 A 
ATOM     19  C   UNL     1       6.716  -5.153  26.130  0.00  0.00    +0.000 A 
ATOM     20  C   UNL     1       6.160  -4.279  25.197  0.00  0.00    +0.001 A 
ATOM     21  C   UNL     1       6.830  -3.104  24.854  0.00  0.00    +0.010 A 
ENDBRANCH   6  16
BRANCH   1  22
ATOM     22  C   UNL     1       6.480   2.231  22.300  0.00  0.00    +0.160 C 
BRANCH  22  24
ATOM     23  C   UNL     1       7.249   4.536  22.175  0.00  0.00    +0.105 C 
ATOM     24  N   UNL     1       6.406   3.579  22.904  0.00  0.00    -0.301 NA
ATOM     25  C   UNL     1       5.018   4.049  22.892  0.00  0.00    +0.105 C 
ENDBRANCH  22  24
ENDBRANCH   1  22
TORSDOF 3
ENDMDL
