MODEL 1
REMARK VINA RESULT:      -6.0      0.000      0.000
REMARK  Name = 
REMARK  9 active torsions:
REMARK  status: ('A' for Active; 'I' for Inactive)
REMARK    1  A    between atoms: C_1  and  C_2
REMARK    2  A    between atoms: C_2  and  C_3
REMARK    3  A    between atoms: C_2  and  N_4
REMARK    4  A    between atoms: N_4  and  C_5
REMARK    5  A    between atoms: C_5  and  C_6
REMARK    6  A    between atoms: C_6  and  O_7
REMARK    7  A    between atoms: C_6  and  C_8
REMARK    8  A    between atoms: C_8  and  O_9
REMARK    9  A    between atoms: O_9  and  C_10
REMARK                            x       y       z     vdW  Elec       q    Type
REMARK                         _______ _______ _______ _____ _____    ______ ____
ROOT
ATOM      1  O   UNL     1       9.633  -3.783  24.113  0.00  0.00    -0.489 OA
ENDROOT
BRANCH   1   2
ATOM      2  C   UNL     1       8.572  -4.260  24.857  0.00  0.00    +0.128 A 
ATOM      3  C   UNL     1       7.493  -4.864  24.154  0.00  0.00    +0.024 A 
ATOM      4  C   UNL     1       6.379  -5.337  24.895  0.00  0.00    -0.014 A 
ATOM      5  C   UNL     1       5.292  -5.939  24.238  0.00  0.00    +0.008 A 
ATOM      6  C   UNL     1       5.283  -6.081  22.855  0.00  0.00    +0.001 A 
ATOM      7  C   UNL     1       6.368  -5.630  22.106  0.00  0.00    +0.001 A 
ATOM      8  C   UNL     1       6.355  -5.203  26.289  0.00  0.00    +0.009 A 
ATOM      9  C   UNL     1       7.410  -4.602  26.962  0.00  0.00    +0.004 A 
ATOM     10  C   UNL     1       7.459  -5.031  22.748  0.00  0.00    +0.012 A 
ATOM     11  C   UNL     1       8.507  -4.130  26.251  0.00  0.00    +0.046 A 
ENDBRANCH   1   2
BRANCH   1  12
ATOM     12  C   UNL     1       9.714  -2.353  23.990  0.00  0.00    +0.261 C 
BRANCH  12  13
ATOM     13  C   UNL     1       9.370  -1.920  22.562  0.00  0.00    +0.166 C 
BRANCH  13  14
ATOM     14  O   UNL     1      10.579  -1.717  21.812  0.00  0.00    -0.387 OA
ATOM     15  H   UNL     1      10.318  -1.245  21.000  0.00  0.00    +0.210 HD
ENDBRANCH  13  14
BRANCH  13  16
ATOM     16  C   UNL     1       8.530  -0.636  22.546  0.00  0.00    +0.115 C 
BRANCH  16  17
ATOM     17  N   UNL     1       8.760   0.114  23.786  0.00  0.00    -0.311 NA
ATOM     18  H   UNL     1       7.849   0.317  24.207  0.00  0.00    +0.122 HD
BRANCH  17  20
ATOM     19  C   UNL     1      10.889   1.193  24.237  0.00  0.00    +0.023 C 
ATOM     20  C   UNL     1       9.517   1.353  23.579  0.00  0.00    +0.048 C 
ATOM     21  C   UNL     1       9.694   1.663  22.091  0.00  0.00    +0.023 C 
ENDBRANCH  17  20
ENDBRANCH  16  17
ENDBRANCH  13  16
ENDBRANCH  12  13
ENDBRANCH   1  12
TORSDOF 7
ENDMDL
MODEL 2
REMARK VINA RESULT:      -5.9      1.413      2.098
REMARK  Name = 
REMARK  9 active torsions:
REMARK  status: ('A' for Active; 'I' for Inactive)
REMARK    1  A    between atoms: C_1  and  C_2
REMARK    2  A    between atoms: C_2  and  C_3
REMARK    3  A    between atoms: C_2  and  N_4
REMARK    4  A    between atoms: N_4  and  C_5
REMARK    5  A    between atoms: C_5  and  C_6
REMARK    6  A    between atoms: C_6  and  O_7
REMARK    7  A    between atoms: C_6  and  C_8
REMARK    8  A    between atoms: C_8  and  O_9
REMARK    9  A    between atoms: O_9  and  C_10
REMARK                            x       y       z     vdW  Elec       q    Type
REMARK                         _______ _______ _______ _____ _____    ______ ____
ROOT
ATOM      1  O   UNL     1       9.727  -3.801  23.978  0.00  0.00    -0.489 OA
ENDROOT
BRANCH   1   2
ATOM      2  C   UNL     1       8.678  -4.187  24.789  0.00  0.00    +0.128 A 
ATOM      3  C   UNL     1       7.583  -4.856  24.176  0.00  0.00    +0.024 A 
ATOM      4  C   UNL     1       6.481  -5.238  24.984  0.00  0.00    -0.014 A 
ATOM      5  C   UNL     1       5.378  -5.899  24.418  0.00  0.00    +0.008 A 
ATOM      6  C   UNL     1       5.342  -6.190  23.059  0.00  0.00    +0.001 A 
ATOM      7  C   UNL     1       6.414  -5.832  22.245  0.00  0.00    +0.001 A 
ATOM      8  C   UNL     1       6.485  -4.953  26.356  0.00  0.00    +0.009 A 
ATOM      9  C   UNL     1       7.556  -4.290  26.940  0.00  0.00    +0.004 A 
ATOM     10  C   UNL     1       7.521  -5.174  22.797  0.00  0.00    +0.012 A 
ATOM     11  C   UNL     1       8.642  -3.906  26.162  0.00  0.00    +0.046 A 
ENDBRANCH   1   2
BRANCH   1  12
ATOM     12  C   UNL     1       9.883  -2.384  23.792  0.00  0.00    +0.261 C 
BRANCH  12  13
ATOM     13  C   UNL     1       9.220  -1.941  22.484  0.00  0.00    +0.166 C 
BRANCH  13  14
ATOM     14  O   UNL     1      10.223  -1.478  21.566  0.00  0.00    -0.387 OA
ATOM     15  H   UNL     1       9.745  -1.010  20.857  0.00  0.00    +0.210 HD
ENDBRANCH  13  14
BRANCH  13  16
ATOM     16  C   UNL     1       8.186  -0.833  22.721  0.00  0.00    +0.115 C 
BRANCH  16  17
ATOM     17  N   UNL     1       6.898  -1.435  23.081  0.00  0.00    -0.311 NA
ATOM     18  H   UNL     1       6.277  -1.366  22.269  0.00  0.00    +0.122 HD
BRANCH  17  20
ATOM     19  C   UNL     1       5.322  -1.826  24.889  0.00  0.00    +0.023 C 
ATOM     20  C   UNL     1       6.278  -0.812  24.256  0.00  0.00    +0.048 C 
ATOM     21  C   UNL     1       7.327  -0.382  25.284  0.00  0.00    +0.023 C 
ENDBRANCH  17  20
ENDBRANCH  16  17
ENDBRANCH  13  16
ENDBRANCH  12  13
ENDBRANCH   1  12
TORSDOF 7
ENDMDL
MODEL 3
REMARK VINA RESULT:      -5.9      2.226      6.046
REMARK  Name = 
REMARK  9 active torsions:
REMARK  status: ('A' for Active; 'I' for Inactive)
REMARK    1  A    between atoms: C_1  and  C_2
REMARK    2  A    between atoms: C_2  and  C_3
REMARK    3  A    between atoms: C_2  and  N_4
REMARK    4  A    between atoms: N_4  and  C_5
REMARK    5  A    between atoms: C_5  and  C_6
REMARK    6  A    between atoms: C_6  and  O_7
REMARK    7  A    between atoms: C_6  and  C_8
REMARK    8  A    between atoms: C_8  and  O_9
REMARK    9  A    between atoms: O_9  and  C_10
REMARK                            x       y       z     vdW  Elec       q    Type
REMARK                         _______ _______ _______ _____ _____    ______ ____
ROOT
ATOM      1  O   UNL     1       7.899  -2.055  24.924  0.00  0.00    -0.489 OA
ENDROOT
BRANCH   1   2
ATOM      2  C   UNL     1       8.539  -1.433  23.870  0.00  0.00    +0.128 A 
ATOM      3  C   UNL     1       7.969  -0.229  23.371  0.00  0.00    +0.024 A 
ATOM      4  C   UNL     1       8.593   0.414  22.270  0.00  0.00    -0.014 A 
ATOM      5  C   UNL     1       8.061   1.604  21.746  0.00  0.00    +0.008 A 
ATOM      6  C   UNL     1       6.915   2.173  22.289  0.00  0.00    +0.001 A 
ATOM      7  C   UNL     1       6.287   1.565  23.374  0.00  0.00    +0.001 A 
ATOM      8  C   UNL     1       9.746  -0.138  21.697  0.00  0.00    +0.009 A 
ATOM      9  C   UNL     1      10.287  -1.319  22.188  0.00  0.00    +0.004 A 
ATOM     10  C   UNL     1       6.809   0.380  23.908  0.00  0.00    +0.012 A 
ATOM     11  C   UNL     1       9.685  -1.964  23.262  0.00  0.00    +0.046 A 
ENDBRANCH   1   2
BRANCH   1  12
ATOM     12  C   UNL     1       8.751  -2.761  25.841  0.00  0.00    +0.261 C 
BRANCH  12  13
ATOM     13  C   UNL     1       8.245  -4.192  26.044  0.00  0.00    +0.166 C 
BRANCH  13  14
ATOM     14  O   UNL     1       9.029  -4.844  27.057  0.00  0.00    -0.387 OA
ATOM     15  H   UNL     1       8.449  -5.520  27.454  0.00  0.00    +0.210 HD
ENDBRANCH  13  14
BRANCH  13  16
ATOM     16  C   UNL     1       8.306  -5.004  24.743  0.00  0.00    +0.115 C 
BRANCH  16  17
ATOM     17  N   UNL     1       7.039  -4.861  24.018  0.00  0.00    -0.311 NA
ATOM     18  H   UNL     1       6.467  -5.689  24.211  0.00  0.00    +0.122 HD
BRANCH  17  20
ATOM     19  C   UNL     1       6.959  -6.032  21.891  0.00  0.00    +0.023 C 
ATOM     20  C   UNL     1       7.218  -4.687  22.572  0.00  0.00    +0.048 C 
ATOM     21  C   UNL     1       6.260  -3.633  22.010  0.00  0.00    +0.023 C 
ENDBRANCH  17  20
ENDBRANCH  16  17
ENDBRANCH  13  16
ENDBRANCH  12  13
ENDBRANCH   1  12
TORSDOF 7
ENDMDL
MODEL 4
REMARK VINA RESULT:      -5.8      2.248      5.595
REMARK  Name = 
REMARK  9 active torsions:
REMARK  status: ('A' for Active; 'I' for Inactive)
REMARK    1  A    between atoms: C_1  and  C_2
REMARK    2  A    between atoms: C_2  and  C_3
REMARK    3  A    between atoms: C_2  and  N_4
REMARK    4  A    between atoms: N_4  and  C_5
REMARK    5  A    between atoms: C_5  and  C_6
REMARK    6  A    between atoms: C_6  and  O_7
REMARK    7  A    between atoms: C_6  and  C_8
REMARK    8  A    between atoms: C_8  and  O_9
REMARK    9  A    between atoms: O_9  and  C_10
REMARK                            x       y       z     vdW  Elec       q    Type
REMARK                         _______ _______ _______ _____ _____    ______ ____
ROOT
ATOM      1  O   UNL     1       8.947  -3.344  25.289  0.00  0.00    -0.489 OA
ENDROOT
BRANCH   1   2
ATOM      2  C   UNL     1       8.740  -1.979  25.282  0.00  0.00    +0.128 A 
ATOM      3  C   UNL     1       9.058  -1.271  24.089  0.00  0.00    +0.024 A 
ATOM      4  C   UNL     1       8.879   0.137  24.066  0.00  0.00    -0.014 A 
ATOM      5  C   UNL     1       9.183   0.874  22.909  0.00  0.00    +0.008 A 
ATOM      6  C   UNL     1       9.664   0.243  21.767  0.00  0.00    +0.001 A 
ATOM      7  C   UNL     1       9.842  -1.139  21.762  0.00  0.00    +0.001 A 
ATOM      8  C   UNL     1       8.401   0.802  25.203  0.00  0.00    +0.009 A 
ATOM      9  C   UNL     1       8.104   0.100  26.363  0.00  0.00    +0.004 A 
ATOM     10  C   UNL     1       9.541  -1.886  22.908  0.00  0.00    +0.012 A 
ATOM     11  C   UNL     1       8.278  -1.278  26.404  0.00  0.00    +0.046 A 
ENDBRANCH   1   2
BRANCH   1  12
ATOM     12  C   UNL     1       8.869  -3.979  26.576  0.00  0.00    +0.261 C 
BRANCH  12  13
ATOM     13  C   UNL     1       7.577  -4.794  26.691  0.00  0.00    +0.166 C 
BRANCH  13  14
ATOM     14  O   UNL     1       7.795  -5.930  27.543  0.00  0.00    -0.387 OA
ATOM     15  H   UNL     1       7.362  -5.720  28.391  0.00  0.00    +0.210 HD
ENDBRANCH  13  14
BRANCH  13  16
ATOM     16  C   UNL     1       7.081  -5.266  25.318  0.00  0.00    +0.115 C 
BRANCH  16  17
ATOM     17  N   UNL     1       6.074  -4.327  24.812  0.00  0.00    -0.311 NA
ATOM     18  H   UNL     1       5.165  -4.598  25.199  0.00  0.00    +0.122 HD
BRANCH  17  20
ATOM     19  C   UNL     1       5.904  -2.812  22.921  0.00  0.00    +0.023 C 
ATOM     20  C   UNL     1       6.015  -4.277  23.348  0.00  0.00    +0.048 C 
ATOM     21  C   UNL     1       7.258  -4.905  22.712  0.00  0.00    +0.023 C 
ENDBRANCH  17  20
ENDBRANCH  16  17
ENDBRANCH  13  16
ENDBRANCH  12  13
ENDBRANCH   1  12
TORSDOF 7
ENDMDL
MODEL 5
REMARK VINA RESULT:      -5.8      2.205      6.137
REMARK  Name = 
REMARK  9 active torsions:
REMARK  status: ('A' for Active; 'I' for Inactive)
REMARK    1  A    between atoms: C_1  and  C_2
REMARK    2  A    between atoms: C_2  and  C_3
REMARK    3  A    between atoms: C_2  and  N_4
REMARK    4  A    between atoms: N_4  and  C_5
REMARK    5  A    between atoms: C_5  and  C_6
REMARK    6  A    between atoms: C_6  and  O_7
REMARK    7  A    between atoms: C_6  and  C_8
REMARK    8  A    between atoms: C_8  and  O_9
REMARK    9  A    between atoms: O_9  and  C_10
REMARK                            x       y       z     vdW  Elec       q    Type
REMARK                         _______ _______ _______ _____ _____    ______ ____
ROOT
ATOM      1  O   UNL     1       8.275  -2.460  26.057  0.00  0.00    -0.489 OA
ENDROOT
BRANCH   1   2
ATOM      2  C   UNL     1       8.928  -1.840  25.010  0.00  0.00    +0.128 A 
ATOM      3  C   UNL     1       8.794  -0.428  24.894  0.00  0.00    +0.024 A 
ATOM      4  C   UNL     1       9.433   0.228  23.810  0.00  0.00    -0.014 A 
ATOM      5  C   UNL     1       9.325   1.621  23.659  0.00  0.00    +0.008 A 
ATOM      6  C   UNL     1       8.591   2.382  24.561  0.00  0.00    +0.001 A 
ATOM      7  C   UNL     1       7.960   1.762  25.637  0.00  0.00    +0.001 A 
ATOM      8  C   UNL     1      10.175  -0.512  22.881  0.00  0.00    +0.009 A 
ATOM      9  C   UNL     1      10.289  -1.890  23.000  0.00  0.00    +0.004 A 
ATOM     10  C   UNL     1       8.062   0.375  25.802  0.00  0.00    +0.012 A 
ATOM     11  C   UNL     1       9.666  -2.550  24.053  0.00  0.00    +0.046 A 
ENDBRANCH   1   2
BRANCH   1  12
ATOM     12  C   UNL     1       8.714  -3.795  26.362  0.00  0.00    +0.261 C 
BRANCH  12  13
ATOM     13  C   UNL     1       7.512  -4.699  26.649  0.00  0.00    +0.166 C 
BRANCH  13  14
ATOM     14  O   UNL     1       7.927  -5.818  27.449  0.00  0.00    -0.387 OA
ATOM     15  H   UNL     1       8.757  -5.547  27.883  0.00  0.00    +0.210 HD
ENDBRANCH  13  14
BRANCH  13  16
ATOM     16  C   UNL     1       6.859  -5.202  25.355  0.00  0.00    +0.115 C 
BRANCH  16  17
ATOM     17  N   UNL     1       6.089  -4.116  24.740  0.00  0.00    -0.311 NA
ATOM     18  H   UNL     1       5.134  -4.156  25.108  0.00  0.00    +0.122 HD
BRANCH  17  20
ATOM     19  C   UNL     1       6.146  -2.743  22.737  0.00  0.00    +0.023 C 
ATOM     20  C   UNL     1       6.078  -4.174  23.275  0.00  0.00    +0.048 C 
ATOM     21  C   UNL     1       7.259  -4.983  22.734  0.00  0.00    +0.023 C 
ENDBRANCH  17  20
ENDBRANCH  16  17
ENDBRANCH  13  16
ENDBRANCH  12  13
ENDBRANCH   1  12
TORSDOF 7
ENDMDL
MODEL 6
REMARK VINA RESULT:      -5.7      1.368      2.822
REMARK  Name = 
REMARK  9 active torsions:
REMARK  status: ('A' for Active; 'I' for Inactive)
REMARK    1  A    between atoms: C_1  and  C_2
REMARK    2  A    between atoms: C_2  and  C_3
REMARK    3  A    between atoms: C_2  and  N_4
REMARK    4  A    between atoms: N_4  and  C_5
REMARK    5  A    between atoms: C_5  and  C_6
REMARK    6  A    between atoms: C_6  and  O_7
REMARK    7  A    between atoms: C_6  and  C_8
REMARK    8  A    between atoms: C_8  and  O_9
REMARK    9  A    between atoms: O_9  and  C_10
REMARK                            x       y       z     vdW  Elec       q    Type
REMARK                         _______ _______ _______ _____ _____    ______ ____
ROOT
ATOM      1  O   UNL     1       8.750  -4.330  24.021  0.00  0.00    -0.489 OA
ENDROOT
BRANCH   1   2
ATOM      2  C   UNL     1       7.578  -4.843  23.503  0.00  0.00    +0.128 A 
ATOM      3  C   UNL     1       6.632  -5.380  24.421  0.00  0.00    +0.024 A 
ATOM      4  C   UNL     1       5.431  -5.938  23.910  0.00  0.00    -0.014 A 
ATOM      5  C   UNL     1       4.472  -6.481  24.781  0.00  0.00    +0.008 A 
ATOM      6  C   UNL     1       4.678  -6.484  26.157  0.00  0.00    +0.001 A 
ATOM      7  C   UNL     1       5.846  -5.936  26.683  0.00  0.00    +0.001 A 
ATOM      8  C   UNL     1       5.197  -5.955  22.529  0.00  0.00    +0.009 A 
ATOM      9  C   UNL     1       6.133  -5.437  21.644  0.00  0.00    +0.004 A 
ATOM     10  C   UNL     1       6.809  -5.390  25.825  0.00  0.00    +0.012 A 
ATOM     11  C   UNL     1       7.316  -4.890  22.127  0.00  0.00    +0.046 A 
ENDBRANCH   1   2
BRANCH   1  12
ATOM     12  C   UNL     1       8.744  -2.920  24.299  0.00  0.00    +0.261 C 
BRANCH  12  13
ATOM     13  C   UNL     1       9.691  -2.184  23.346  0.00  0.00    +0.166 C 
BRANCH  13  14
ATOM     14  O   UNL     1      10.363  -1.128  24.051  0.00  0.00    -0.387 OA
ATOM     15  H   UNL     1      10.444  -0.390  23.420  0.00  0.00    +0.210 HD
ENDBRANCH  13  14
BRANCH  13  16
ATOM     16  C   UNL     1       8.942  -1.604  22.139  0.00  0.00    +0.115 C 
BRANCH  16  17
ATOM     17  N   UNL     1       9.781  -0.598  21.480  0.00  0.00    -0.311 NA
ATOM     18  H   UNL     1      10.685  -0.574  21.961  0.00  0.00    +0.122 HD
BRANCH  17  20
ATOM     19  C   UNL     1       7.877   0.687  22.270  0.00  0.00    +0.023 C 
ATOM     20  C   UNL     1       9.174   0.737  21.461  0.00  0.00    +0.048 C 
ATOM     21  C   UNL     1      10.112   1.790  22.057  0.00  0.00    +0.023 C 
ENDBRANCH  17  20
ENDBRANCH  16  17
ENDBRANCH  13  16
ENDBRANCH  12  13
ENDBRANCH   1  12
TORSDOF 7
ENDMDL
MODEL 7
REMARK VINA RESULT:      -5.7      1.116      2.688
REMARK  Name = 
REMARK  9 active torsions:
REMARK  status: ('A' for Active; 'I' for Inactive)
REMARK    1  A    between atoms: C_1  and  C_2
REMARK    2  A    between atoms: C_2  and  C_3
REMARK    3  A    between atoms: C_2  and  N_4
REMARK    4  A    between atoms: N_4  and  C_5
REMARK    5  A    between atoms: C_5  and  C_6
REMARK    6  A    between atoms: C_6  and  O_7
REMARK    7  A    between atoms: C_6  and  C_8
REMARK    8  A    between atoms: C_8  and  O_9
REMARK    9  A    between atoms: O_9  and  C_10
REMARK                            x       y       z     vdW  Elec       q    Type
REMARK                         _______ _______ _______ _____ _____    ______ ____
ROOT
ATOM      1  O   UNL     1       8.560  -3.164  23.065  0.00  0.00    -0.489 OA
ENDROOT
BRANCH   1   2
ATOM      2  C   UNL     1       7.526  -4.076  23.146  0.00  0.00    +0.128 A 
ATOM      3  C   UNL     1       7.149  -4.532  24.440  0.00  0.00    +0.024 A 
ATOM      4  C   UNL     1       6.107  -5.489  24.546  0.00  0.00    -0.014 A 
ATOM      5  C   UNL     1       5.705  -5.967  25.805  0.00  0.00    +0.008 A 
ATOM      6  C   UNL     1       6.319  -5.515  26.968  0.00  0.00    +0.001 A 
ATOM      7  C   UNL     1       7.340  -4.571  26.891  0.00  0.00    +0.001 A 
ATOM      8  C   UNL     1       5.473  -5.967  23.392  0.00  0.00    +0.009 A 
ATOM      9  C   UNL     1       5.858  -5.522  22.135  0.00  0.00    +0.004 A 
ATOM     10  C   UNL     1       7.748  -4.084  25.642  0.00  0.00    +0.012 A 
ATOM     11  C   UNL     1       6.879  -4.587  22.012  0.00  0.00    +0.046 A 
ENDBRANCH   1   2
BRANCH   1  12
ATOM     12  C   UNL     1       8.182  -1.822  22.716  0.00  0.00    +0.261 C 
BRANCH  12  13
ATOM     13  C   UNL     1       9.121  -1.266  21.641  0.00  0.00    +0.166 C 
BRANCH  13  14
ATOM     14  O   UNL     1      10.467  -1.695  21.905  0.00  0.00    -0.387 OA
ATOM     15  H   UNL     1      10.402  -2.618  22.210  0.00  0.00    +0.210 HD
ENDBRANCH  13  14
BRANCH  13  16
ATOM     16  C   UNL     1       9.070   0.266  21.582  0.00  0.00    +0.115 C 
BRANCH  16  17
ATOM     17  N   UNL     1      10.263   0.821  22.230  0.00  0.00    -0.311 NA
ATOM     18  H   UNL     1      10.952   0.069  22.325  0.00  0.00    +0.122 HD
BRANCH  17  20
ATOM     19  C   UNL     1      10.783   0.671  24.598  0.00  0.00    +0.023 C 
ATOM     20  C   UNL     1       9.981   1.426  23.537  0.00  0.00    +0.048 C 
ATOM     21  C   UNL     1      10.360   2.909  23.564  0.00  0.00    +0.023 C 
ENDBRANCH  17  20
ENDBRANCH  16  17
ENDBRANCH  13  16
ENDBRANCH  12  13
ENDBRANCH   1  12
TORSDOF 7
ENDMDL
MODEL 8
REMARK VINA RESULT:      -5.5      2.447      2.913
REMARK  Name = 
REMARK  9 active torsions:
REMARK  status: ('A' for Active; 'I' for Inactive)
REMARK    1  A    between atoms: C_1  and  C_2
REMARK    2  A    between atoms: C_2  and  C_3
REMARK    3  A    between atoms: C_2  and  N_4
REMARK    4  A    between atoms: N_4  and  C_5
REMARK    5  A    between atoms: C_5  and  C_6
REMARK    6  A    between atoms: C_6  and  O_7
REMARK    7  A    between atoms: C_6  and  C_8
REMARK    8  A    between atoms: C_8  and  O_9
REMARK    9  A    between atoms: O_9  and  C_10
REMARK                            x       y       z     vdW  Elec       q    Type
REMARK                         _______ _______ _______ _____ _____    ______ ____
ROOT
ATOM      1  O   UNL     1       6.823  -1.179  23.489  0.00  0.00    -0.489 OA
ENDROOT
BRANCH   1   2
ATOM      2  C   UNL     1       7.421  -2.376  23.830  0.00  0.00    +0.128 A 
ATOM      3  C   UNL     1       7.133  -3.510  23.020  0.00  0.00    +0.024 A 
ATOM      4  C   UNL     1       7.714  -4.758  23.367  0.00  0.00    -0.014 A 
ATOM      5  C   UNL     1       7.454  -5.903  22.595  0.00  0.00    +0.008 A 
ATOM      6  C   UNL     1       6.625  -5.839  21.481  0.00  0.00    +0.001 A 
ATOM      7  C   UNL     1       6.048  -4.625  21.116  0.00  0.00    +0.001 A 
ATOM      8  C   UNL     1       8.549  -4.855  24.487  0.00  0.00    +0.009 A 
ATOM      9  C   UNL     1       8.814  -3.743  25.275  0.00  0.00    +0.004 A 
ATOM     10  C   UNL     1       6.301  -3.475  21.875  0.00  0.00    +0.012 A 
ATOM     11  C   UNL     1       8.250  -2.515  24.952  0.00  0.00    +0.046 A 
ENDBRANCH   1   2
BRANCH   1  12
ATOM     12  C   UNL     1       6.207  -0.460  24.570  0.00  0.00    +0.261 C 
BRANCH  12  13
ATOM     13  C   UNL     1       6.311   1.050  24.334  0.00  0.00    +0.166 C 
BRANCH  13  14
ATOM     14  O   UNL     1       5.027   1.570  23.951  0.00  0.00    -0.387 OA
ATOM     15  H   UNL     1       4.879   1.276  23.034  0.00  0.00    +0.210 HD
ENDBRANCH  13  14
BRANCH  13  16
ATOM     16  C   UNL     1       7.347   1.384  23.253  0.00  0.00    +0.115 C 
BRANCH  16  17
ATOM     17  N   UNL     1       8.696   1.291  23.823  0.00  0.00    -0.311 NA
ATOM     18  H   UNL     1       8.910   2.184  24.278  0.00  0.00    +0.122 HD
BRANCH  17  20
ATOM     19  C   UNL     1      10.514  -0.243  23.333  0.00  0.00    +0.023 C 
ATOM     20  C   UNL     1       9.722   0.964  22.827  0.00  0.00    +0.048 C 
ATOM     21  C   UNL     1       9.101   0.638  21.466  0.00  0.00    +0.023 C 
ENDBRANCH  17  20
ENDBRANCH  16  17
ENDBRANCH  13  16
ENDBRANCH  12  13
ENDBRANCH   1  12
TORSDOF 7
ENDMDL
MODEL 9
REMARK VINA RESULT:      -5.5      2.436      5.992
REMARK  Name = 
REMARK  9 active torsions:
REMARK  status: ('A' for Active; 'I' for Inactive)
REMARK    1  A    between atoms: C_1  and  C_2
REMARK    2  A    between atoms: C_2  and  C_3
REMARK    3  A    between atoms: C_2  and  N_4
REMARK    4  A    between atoms: N_4  and  C_5
REMARK    5  A    between atoms: C_5  and  C_6
REMARK    6  A    between atoms: C_6  and  O_7
REMARK    7  A    between atoms: C_6  and  C_8
REMARK    8  A    between atoms: C_8  and  O_9
REMARK    9  A    between atoms: O_9  and  C_10
REMARK                            x       y       z     vdW  Elec       q    Type
REMARK                         _______ _______ _______ _____ _____    ______ ____
ROOT
ATOM      1  O   UNL     1       7.412  -2.548  22.094  0.00  0.00    -0.489 OA
ENDROOT
BRANCH   1   2
ATOM      2  C   UNL     1       7.169  -1.480  22.936  0.00  0.00    +0.128 A 
ATOM      3  C   UNL     1       8.008  -0.338  22.810  0.00  0.00    +0.024 A 
ATOM      4  C   UNL     1       7.795   0.760  23.683  0.00  0.00    -0.014 A 
ATOM      5  C   UNL     1       8.603   1.906  23.594  0.00  0.00    +0.008 A 
ATOM      6  C   UNL     1       9.624   1.988  22.654  0.00  0.00    +0.001 A 
ATOM      7  C   UNL     1       9.849   0.926  21.782  0.00  0.00    +0.001 A 
ATOM      8  C   UNL     1       6.777   0.706  24.644  0.00  0.00    +0.009 A 
ATOM      9  C   UNL     1       5.972  -0.419  24.763  0.00  0.00    +0.004 A 
ATOM     10  C   UNL     1       9.049  -0.222  21.858  0.00  0.00    +0.012 A 
ATOM     11  C   UNL     1       6.170  -1.506  23.919  0.00  0.00    +0.046 A 
ENDBRANCH   1   2
BRANCH   1  12
ATOM     12  C   UNL     1       6.288  -3.405  21.834  0.00  0.00    +0.261 C 
BRANCH  12  13
ATOM     13  C   UNL     1       6.743  -4.864  21.724  0.00  0.00    +0.166 C 
BRANCH  13  14
ATOM     14  O   UNL     1       5.744  -5.633  21.037  0.00  0.00    -0.387 OA
ATOM     15  H   UNL     1       4.947  -5.073  21.003  0.00  0.00    +0.210 HD
ENDBRANCH  13  14
BRANCH  13  16
ATOM     16  C   UNL     1       7.010  -5.479  23.104  0.00  0.00    +0.115 C 
BRANCH  16  17
ATOM     17  N   UNL     1       8.316  -5.027  23.598  0.00  0.00    -0.311 NA
ATOM     18  H   UNL     1       8.965  -5.818  23.546  0.00  0.00    +0.122 HD
BRANCH  17  20
ATOM     19  C   UNL     1       6.968  -4.975  25.618  0.00  0.00    +0.023 C 
ATOM     20  C   UNL     1       8.264  -4.494  24.963  0.00  0.00    +0.048 C 
ATOM     21  C   UNL     1       9.463  -4.958  25.794  0.00  0.00    +0.023 C 
ENDBRANCH  17  20
ENDBRANCH  16  17
ENDBRANCH  13  16
ENDBRANCH  12  13
ENDBRANCH   1  12
TORSDOF 7
ENDMDL
