MODEL 1
REMARK VINA RESULT:      -7.5      0.000      0.000
REMARK  Name = 
REMARK  3 active torsions:
REMARK  status: ('A' for Active; 'I' for Inactive)
REMARK    1  A    between atoms: C_9  and  N_11
REMARK    2  A    between atoms: N_11  and  C_12
REMARK    3  A    between atoms: C_13  and  C_14
REMARK                            x       y       z     vdW  Elec       q    Type
REMARK                         _______ _______ _______ _____ _____    ______ ____
ROOT
ATOM      1  C   UNL     1       8.635  -0.292  24.739  0.00  0.00    +0.053 A 
ATOM      2  C   UNL     1       8.370  -1.765  24.678  0.00  0.00    +0.021 A 
ATOM      3  C   UNL     1       7.983  -2.514  25.806  0.00  0.00    +0.031 A 
ATOM      4  C   UNL     1       7.759  -3.887  25.719  0.00  0.00    +0.042 A 
ATOM      5  C   UNL     1       7.930  -4.557  24.508  0.00  0.00    +0.022 A 
ATOM      6  C   UNL     1       8.318  -3.844  23.379  0.00  0.00    +0.028 A 
ATOM      7 CL   UNL     1       7.277  -4.767  27.110  0.00  0.00    -0.084 Cl
ATOM      8  C   UNL     1       8.521  -2.466  23.470  0.00  0.00    +0.051 A 
ATOM      9  N   UNL     1       8.868  -1.774  22.323  0.00  0.00    -0.321 N 
ATOM     10  H   UNL     1       8.984  -2.257  21.441  0.00  0.00    +0.169 HD
ATOM     11  C   UNL     1       9.050  -0.432  22.288  0.00  0.00    +0.262 A 
ATOM     12  O   UNL     1       9.304   0.087  21.198  0.00  0.00    -0.267 OA
ATOM     13  C   UNL     1       8.955   0.367  23.583  0.00  0.00    +0.103 A 
ENDROOT
BRANCH  13  14
ATOM     14  C   UNL     1       9.285   1.777  23.503  0.00  0.00    +0.146 A 
ATOM     15  N   UNL     1      10.568   2.112  23.090  0.00  0.00    -0.338 N 
ATOM     16  H   UNL     1      11.274   1.439  22.815  0.00  0.00    +0.167 HD
ATOM     17  C   UNL     1      10.818   3.425  23.360  0.00  0.00    +0.066 A 
ATOM     18  C   UNL     1       9.584   3.919  23.743  0.00  0.00    +0.089 A 
ATOM     19  C   UNL     1       9.499   5.282  24.075  0.00  0.00    +0.030 A 
ATOM     20  C   UNL     1      10.678   6.052  24.098  0.00  0.00    +0.002 A 
ATOM     21  C   UNL     1      11.910   5.499  23.743  0.00  0.00    +0.002 A 
ATOM     22  C   UNL     1      11.998   4.170  23.329  0.00  0.00    +0.028 A 
ATOM     23  N   UNL     1       8.636   2.901  23.786  0.00  0.00    -0.227 NA
ENDBRANCH  13  14
BRANCH   1  24
ATOM     24  N   UNL     1       8.618   0.199  26.064  0.00  0.00    -0.338 N 
ATOM     25  H   UNL     1       9.406   0.859  26.120  0.00  0.00    +0.146 HD
BRANCH  24  27
ATOM     26  C   UNL     1       6.115   0.863  25.863  0.00  0.00    +0.013 C 
ATOM     27  C   UNL     1       7.482   0.973  26.592  0.00  0.00    +0.088 C 
ATOM     28  C   UNL     1       7.193   0.733  28.089  0.00  0.00    +0.106 C 
ATOM     29  N   UNL     1       5.839   1.276  28.438  0.00  0.00    -0.301 NA
ATOM     30  C   UNL     1       4.841   0.284  27.991  0.00  0.00    +0.085 C 
ATOM     31  C   UNL     1       5.601   2.529  27.656  0.00  0.00    +0.085 C 
ATOM     32  C   UNL     1       5.114  -0.127  26.530  0.00  0.00    +0.021 C 
ATOM     33  C   UNL     1       5.498   2.254  26.128  0.00  0.00    +0.021 C 
ENDBRANCH  24  27
ENDBRANCH   1  24
TORSDOF 3
ENDMDL
MODEL 2
REMARK VINA RESULT:      -7.4      2.704      6.137
REMARK  Name = 
REMARK  3 active torsions:
REMARK  status: ('A' for Active; 'I' for Inactive)
REMARK    1  A    between atoms: C_9  and  N_11
REMARK    2  A    between atoms: N_11  and  C_12
REMARK    3  A    between atoms: C_13  and  C_14
REMARK                            x       y       z     vdW  Elec       q    Type
REMARK                         _______ _______ _______ _____ _____    ______ ____
ROOT
ATOM      1  C   UNL     1       8.676   1.529  24.559  0.00  0.00    +0.053 A 
ATOM      2  C   UNL     1       8.492   2.993  24.299  0.00  0.00    +0.021 A 
ATOM      3  C   UNL     1       8.336   3.934  25.334  0.00  0.00    +0.031 A 
ATOM      4  C   UNL     1       8.151   5.288  25.058  0.00  0.00    +0.042 A 
ATOM      5  C   UNL     1       8.100   5.741  23.741  0.00  0.00    +0.022 A 
ATOM      6  C   UNL     1       8.244   4.832  22.698  0.00  0.00    +0.028 A 
ATOM      7 CL   UNL     1       7.978   6.409  26.344  0.00  0.00    -0.084 Cl
ATOM      8  C   UNL     1       8.449   3.482  22.983  0.00  0.00    +0.051 A 
ATOM      9  N   UNL     1       8.629   2.605  21.927  0.00  0.00    -0.321 N 
ATOM     10  H   UNL     1       8.601   2.934  20.970  0.00  0.00    +0.169 HD
ATOM     11  C   UNL     1       8.874   1.283  22.090  0.00  0.00    +0.262 A 
ATOM     12  O   UNL     1       9.073   0.605  21.079  0.00  0.00    -0.267 OA
ATOM     13  C   UNL     1       8.873   0.692  23.495  0.00  0.00    +0.103 A 
ENDROOT
BRANCH  13  14
ATOM     14  C   UNL     1       9.013  -0.749  23.595  0.00  0.00    +0.146 A 
ATOM     15  N   UNL     1       8.260  -1.528  22.726  0.00  0.00    -0.338 N 
ATOM     16  H   UNL     1       7.645  -1.155  22.012  0.00  0.00    +0.167 HD
ATOM     17  C   UNL     1       8.263  -2.826  23.141  0.00  0.00    +0.066 A 
ATOM     18  C   UNL     1       9.208  -2.844  24.151  0.00  0.00    +0.089 A 
ATOM     19  C   UNL     1       9.467  -4.071  24.784  0.00  0.00    +0.030 A 
ATOM     20  C   UNL     1       8.691  -5.194  24.436  0.00  0.00    +0.002 A 
ATOM     21  C   UNL     1       7.717  -5.119  23.438  0.00  0.00    +0.002 A 
ATOM     22  C   UNL     1       7.507  -3.930  22.740  0.00  0.00    +0.028 A 
ATOM     23  N   UNL     1       9.697  -1.563  24.392  0.00  0.00    -0.227 NA
ENDBRANCH  13  14
BRANCH   1  24
ATOM     24  N   UNL     1       8.503   1.203  25.923  0.00  0.00    -0.338 N 
ATOM     25  H   UNL     1       8.620   2.091  26.432  0.00  0.00    +0.146 HD
BRANCH  24  27
ATOM     26  C   UNL     1       5.981   0.730  25.521  0.00  0.00    +0.013 C 
ATOM     27  C   UNL     1       7.231   0.673  26.442  0.00  0.00    +0.088 C 
ATOM     28  C   UNL     1       7.315  -0.776  26.968  0.00  0.00    +0.106 C 
ATOM     29  N   UNL     1       5.933  -1.334  27.139  0.00  0.00    -0.301 NA
ATOM     30  C   UNL     1       5.459  -1.748  25.803  0.00  0.00    +0.085 C 
ATOM     31  C   UNL     1       5.025  -0.245  27.616  0.00  0.00    +0.085 C 
ATOM     32  C   UNL     1       5.671  -0.608  24.785  0.00  0.00    +0.021 C 
ATOM     33  C   UNL     1       4.834   0.868  26.546  0.00  0.00    +0.021 C 
ENDBRANCH  24  27
ENDBRANCH   1  24
TORSDOF 3
ENDMDL
MODEL 3
REMARK VINA RESULT:      -7.4      2.599      3.977
REMARK  Name = 
REMARK  3 active torsions:
REMARK  status: ('A' for Active; 'I' for Inactive)
REMARK    1  A    between atoms: C_9  and  N_11
REMARK    2  A    between atoms: N_11  and  C_12
REMARK    3  A    between atoms: C_13  and  C_14
REMARK                            x       y       z     vdW  Elec       q    Type
REMARK                         _______ _______ _______ _____ _____    ______ ____
ROOT
ATOM      1  C   UNL     1       6.356  -3.027  24.663  0.00  0.00    +0.053 A 
ATOM      2  C   UNL     1       5.726  -4.170  25.399  0.00  0.00    +0.021 A 
ATOM      3  C   UNL     1       4.344  -4.237  25.657  0.00  0.00    +0.031 A 
ATOM      4  C   UNL     1       3.791  -5.307  26.359  0.00  0.00    +0.042 A 
ATOM      5  C   UNL     1       4.604  -6.334  26.838  0.00  0.00    +0.022 A 
ATOM      6  C   UNL     1       5.974  -6.290  26.604  0.00  0.00    +0.028 A 
ATOM      7 CL   UNL     1       2.101  -5.364  26.645  0.00  0.00    -0.084 Cl
ATOM      8  C   UNL     1       6.516  -5.225  25.883  0.00  0.00    +0.051 A 
ATOM      9  N   UNL     1       7.877  -5.227  25.630  0.00  0.00    -0.321 N 
ATOM     10  H   UNL     1       8.467  -5.976  25.970  0.00  0.00    +0.169 HD
ATOM     11  C   UNL     1       8.501  -4.265  24.908  0.00  0.00    +0.262 A 
ATOM     12  O   UNL     1       9.710  -4.396  24.698  0.00  0.00    -0.267 OA
ATOM     13  C   UNL     1       7.700  -3.068  24.409  0.00  0.00    +0.103 A 
ENDROOT
BRANCH  13  14
ATOM     14  C   UNL     1       8.448  -2.012  23.755  0.00  0.00    +0.146 A 
ATOM     15  N   UNL     1       9.394  -1.332  24.511  0.00  0.00    -0.338 N 
ATOM     16  H   UNL     1       9.613  -1.546  25.477  0.00  0.00    +0.167 HD
ATOM     17  C   UNL     1       9.779  -0.195  23.866  0.00  0.00    +0.066 A 
ATOM     18  C   UNL     1       9.205  -0.321  22.613  0.00  0.00    +0.089 A 
ATOM     19  C   UNL     1       9.437   0.705  21.681  0.00  0.00    +0.030 A 
ATOM     20  C   UNL     1      10.151   1.848  22.090  0.00  0.00    +0.002 A 
ATOM     21  C   UNL     1      10.676   1.950  23.380  0.00  0.00    +0.002 A 
ATOM     22  C   UNL     1      10.529   0.904  24.290  0.00  0.00    +0.028 A 
ATOM     23  N   UNL     1       8.422  -1.469  22.542  0.00  0.00    -0.227 NA
ENDBRANCH  13  14
BRANCH   1  24
ATOM     24  N   UNL     1       5.440  -1.977  24.423  0.00  0.00    -0.338 N 
ATOM     25  H   UNL     1       4.508  -2.409  24.489  0.00  0.00    +0.146 HD
BRANCH  24  27
ATOM     26  C   UNL     1       5.850  -0.958  26.777  0.00  0.00    +0.013 C 
ATOM     27  C   UNL     1       5.343  -0.810  25.316  0.00  0.00    +0.088 C 
ATOM     28  C   UNL     1       6.000   0.471  24.759  0.00  0.00    +0.106 C 
ATOM     29  N   UNL     1       6.158   1.479  25.858  0.00  0.00    -0.301 NA
ATOM     30  C   UNL     1       7.352   1.094  26.636  0.00  0.00    +0.085 C 
ATOM     31  C   UNL     1       4.980   1.387  26.776  0.00  0.00    +0.085 C 
ATOM     32  C   UNL     1       7.285  -0.400  27.013  0.00  0.00    +0.021 C 
ATOM     33  C   UNL     1       4.935   0.030  27.534  0.00  0.00    +0.021 C 
ENDBRANCH  24  27
ENDBRANCH   1  24
TORSDOF 3
ENDMDL
MODEL 4
REMARK VINA RESULT:      -7.3      2.867      6.815
REMARK  Name = 
REMARK  3 active torsions:
REMARK  status: ('A' for Active; 'I' for Inactive)
REMARK    1  A    between atoms: C_9  and  N_11
REMARK    2  A    between atoms: N_11  and  C_12
REMARK    3  A    between atoms: C_13  and  C_14
REMARK                            x       y       z     vdW  Elec       q    Type
REMARK                         _______ _______ _______ _____ _____    ______ ____
ROOT
ATOM      1  C   UNL     1       8.454  -1.463  24.827  0.00  0.00    +0.053 A 
ATOM      2  C   UNL     1       8.914  -0.450  23.824  0.00  0.00    +0.021 A 
ATOM      3  C   UNL     1       9.314   0.850  24.187  0.00  0.00    +0.031 A 
ATOM      4  C   UNL     1       9.722   1.775  23.227  0.00  0.00    +0.042 A 
ATOM      5  C   UNL     1       9.728   1.435  21.875  0.00  0.00    +0.022 A 
ATOM      6  C   UNL     1       9.332   0.160  21.487  0.00  0.00    +0.028 A 
ATOM      7 CL   UNL     1      10.215   3.347  23.705  0.00  0.00    -0.084 Cl
ATOM      8  C   UNL     1       8.944  -0.766  22.456  0.00  0.00    +0.051 A 
ATOM      9  N   UNL     1       8.592  -2.040  22.046  0.00  0.00    -0.321 N 
ATOM     10  H   UNL     1       8.604  -2.291  21.065  0.00  0.00    +0.169 HD
ATOM     11  C   UNL     1       8.238  -3.027  22.903  0.00  0.00    +0.262 A 
ATOM     12  O   UNL     1       7.997  -4.141  22.430  0.00  0.00    -0.267 OA
ATOM     13  C   UNL     1       8.134  -2.720  24.393  0.00  0.00    +0.103 A 
ENDROOT
BRANCH  13  14
ATOM     14  C   UNL     1       7.627  -3.782  25.241  0.00  0.00    +0.146 A 
ATOM     15  N   UNL     1       6.703  -4.659  24.689  0.00  0.00    -0.338 N 
ATOM     16  H   UNL     1       6.385  -4.622  23.727  0.00  0.00    +0.167 HD
ATOM     17  C   UNL     1       6.102  -5.386  25.672  0.00  0.00    +0.066 A 
ATOM     18  C   UNL     1       6.840  -5.079  26.802  0.00  0.00    +0.089 A 
ATOM     19  C   UNL     1       6.478  -5.698  28.009  0.00  0.00    +0.030 A 
ATOM     20  C   UNL     1       5.332  -6.518  28.037  0.00  0.00    +0.002 A 
ATOM     21  C   UNL     1       4.593  -6.767  26.879  0.00  0.00    +0.002 A 
ATOM     22  C   UNL     1       4.989  -6.229  25.655  0.00  0.00    +0.028 A 
ATOM     23  N   UNL     1       7.807  -4.120  26.514  0.00  0.00    -0.227 NA
ENDBRANCH  13  14
BRANCH   1  24
ATOM     24  N   UNL     1       8.311  -0.908  26.119  0.00  0.00    -0.338 N 
ATOM     25  H   UNL     1       8.897  -0.062  26.118  0.00  0.00    +0.146 HD
BRANCH  24  27
ATOM     26  C   UNL     1       6.936   1.008  27.207  0.00  0.00    +0.013 C 
ATOM     27  C   UNL     1       7.012  -0.428  26.620  0.00  0.00    +0.088 C 
ATOM     28  C   UNL     1       5.858  -0.541  25.601  0.00  0.00    +0.106 C 
ATOM     29  N   UNL     1       4.690   0.278  26.066  0.00  0.00    -0.301 NA
ATOM     30  C   UNL     1       4.978   1.685  25.724  0.00  0.00    +0.085 C 
ATOM     31  C   UNL     1       4.598   0.192  27.557  0.00  0.00    +0.085 C 
ATOM     32  C   UNL     1       6.389   2.075  26.211  0.00  0.00    +0.021 C 
ATOM     33  C   UNL     1       5.813   0.866  28.257  0.00  0.00    +0.021 C 
ENDBRANCH  24  27
ENDBRANCH   1  24
TORSDOF 3
ENDMDL
MODEL 5
REMARK VINA RESULT:      -7.3      3.412      7.517
REMARK  Name = 
REMARK  3 active torsions:
REMARK  status: ('A' for Active; 'I' for Inactive)
REMARK    1  A    between atoms: C_9  and  N_11
REMARK    2  A    between atoms: N_11  and  C_12
REMARK    3  A    between atoms: C_13  and  C_14
REMARK                            x       y       z     vdW  Elec       q    Type
REMARK                         _______ _______ _______ _____ _____    ______ ____
ROOT
ATOM      1  C   UNL     1       6.644   1.148  24.870  0.00  0.00    +0.053 A 
ATOM      2  C   UNL     1       6.909   2.622  24.871  0.00  0.00    +0.021 A 
ATOM      3  C   UNL     1       6.840   3.407  23.704  0.00  0.00    +0.031 A 
ATOM      4  C   UNL     1       7.108   4.775  23.736  0.00  0.00    +0.042 A 
ATOM      5  C   UNL     1       7.468   5.397  24.931  0.00  0.00    +0.022 A 
ATOM      6  C   UNL     1       7.550   4.645  26.098  0.00  0.00    +0.028 A 
ATOM      7 CL   UNL     1       7.002   5.703  22.298  0.00  0.00    -0.084 Cl
ATOM      8  C   UNL     1       7.261   3.281  26.061  0.00  0.00    +0.051 A 
ATOM      9  N   UNL     1       7.312   2.564  27.244  0.00  0.00    -0.321 N 
ATOM     10  H   UNL     1       7.565   3.017  28.113  0.00  0.00    +0.169 HD
ATOM     11  C   UNL     1       7.012   1.246  27.330  0.00  0.00    +0.262 A 
ATOM     12  O   UNL     1       7.039   0.721  28.446  0.00  0.00    -0.267 OA
ATOM     13  C   UNL     1       6.681   0.472  26.059  0.00  0.00    +0.103 A 
ENDROOT
BRANCH  13  14
ATOM     14  C   UNL     1       6.495  -0.960  26.200  0.00  0.00    +0.146 A 
ATOM     15  N   UNL     1       7.555  -1.697  26.711  0.00  0.00    -0.338 N 
ATOM     16  H   UNL     1       8.434  -1.296  27.018  0.00  0.00    +0.167 HD
ATOM     17  C   UNL     1       7.348  -3.026  26.494  0.00  0.00    +0.066 A 
ATOM     18  C   UNL     1       6.044  -3.083  26.037  0.00  0.00    +0.089 A 
ATOM     19  C   UNL     1       5.509  -4.347  25.736  0.00  0.00    +0.030 A 
ATOM     20  C   UNL     1       6.347  -5.476  25.817  0.00  0.00    +0.002 A 
ATOM     21  C   UNL     1       7.671  -5.366  26.244  0.00  0.00    +0.002 A 
ATOM     22  C   UNL     1       8.192  -4.131  26.629  0.00  0.00    +0.028 A 
ATOM     23  N   UNL     1       5.513  -1.803  25.901  0.00  0.00    -0.227 NA
ENDBRANCH  13  14
BRANCH   1  24
ATOM     24  N   UNL     1       6.493   0.634  23.562  0.00  0.00    -0.338 N 
ATOM     25  H   UNL     1       6.249   1.445  22.977  0.00  0.00    +0.146 HD
BRANCH  24  27
ATOM     26  C   UNL     1       9.060   0.409  23.238  0.00  0.00    +0.013 C 
ATOM     27  C   UNL     1       7.613   0.010  22.837  0.00  0.00    +0.088 C 
ATOM     28  C   UNL     1       7.578  -1.533  22.822  0.00  0.00    +0.106 C 
ATOM     29  N   UNL     1       8.909  -2.066  22.381  0.00  0.00    -0.301 NA
ATOM     30  C   UNL     1       9.813  -2.006  23.547  0.00  0.00    +0.085 C 
ATOM     31  C   UNL     1       9.473  -1.158  21.333  0.00  0.00    +0.085 C 
ATOM     32  C   UNL     1       9.759  -0.605  24.192  0.00  0.00    +0.021 C 
ATOM     33  C   UNL     1       9.818   0.248  21.902  0.00  0.00    +0.021 C 
ENDBRANCH  24  27
ENDBRANCH   1  24
TORSDOF 3
ENDMDL
MODEL 6
REMARK VINA RESULT:      -7.2      2.819      5.656
REMARK  Name = 
REMARK  3 active torsions:
REMARK  status: ('A' for Active; 'I' for Inactive)
REMARK    1  A    between atoms: C_9  and  N_11
REMARK    2  A    between atoms: N_11  and  C_12
REMARK    3  A    between atoms: C_13  and  C_14
REMARK                            x       y       z     vdW  Elec       q    Type
REMARK                         _______ _______ _______ _____ _____    ______ ____
ROOT
ATOM      1  C   UNL     1       6.854  -3.094  26.159  0.00  0.00    +0.053 A 
ATOM      2  C   UNL     1       5.853  -3.595  27.155  0.00  0.00    +0.021 A 
ATOM      3  C   UNL     1       5.721  -4.959  27.478  0.00  0.00    +0.031 A 
ATOM      4  C   UNL     1       4.769  -5.395  28.398  0.00  0.00    +0.042 A 
ATOM      5  C   UNL     1       3.909  -4.484  29.010  0.00  0.00    +0.022 A 
ATOM      6  C   UNL     1       4.012  -3.131  28.705  0.00  0.00    +0.028 A 
ATOM      7 CL   UNL     1       4.644  -7.062  28.778  0.00  0.00    -0.084 Cl
ATOM      8  C   UNL     1       4.981  -2.701  27.798  0.00  0.00    +0.051 A 
ATOM      9  N   UNL     1       5.089  -1.345  27.543  0.00  0.00    -0.321 N 
ATOM     10  H   UNL     1       4.470  -0.682  27.993  0.00  0.00    +0.169 HD
ATOM     11  C   UNL     1       6.018  -0.815  26.712  0.00  0.00    +0.262 A 
ATOM     12  O   UNL     1       6.057   0.413  26.601  0.00  0.00    -0.267 OA
ATOM     13  C   UNL     1       6.950  -1.746  25.944  0.00  0.00    +0.103 A 
ENDROOT
BRANCH  13  14
ATOM     14  C   UNL     1       7.835  -1.126  24.976  0.00  0.00    +0.146 A 
ATOM     15  N   UNL     1       8.724  -0.167  25.442  0.00  0.00    -0.338 N 
ATOM     16  H   UNL     1       8.814   0.105  26.414  0.00  0.00    +0.167 HD
ATOM     17  C   UNL     1       9.252   0.529  24.396  0.00  0.00    +0.066 A 
ATOM     18  C   UNL     1       8.825  -0.178  23.286  0.00  0.00    +0.089 A 
ATOM     19  C   UNL     1       9.228   0.282  22.021  0.00  0.00    +0.030 A 
ATOM     20  C   UNL     1       9.958   1.484  21.935  0.00  0.00    +0.002 A 
ATOM     21  C   UNL     1      10.332   2.187  23.082  0.00  0.00    +0.002 A 
ATOM     22  C   UNL     1      10.013   1.699  24.348  0.00  0.00    +0.028 A 
ATOM     23  N   UNL     1       7.986  -1.224  23.659  0.00  0.00    -0.227 NA
ENDBRANCH  13  14
BRANCH   1  24
ATOM     24  N   UNL     1       7.506  -4.148  25.480  0.00  0.00    -0.338 N 
ATOM     25  H   UNL     1       7.537  -4.926  26.153  0.00  0.00    +0.146 HD
BRANCH  24  27
ATOM     26  C   UNL     1       5.465  -4.434  23.899  0.00  0.00    +0.013 C 
ATOM     27  C   UNL     1       6.937  -4.762  24.269  0.00  0.00    +0.088 C 
ATOM     28  C   UNL     1       7.767  -4.526  22.989  0.00  0.00    +0.106 C 
ATOM     29  N   UNL     1       6.948  -4.876  21.781  0.00  0.00    -0.301 NA
ATOM     30  C   UNL     1       6.047  -3.736  21.519  0.00  0.00    +0.085 C 
ATOM     31  C   UNL     1       6.089  -6.058  22.103  0.00  0.00    +0.085 C 
ATOM     32  C   UNL     1       5.313  -3.327  22.812  0.00  0.00    +0.021 C 
ATOM     33  C   UNL     1       5.018  -5.726  23.181  0.00  0.00    +0.021 C 
ENDBRANCH  24  27
ENDBRANCH   1  24
TORSDOF 3
ENDMDL
MODEL 7
REMARK VINA RESULT:      -7.2      2.709      6.519
REMARK  Name = 
REMARK  3 active torsions:
REMARK  status: ('A' for Active; 'I' for Inactive)
REMARK    1  A    between atoms: C_9  and  N_11
REMARK    2  A    between atoms: N_11  and  C_12
REMARK    3  A    between atoms: C_13  and  C_14
REMARK                            x       y       z     vdW  Elec       q    Type
REMARK                         _______ _______ _______ _____ _____    ______ ____
ROOT
ATOM      1  C   UNL     1       7.709   0.075  23.858  0.00  0.00    +0.053 A 
ATOM      2  C   UNL     1       8.524   1.332  23.817  0.00  0.00    +0.021 A 
ATOM      3  C   UNL     1       7.965   2.607  24.028  0.00  0.00    +0.031 A 
ATOM      4  C   UNL     1       8.748   3.758  23.967  0.00  0.00    +0.042 A 
ATOM      5  C   UNL     1      10.109   3.673  23.677  0.00  0.00    +0.022 A 
ATOM      6  C   UNL     1      10.687   2.428  23.458  0.00  0.00    +0.028 A 
ATOM      7 CL   UNL     1       8.037   5.294  24.242  0.00  0.00    -0.084 Cl
ATOM      8  C   UNL     1       9.900   1.278  23.541  0.00  0.00    +0.051 A 
ATOM      9  N   UNL     1      10.508   0.049  23.357  0.00  0.00    -0.321 N 
ATOM     10  H   UNL     1      11.498  -0.015  23.155  0.00  0.00    +0.169 HD
ATOM     11  C   UNL     1       9.848  -1.130  23.454  0.00  0.00    +0.262 A 
ATOM     12  O   UNL     1      10.503  -2.168  23.325  0.00  0.00    -0.267 OA
ATOM     13  C   UNL     1       8.343  -1.126  23.695  0.00  0.00    +0.103 A 
ENDROOT
BRANCH  13  14
ATOM     14  C   UNL     1       7.675  -2.413  23.661  0.00  0.00    +0.146 A 
ATOM     15  N   UNL     1       7.995  -3.274  22.619  0.00  0.00    -0.338 N 
ATOM     16  H   UNL     1       8.683  -3.073  21.903  0.00  0.00    +0.167 HD
ATOM     17  C   UNL     1       7.082  -4.283  22.550  0.00  0.00    +0.066 A 
ATOM     18  C   UNL     1       6.335  -4.127  23.704  0.00  0.00    +0.089 A 
ATOM     19  C   UNL     1       5.300  -5.047  23.944  0.00  0.00    +0.030 A 
ATOM     20  C   UNL     1       5.008  -6.014  22.963  0.00  0.00    +0.002 A 
ATOM     21  C   UNL     1       5.763  -6.108  21.792  0.00  0.00    +0.002 A 
ATOM     22  C   UNL     1       6.848  -5.259  21.578  0.00  0.00    +0.028 A 
ATOM     23  N   UNL     1       6.740  -2.994  24.404  0.00  0.00    -0.227 NA
ENDBRANCH  13  14
BRANCH   1  24
ATOM     24  N   UNL     1       6.324   0.340  23.959  0.00  0.00    -0.338 N 
ATOM     25  H   UNL     1       5.865  -0.392  23.399  0.00  0.00    +0.146 HD
BRANCH  24  27
ATOM     26  C   UNL     1       6.432  -0.048  26.525  0.00  0.00    +0.013 C 
ATOM     27  C   UNL     1       5.614   0.285  25.248  0.00  0.00    +0.088 C 
ATOM     28  C   UNL     1       4.796   1.552  25.577  0.00  0.00    +0.106 C 
ATOM     29  N   UNL     1       4.409   1.545  27.026  0.00  0.00    -0.301 NA
ATOM     30  C   UNL     1       5.587   1.992  27.796  0.00  0.00    +0.085 C 
ATOM     31  C   UNL     1       4.113   0.138  27.443  0.00  0.00    +0.085 C 
ATOM     32  C   UNL     1       6.839   1.200  27.365  0.00  0.00    +0.021 C 
ATOM     33  C   UNL     1       5.381  -0.762  27.403  0.00  0.00    +0.021 C 
ENDBRANCH  24  27
ENDBRANCH   1  24
TORSDOF 3
ENDMDL
MODEL 8
REMARK VINA RESULT:      -7.1      1.701      2.232
REMARK  Name = 
REMARK  3 active torsions:
REMARK  status: ('A' for Active; 'I' for Inactive)
REMARK    1  A    between atoms: C_9  and  N_11
REMARK    2  A    between atoms: N_11  and  C_12
REMARK    3  A    between atoms: C_13  and  C_14
REMARK                            x       y       z     vdW  Elec       q    Type
REMARK                         _______ _______ _______ _____ _____    ______ ____
ROOT
ATOM      1  C   UNL     1       6.759  -0.397  23.414  0.00  0.00    +0.053 A 
ATOM      2  C   UNL     1       6.742  -1.892  23.515  0.00  0.00    +0.021 A 
ATOM      3  C   UNL     1       5.706  -2.597  24.157  0.00  0.00    +0.031 A 
ATOM      4  C   UNL     1       5.728  -3.988  24.248  0.00  0.00    +0.042 A 
ATOM      5  C   UNL     1       6.792  -4.716  23.717  0.00  0.00    +0.022 A 
ATOM      6  C   UNL     1       7.832  -4.044  23.083  0.00  0.00    +0.028 A 
ATOM      7 CL   UNL     1       4.443  -4.817  25.026  0.00  0.00    -0.084 Cl
ATOM      8  C   UNL     1       7.793  -2.654  22.978  0.00  0.00    +0.051 A 
ATOM      9  N   UNL     1       8.821  -2.014  22.308  0.00  0.00    -0.321 N 
ATOM     10  H   UNL     1       9.590  -2.541  21.914  0.00  0.00    +0.169 HD
ATOM     11  C   UNL     1       8.863  -0.674  22.114  0.00  0.00    +0.262 A 
ATOM     12  O   UNL     1       9.801  -0.218  21.454  0.00  0.00    -0.267 OA
ATOM     13  C   UNL     1       7.777   0.203  22.726  0.00  0.00    +0.103 A 
ENDROOT
BRANCH  13  14
ATOM     14  C   UNL     1       7.948   1.638  22.591  0.00  0.00    +0.146 A 
ATOM     15  N   UNL     1       9.102   2.199  23.122  0.00  0.00    -0.338 N 
ATOM     16  H   UNL     1       9.842   1.669  23.569  0.00  0.00    +0.167 HD
ATOM     17  C   UNL     1       8.972   3.554  23.194  0.00  0.00    +0.066 A 
ATOM     18  C   UNL     1       7.805   3.807  22.495  0.00  0.00    +0.089 A 
ATOM     19  C   UNL     1       7.396   5.145  22.367  0.00  0.00    +0.030 A 
ATOM     20  C   UNL     1       8.129   6.148  23.030  0.00  0.00    +0.002 A 
ATOM     21  C   UNL     1       9.280   5.840  23.760  0.00  0.00    +0.002 A 
ATOM     22  C   UNL     1       9.748   4.528  23.826  0.00  0.00    +0.028 A 
ATOM     23  N   UNL     1       7.204   2.619  22.091  0.00  0.00    -0.227 NA
ENDBRANCH  13  14
BRANCH   1  24
ATOM     24  N   UNL     1       5.726   0.201  24.171  0.00  0.00    -0.338 N 
ATOM     25  H   UNL     1       4.939  -0.462  24.130  0.00  0.00    +0.146 HD
BRANCH  24  27
ATOM     26  C   UNL     1       7.250   0.977  26.126  0.00  0.00    +0.013 C 
ATOM     27  C   UNL     1       5.874   0.472  25.610  0.00  0.00    +0.088 C 
ATOM     28  C   UNL     1       4.816   1.437  26.186  0.00  0.00    +0.106 C 
ATOM     29  N   UNL     1       5.250   1.917  27.539  0.00  0.00    -0.301 NA
ATOM     30  C   UNL     1       6.245   2.987  27.326  0.00  0.00    +0.085 C 
ATOM     31  C   UNL     1       5.944   0.800  28.252  0.00  0.00    +0.085 C 
ATOM     32  C   UNL     1       7.327   2.519  26.330  0.00  0.00    +0.021 C 
ATOM     33  C   UNL     1       7.282   0.408  27.562  0.00  0.00    +0.021 C 
ENDBRANCH  24  27
ENDBRANCH   1  24
TORSDOF 3
ENDMDL
MODEL 9
REMARK VINA RESULT:      -6.8      2.936      7.103
REMARK  Name = 
REMARK  3 active torsions:
REMARK  status: ('A' for Active; 'I' for Inactive)
REMARK    1  A    between atoms: C_9  and  N_11
REMARK    2  A    between atoms: N_11  and  C_12
REMARK    3  A    between atoms: C_13  and  C_14
REMARK                            x       y       z     vdW  Elec       q    Type
REMARK                         _______ _______ _______ _____ _____    ______ ____
ROOT
ATOM      1  C   UNL     1       6.881  -0.868  26.577  0.00  0.00    +0.053 A 
ATOM      2  C   UNL     1       6.269   0.001  27.634  0.00  0.00    +0.021 A 
ATOM      3  C   UNL     1       7.024   0.912  28.397  0.00  0.00    +0.031 A 
ATOM      4  C   UNL     1       6.428   1.695  29.384  0.00  0.00    +0.042 A 
ATOM      5  C   UNL     1       5.064   1.581  29.650  0.00  0.00    +0.022 A 
ATOM      6  C   UNL     1       4.295   0.685  28.915  0.00  0.00    +0.028 A 
ATOM      7 CL   UNL     1       7.374   2.804  30.287  0.00  0.00    -0.084 Cl
ATOM      8  C   UNL     1       4.896  -0.081  27.916  0.00  0.00    +0.051 A 
ATOM      9  N   UNL     1       4.101  -0.936  27.173  0.00  0.00    -0.321 N 
ATOM     10  H   UNL     1       3.109  -1.014  27.359  0.00  0.00    +0.169 HD
ATOM     11  C   UNL     1       4.571  -1.695  26.155  0.00  0.00    +0.262 A 
ATOM     12  O   UNL     1       3.761  -2.381  25.526  0.00  0.00    -0.267 OA
ATOM     13  C   UNL     1       6.064  -1.687  25.846  0.00  0.00    +0.103 A 
ENDROOT
BRANCH  13  14
ATOM     14  C   UNL     1       6.523  -2.615  24.830  0.00  0.00    +0.146 A 
ATOM     15  N   UNL     1       5.992  -2.484  23.554  0.00  0.00    -0.338 N 
ATOM     16  H   UNL     1       5.330  -1.766  23.282  0.00  0.00    +0.167 HD
ATOM     17  C   UNL     1       6.275  -3.593  22.814  0.00  0.00    +0.066 A 
ATOM     18  C   UNL     1       7.170  -4.293  23.604  0.00  0.00    +0.089 A 
ATOM     19  C   UNL     1       7.680  -5.502  23.102  0.00  0.00    +0.030 A 
ATOM     20  C   UNL     1       7.188  -5.991  21.876  0.00  0.00    +0.002 A 
ATOM     21  C   UNL     1       6.253  -5.270  21.132  0.00  0.00    +0.002 A 
ATOM     22  C   UNL     1       5.801  -4.027  21.574  0.00  0.00    +0.028 A 
ATOM     23  N   UNL     1       7.349  -3.657  24.829  0.00  0.00    -0.227 NA
ENDBRANCH  13  14
BRANCH   1  24
ATOM     24  N   UNL     1       8.291  -0.784  26.567  0.00  0.00    -0.338 N 
ATOM     25  H   UNL     1       8.619  -1.736  26.350  0.00  0.00    +0.146 HD
BRANCH  24  27
ATOM     26  C   UNL     1       9.938  -0.640  24.564  0.00  0.00    +0.013 C 
ATOM     27  C   UNL     1       9.014   0.058  25.599  0.00  0.00    +0.088 C 
ATOM     28  C   UNL     1       8.111   1.018  24.795  0.00  0.00    +0.106 C 
ATOM     29  N   UNL     1       8.868   1.562  23.620  0.00  0.00    -0.301 NA
ATOM     30  C   UNL     1       8.855   0.522  22.572  0.00  0.00    +0.085 C 
ATOM     31  C   UNL     1      10.295   1.775  24.018  0.00  0.00    +0.085 C 
ATOM     32  C   UNL     1       9.288  -0.836  23.161  0.00  0.00    +0.021 C 
ATOM     33  C   UNL     1      11.022   0.435  24.327  0.00  0.00    +0.021 C 
ENDBRANCH  24  27
ENDBRANCH   1  24
TORSDOF 3
ENDMDL
