MODEL 1
REMARK VINA RESULT:      -7.6      0.000      0.000
REMARK  Name = 
REMARK  9 active torsions:
REMARK  status: ('A' for Active; 'I' for Inactive)
REMARK    1  A    between atoms: C_1  and  O_2
REMARK    2  A    between atoms: O_2  and  C_3
REMARK    3  A    between atoms: C_4  and  C_30
REMARK    4  A    between atoms: C_7  and  N_8
REMARK    5  A    between atoms: N_11  and  C_12
REMARK    6  A    between atoms: C_16  and  C_17
REMARK    7  A    between atoms: C_17  and  N_18
REMARK    8  A    between atoms: C_19  and  O_21
REMARK    9  A    between atoms: O_21  and  C_22
REMARK                            x       y       z     vdW  Elec       q    Type
REMARK                         _______ _______ _______ _____ _____    ______ ____
ROOT
ATOM      1  N   UNL     1       7.866  -4.413  24.120  0.00  0.00    -0.269 N 
ATOM      2  H   UNL     1       8.673  -4.935  23.816  0.00  0.00    +0.156 HD
ATOM      3  C   UNL     1       8.035  -3.061  24.402  0.00  0.00    +0.308 C 
ATOM      4  N   UNL     1       9.172  -2.516  23.811  0.00  0.00    -0.269 N 
ATOM      5  H   UNL     1       9.902  -3.147  23.519  0.00  0.00    +0.156 HD
ATOM      6  O   UNL     1       7.256  -2.414  25.088  0.00  0.00    -0.252 OA
ENDROOT
BRANCH   1   9
ATOM      7  C   UNL     1       5.380  -6.417  26.110  0.00  0.00    +0.133 A 
ATOM      8  C   UNL     1       6.533  -5.674  25.740  0.00  0.00    +0.069 A 
ATOM      9  C   UNL     1       6.697  -5.158  24.447  0.00  0.00    +0.038 A 
ATOM     10  C   UNL     1       5.690  -5.412  23.521  0.00  0.00    +0.024 A 
ATOM     11  C   UNL     1       4.560  -6.154  23.872  0.00  0.00    +0.017 A 
ATOM     12  C   UNL     1       4.377  -6.688  25.162  0.00  0.00    +0.061 A 
BRANCH  12  13
ATOM     13  C   UNL     1       3.147  -7.450  25.367  0.00  0.00    +0.158 A 
ATOM     14  O   UNL     1       2.913  -8.444  24.437  0.00  0.00    -0.442 OA
ATOM     15  C   UNL     1       1.724  -8.988  24.800  0.00  0.00    +0.308 A 
ATOM     16  N   UNL     1       1.181  -8.461  25.871  0.00  0.00    -0.224 NA
ATOM     17  C   UNL     1       2.069  -7.471  26.227  0.00  0.00    +0.161 A 
ENDBRANCH  12  13
BRANCH   7  19
ATOM     18  C   UNL     1       6.233  -5.988  28.297  0.00  0.00    +0.277 C 
ATOM     19  O   UNL     1       5.326  -6.689  27.455  0.00  0.00    -0.494 OA
ENDBRANCH   7  19
ENDBRANCH   1   9
BRANCH   4  20
ATOM     20  C   UNL     1       9.471  -1.123  23.759  0.00  0.00    +0.035 A 
ATOM     21  C   UNL     1       8.925  -0.341  22.729  0.00  0.00    +0.028 A 
ATOM     22  C   UNL     1       9.155   1.053  22.673  0.00  0.00    -0.028 A 
ATOM     23  C   UNL     1       9.986   1.649  23.630  0.00  0.00    +0.005 A 
ATOM     24  C   UNL     1      10.527   0.884  24.656  0.00  0.00    +0.002 A 
ATOM     25  C   UNL     1      10.252  -0.483  24.728  0.00  0.00    +0.023 A 
BRANCH  22  26
ATOM     26  C   UNL     1       8.481   1.911  21.636  0.00  0.00    +0.143 C 
BRANCH  26  27
ATOM     27  N   UNL     1       8.418   3.304  21.993  0.00  0.00    -0.277 N 
ATOM     28  H   UNL     1       9.251   3.873  21.984  0.00  0.00    +0.152 HD
ATOM     29  C   UNL     1       7.277   3.895  22.446  0.00  0.00    +0.401 C 
ATOM     30  O   UNL     1       6.172   3.373  22.479  0.00  0.00    -0.226 OA
BRANCH  29  31
ATOM     31  O   UNL     1       7.571   5.142  22.883  0.00  0.00    -0.445 OA
BRANCH  31  32
ATOM     32  C   UNL     1       8.691   5.253  23.767  0.00  0.00    +0.206 C 
ATOM     33  C   UNL     1       8.234   5.041  25.205  0.00  0.00    +0.204 C 
ATOM     34  O   UNL     1       9.110   5.795  26.057  0.00  0.00    -0.376 OA
ATOM     35  C   UNL     1       9.960   6.592  25.222  0.00  0.00    +0.163 C 
ATOM     36  C   UNL     1       9.309   6.635  23.858  0.00  0.00    +0.075 C 
ENDBRANCH  31  32
ENDBRANCH  29  31
ENDBRANCH  26  27
ENDBRANCH  22  26
ENDBRANCH   4  20
TORSDOF 8
ENDMDL
MODEL 2
REMARK VINA RESULT:      -7.3      2.475      9.622
REMARK  Name = 
REMARK  9 active torsions:
REMARK  status: ('A' for Active; 'I' for Inactive)
REMARK    1  A    between atoms: C_1  and  O_2
REMARK    2  A    between atoms: O_2  and  C_3
REMARK    3  A    between atoms: C_4  and  C_30
REMARK    4  A    between atoms: C_7  and  N_8
REMARK    5  A    between atoms: N_11  and  C_12
REMARK    6  A    between atoms: C_16  and  C_17
REMARK    7  A    between atoms: C_17  and  N_18
REMARK    8  A    between atoms: C_19  and  O_21
REMARK    9  A    between atoms: O_21  and  C_22
REMARK                            x       y       z     vdW  Elec       q    Type
REMARK                         _______ _______ _______ _____ _____    ______ ____
ROOT
ATOM      1  N   UNL     1       9.493  -1.824  22.757  0.00  0.00    -0.269 N 
ATOM      2  H   UNL     1      10.284  -2.365  22.441  0.00  0.00    +0.156 HD
ATOM      3  C   UNL     1       8.246  -2.439  22.760  0.00  0.00    +0.308 C 
ATOM      4  N   UNL     1       8.319  -3.830  22.751  0.00  0.00    -0.269 N 
ATOM      5  H   UNL     1       9.179  -4.256  22.440  0.00  0.00    +0.156 HD
ATOM      6  O   UNL     1       7.190  -1.822  22.783  0.00  0.00    -0.252 OA
ENDROOT
BRANCH   1   9
ATOM      7  C   UNL     1       9.184   1.898  22.311  0.00  0.00    +0.133 A 
ATOM      8  C   UNL     1       9.015   0.497  22.148  0.00  0.00    +0.069 A 
ATOM      9  C   UNL     1       9.698  -0.428  22.948  0.00  0.00    +0.038 A 
ATOM     10  C   UNL     1      10.570   0.074  23.910  0.00  0.00    +0.024 A 
ATOM     11  C   UNL     1      10.754   1.449  24.066  0.00  0.00    +0.017 A 
ATOM     12  C   UNL     1      10.084   2.397  23.269  0.00  0.00    +0.061 A 
BRANCH  12  13
ATOM     13  C   UNL     1      10.394   3.797  23.549  0.00  0.00    +0.158 A 
ATOM     14  O   UNL     1      11.703   4.166  23.311  0.00  0.00    -0.442 OA
ATOM     15  C   UNL     1      11.767   5.475  23.664  0.00  0.00    +0.308 A 
ATOM     16  N   UNL     1      10.636   5.986  24.086  0.00  0.00    -0.224 NA
ATOM     17  C   UNL     1       9.762   4.924  24.035  0.00  0.00    +0.161 A 
ENDBRANCH  12  13
BRANCH   7  19
ATOM     18  C   UNL     1       7.018   2.879  22.103  0.00  0.00    +0.277 C 
ATOM     19  O   UNL     1       8.307   2.636  21.554  0.00  0.00    -0.494 OA
ENDBRANCH   7  19
ENDBRANCH   1   9
BRANCH   4  20
ATOM     20  C   UNL     1       7.212  -4.703  22.962  0.00  0.00    +0.035 A 
ATOM     21  C   UNL     1       6.704  -4.867  24.260  0.00  0.00    +0.028 A 
ATOM     22  C   UNL     1       5.575  -5.682  24.504  0.00  0.00    -0.028 A 
ATOM     23  C   UNL     1       4.991  -6.379  23.438  0.00  0.00    +0.005 A 
ATOM     24  C   UNL     1       5.484  -6.219  22.148  0.00  0.00    +0.002 A 
ATOM     25  C   UNL     1       6.569  -5.373  21.915  0.00  0.00    +0.023 A 
BRANCH  22  26
ATOM     26  C   UNL     1       4.961  -5.771  25.875  0.00  0.00    +0.143 C 
BRANCH  26  27
ATOM     27  N   UNL     1       4.910  -4.511  26.567  0.00  0.00    -0.277 N 
ATOM     28  H   UNL     1       4.200  -3.831  26.340  0.00  0.00    +0.152 HD
ATOM     29  C   UNL     1       5.851  -4.134  27.477  0.00  0.00    +0.401 C 
ATOM     30  O   UNL     1       6.750  -4.844  27.904  0.00  0.00    -0.226 OA
BRANCH  29  31
ATOM     31  O   UNL     1       5.650  -2.836  27.807  0.00  0.00    -0.445 OA
BRANCH  31  32
ATOM     32  C   UNL     1       5.858  -1.880  26.762  0.00  0.00    +0.206 C 
ATOM     33  C   UNL     1       7.333  -1.845  26.383  0.00  0.00    +0.204 C 
ATOM     34  O   UNL     1       7.632  -0.522  25.914  0.00  0.00    -0.376 OA
ATOM     35  C   UNL     1       6.481   0.301  26.148  0.00  0.00    +0.163 C 
ATOM     36  C   UNL     1       5.623  -0.434  27.153  0.00  0.00    +0.075 C 
ENDBRANCH  31  32
ENDBRANCH  29  31
ENDBRANCH  26  27
ENDBRANCH  22  26
ENDBRANCH   4  20
TORSDOF 8
ENDMDL
MODEL 3
REMARK VINA RESULT:      -7.3      2.201     10.037
REMARK  Name = 
REMARK  9 active torsions:
REMARK  status: ('A' for Active; 'I' for Inactive)
REMARK    1  A    between atoms: C_1  and  O_2
REMARK    2  A    between atoms: O_2  and  C_3
REMARK    3  A    between atoms: C_4  and  C_30
REMARK    4  A    between atoms: C_7  and  N_8
REMARK    5  A    between atoms: N_11  and  C_12
REMARK    6  A    between atoms: C_16  and  C_17
REMARK    7  A    between atoms: C_17  and  N_18
REMARK    8  A    between atoms: C_19  and  O_21
REMARK    9  A    between atoms: O_21  and  C_22
REMARK                            x       y       z     vdW  Elec       q    Type
REMARK                         _______ _______ _______ _____ _____    ______ ____
ROOT
ATOM      1  N   UNL     1       9.270  -1.532  23.558  0.00  0.00    -0.269 N 
ATOM      2  H   UNL     1      10.085  -2.056  23.837  0.00  0.00    +0.156 HD
ATOM      3  C   UNL     1       8.235  -2.223  22.936  0.00  0.00    +0.308 C 
ATOM      4  N   UNL     1       8.268  -3.594  23.177  0.00  0.00    -0.269 N 
ATOM      5  H   UNL     1       9.140  -3.999  23.483  0.00  0.00    +0.156 HD
ATOM      6  O   UNL     1       7.375  -1.679  22.258  0.00  0.00    -0.252 OA
ENDROOT
BRANCH   1   9
ATOM      7  C   UNL     1       8.681   2.010  24.682  0.00  0.00    +0.133 A 
ATOM      8  C   UNL     1       8.617   0.595  24.578  0.00  0.00    +0.069 A 
ATOM      9  C   UNL     1       9.360  -0.112  23.623  0.00  0.00    +0.038 A 
ATOM     10  C   UNL     1      10.162   0.626  22.758  0.00  0.00    +0.024 A 
ATOM     11  C   UNL     1      10.220   2.019  22.843  0.00  0.00    +0.017 A 
ATOM     12  C   UNL     1       9.478   2.750  23.790  0.00  0.00    +0.061 A 
BRANCH  12  13
ATOM     13  C   UNL     1       9.639   4.201  23.742  0.00  0.00    +0.158 A 
ATOM     14  O   UNL     1      10.946   4.643  23.672  0.00  0.00    -0.442 OA
ATOM     15  C   UNL     1      10.858   5.997  23.669  0.00  0.00    +0.308 A 
ATOM     16  N   UNL     1       9.635   6.468  23.714  0.00  0.00    -0.224 NA
ATOM     17  C   UNL     1       8.855   5.336  23.779  0.00  0.00    +0.161 A 
ENDBRANCH  12  13
BRANCH   7  19
ATOM     18  C   UNL     1       6.636   2.797  25.625  0.00  0.00    +0.277 C 
ATOM     19  O   UNL     1       8.018   2.498  25.780  0.00  0.00    -0.494 OA
ENDBRANCH   7  19
ENDBRANCH   1   9
BRANCH   4  20
ATOM     20  C   UNL     1       7.222  -4.503  22.843  0.00  0.00    +0.035 A 
ATOM     21  C   UNL     1       6.198  -4.744  23.771  0.00  0.00    +0.028 A 
ATOM     22  C   UNL     1       5.115  -5.597  23.458  0.00  0.00    -0.028 A 
ATOM     23  C   UNL     1       5.097  -6.252  22.219  0.00  0.00    +0.005 A 
ATOM     24  C   UNL     1       6.104  -6.015  21.291  0.00  0.00    +0.002 A 
ATOM     25  C   UNL     1       7.141  -5.133  21.595  0.00  0.00    +0.023 A 
BRANCH  22  26
ATOM     26  C   UNL     1       3.960  -5.770  24.407  0.00  0.00    +0.143 C 
BRANCH  26  27
ATOM     27  N   UNL     1       4.203  -5.225  25.716  0.00  0.00    -0.277 N 
ATOM     28  H   UNL     1       4.002  -4.257  25.914  0.00  0.00    +0.152 HD
ATOM     29  C   UNL     1       4.796  -5.944  26.712  0.00  0.00    +0.401 C 
ATOM     30  O   UNL     1       5.063  -7.135  26.664  0.00  0.00    -0.226 OA
BRANCH  29  31
ATOM     31  O   UNL     1       5.068  -5.118  27.749  0.00  0.00    -0.445 OA
BRANCH  31  32
ATOM     32  C   UNL     1       6.376  -4.535  27.764  0.00  0.00    +0.206 C 
ATOM     33  C   UNL     1       6.377  -3.249  26.947  0.00  0.00    +0.204 C 
ATOM     34  O   UNL     1       7.695  -3.075  26.408  0.00  0.00    -0.376 OA
ATOM     35  C   UNL     1       8.450  -4.260  26.695  0.00  0.00    +0.163 C 
ATOM     36  C   UNL     1       7.448  -5.335  27.049  0.00  0.00    +0.075 C 
ENDBRANCH  31  32
ENDBRANCH  29  31
ENDBRANCH  26  27
ENDBRANCH  22  26
ENDBRANCH   4  20
TORSDOF 8
ENDMDL
MODEL 4
REMARK VINA RESULT:      -7.1      2.720     10.243
REMARK  Name = 
REMARK  9 active torsions:
REMARK  status: ('A' for Active; 'I' for Inactive)
REMARK    1  A    between atoms: C_1  and  O_2
REMARK    2  A    between atoms: O_2  and  C_3
REMARK    3  A    between atoms: C_4  and  C_30
REMARK    4  A    between atoms: C_7  and  N_8
REMARK    5  A    between atoms: N_11  and  C_12
REMARK    6  A    between atoms: C_16  and  C_17
REMARK    7  A    between atoms: C_17  and  N_18
REMARK    8  A    between atoms: C_19  and  O_21
REMARK    9  A    between atoms: O_21  and  C_22
REMARK                            x       y       z     vdW  Elec       q    Type
REMARK                         _______ _______ _______ _____ _____    ______ ____
ROOT
ATOM      1  N   UNL     1       6.511  -0.051  22.937  0.00  0.00    -0.269 N 
ATOM      2  H   UNL     1       5.542   0.219  22.867  0.00  0.00    +0.156 HD
ATOM      3  C   UNL     1       6.799  -1.404  23.079  0.00  0.00    +0.308 C 
ATOM      4  N   UNL     1       5.758  -2.233  22.666  0.00  0.00    -0.269 N 
ATOM      5  H   UNL     1       4.833  -1.836  22.607  0.00  0.00    +0.156 HD
ATOM      6  O   UNL     1       7.864  -1.825  23.510  0.00  0.00    -0.252 OA
ENDROOT
BRANCH   1   9
ATOM      7  C   UNL     1       8.334   2.868  24.458  0.00  0.00    +0.133 A 
ATOM      8  C   UNL     1       7.399   1.820  24.241  0.00  0.00    +0.069 A 
ATOM      9  C   UNL     1       7.464   0.993  23.112  0.00  0.00    +0.038 A 
ATOM     10  C   UNL     1       8.475   1.242  22.189  0.00  0.00    +0.024 A 
ATOM     11  C   UNL     1       9.390   2.280  22.386  0.00  0.00    +0.017 A 
ATOM     12  C   UNL     1       9.340   3.127  23.510  0.00  0.00    +0.061 A 
BRANCH  12  13
ATOM     13  C   UNL     1      10.360   4.172  23.564  0.00  0.00    +0.158 A 
ATOM     14  O   UNL     1      11.651   3.743  23.326  0.00  0.00    -0.442 OA
ATOM     15  C   UNL     1      12.418   4.855  23.456  0.00  0.00    +0.308 A 
ATOM     16  N   UNL     1      11.755   5.951  23.735  0.00  0.00    -0.224 NA
ATOM     17  C   UNL     1      10.449   5.524  23.824  0.00  0.00    +0.161 A 
ENDBRANCH  12  13
BRANCH   7  19
ATOM     18  C   UNL     1       7.079   3.082  26.476  0.00  0.00    +0.277 C 
ATOM     19  O   UNL     1       8.208   3.452  25.694  0.00  0.00    -0.494 OA
ENDBRANCH   7  19
ENDBRANCH   1   9
BRANCH   4  20
ATOM     20  C   UNL     1       5.861  -3.646  22.504  0.00  0.00    +0.035 A 
ATOM     21  C   UNL     1       5.340  -4.491  23.496  0.00  0.00    +0.028 A 
ATOM     22  C   UNL     1       5.375  -5.896  23.349  0.00  0.00    -0.028 A 
ATOM     23  C   UNL     1       5.990  -6.451  22.219  0.00  0.00    +0.005 A 
ATOM     24  C   UNL     1       6.504  -5.622  21.229  0.00  0.00    +0.002 A 
ATOM     25  C   UNL     1       6.419  -4.236  21.364  0.00  0.00    +0.023 A 
BRANCH  22  26
ATOM     26  C   UNL     1       4.718  -6.801  24.357  0.00  0.00    +0.143 C 
BRANCH  26  27
ATOM     27  N   UNL     1       4.101  -6.096  25.449  0.00  0.00    -0.277 N 
ATOM     28  H   UNL     1       3.291  -5.516  25.292  0.00  0.00    +0.152 HD
ATOM     29  C   UNL     1       4.621  -6.094  26.709  0.00  0.00    +0.401 C 
ATOM     30  O   UNL     1       5.565  -6.772  27.087  0.00  0.00    -0.226 OA
BRANCH  29  31
ATOM     31  O   UNL     1       3.944  -5.197  27.463  0.00  0.00    -0.445 OA
BRANCH  31  32
ATOM     32  C   UNL     1       4.639  -3.986  27.778  0.00  0.00    +0.206 C 
ATOM     33  C   UNL     1       4.074  -3.387  29.060  0.00  0.00    +0.204 C 
ATOM     34  O   UNL     1       4.241  -1.963  28.988  0.00  0.00    -0.376 OA
ATOM     35  C   UNL     1       4.709  -1.639  27.671  0.00  0.00    +0.163 C 
ATOM     36  C   UNL     1       4.423  -2.844  26.804  0.00  0.00    +0.075 C 
ENDBRANCH  31  32
ENDBRANCH  29  31
ENDBRANCH  26  27
ENDBRANCH  22  26
ENDBRANCH   4  20
TORSDOF 8
ENDMDL
MODEL 5
REMARK VINA RESULT:      -7.0      2.514      9.964
REMARK  Name = 
REMARK  9 active torsions:
REMARK  status: ('A' for Active; 'I' for Inactive)
REMARK    1  A    between atoms: C_1  and  O_2
REMARK    2  A    between atoms: O_2  and  C_3
REMARK    3  A    between atoms: C_4  and  C_30
REMARK    4  A    between atoms: C_7  and  N_8
REMARK    5  A    between atoms: N_11  and  C_12
REMARK    6  A    between atoms: C_16  and  C_17
REMARK    7  A    between atoms: C_17  and  N_18
REMARK    8  A    between atoms: C_19  and  O_21
REMARK    9  A    between atoms: O_21  and  C_22
REMARK                            x       y       z     vdW  Elec       q    Type
REMARK                         _______ _______ _______ _____ _____    ______ ____
ROOT
ATOM      1  N   UNL     1       8.509  -3.140  26.394  0.00  0.00    -0.269 N 
ATOM      2  H   UNL     1       9.291  -3.714  26.669  0.00  0.00    +0.156 HD
ATOM      3  C   UNL     1       7.250  -3.731  26.362  0.00  0.00    +0.308 C 
ATOM      4  N   UNL     1       7.169  -4.892  27.128  0.00  0.00    -0.269 N 
ATOM      5  H   UNL     1       8.029  -5.362  27.365  0.00  0.00    +0.156 HD
ATOM      6  O   UNL     1       6.305  -3.270  25.737  0.00  0.00    -0.252 OA
ENDROOT
BRANCH   1   9
ATOM      7  C   UNL     1       9.751  -0.492  24.027  0.00  0.00    +0.133 A 
ATOM      8  C   UNL     1       9.445  -1.752  24.608  0.00  0.00    +0.069 A 
ATOM      9  C   UNL     1       8.805  -1.857  25.850  0.00  0.00    +0.038 A 
ATOM     10  C   UNL     1       8.488  -0.675  26.513  0.00  0.00    +0.024 A 
ATOM     11  C   UNL     1       8.800   0.568  25.956  0.00  0.00    +0.017 A 
ATOM     12  C   UNL     1       9.449   0.697  24.713  0.00  0.00    +0.061 A 
BRANCH  12  13
ATOM     13  C   UNL     1       9.715   2.065  24.274  0.00  0.00    +0.158 A 
ATOM     14  O   UNL     1      10.982   2.282  23.771  0.00  0.00    -0.442 OA
ATOM     15  C   UNL     1      11.014   3.603  23.461  0.00  0.00    +0.308 A 
ATOM     16  N   UNL     1       9.898   4.250  23.696  0.00  0.00    -0.224 NA
ATOM     17  C   UNL     1       9.073   3.286  24.230  0.00  0.00    +0.161 A 
ENDBRANCH  12  13
BRANCH   7  19
ATOM     18  C   UNL     1       9.532  -1.481  21.866  0.00  0.00    +0.277 C 
ATOM     19  O   UNL     1      10.220  -0.595  22.741  0.00  0.00    -0.494 OA
ENDBRANCH   7  19
ENDBRANCH   1   9
BRANCH   4  20
ATOM     20  C   UNL     1       5.958  -5.575  27.442  0.00  0.00    +0.035 A 
ATOM     21  C   UNL     1       5.183  -6.111  26.402  0.00  0.00    +0.028 A 
ATOM     22  C   UNL     1       4.003  -6.841  26.674  0.00  0.00    -0.028 A 
ATOM     23  C   UNL     1       3.576  -6.981  28.002  0.00  0.00    +0.005 A 
ATOM     24  C   UNL     1       4.339  -6.457  29.038  0.00  0.00    +0.002 A 
ATOM     25  C   UNL     1       5.528  -5.781  28.758  0.00  0.00    +0.023 A 
BRANCH  22  26
ATOM     26  C   UNL     1       3.230  -7.512  25.571  0.00  0.00    +0.143 C 
BRANCH  26  27
ATOM     27  N   UNL     1       3.675  -7.147  24.252  0.00  0.00    -0.277 N 
ATOM     28  H   UNL     1       4.555  -7.487  23.896  0.00  0.00    +0.152 HD
ATOM     29  C   UNL     1       2.995  -6.265  23.466  0.00  0.00    +0.401 C 
ATOM     30  O   UNL     1       1.896  -5.793  23.716  0.00  0.00    -0.226 OA
BRANCH  29  31
ATOM     31  O   UNL     1       3.748  -5.973  22.379  0.00  0.00    -0.445 OA
BRANCH  31  32
ATOM     32  C   UNL     1       5.098  -5.571  22.638  0.00  0.00    +0.206 C 
ATOM     33  C   UNL     1       5.193  -4.050  22.624  0.00  0.00    +0.204 C 
ATOM     34  O   UNL     1       6.517  -3.699  22.195  0.00  0.00    -0.376 OA
ATOM     35  C   UNL     1       7.179  -4.900  21.777  0.00  0.00    +0.163 C 
ATOM     36  C   UNL     1       6.098  -5.935  21.558  0.00  0.00    +0.075 C 
ENDBRANCH  31  32
ENDBRANCH  29  31
ENDBRANCH  26  27
ENDBRANCH  22  26
ENDBRANCH   4  20
TORSDOF 8
ENDMDL
MODEL 6
REMARK VINA RESULT:      -7.0      2.907      4.642
REMARK  Name = 
REMARK  9 active torsions:
REMARK  status: ('A' for Active; 'I' for Inactive)
REMARK    1  A    between atoms: C_1  and  O_2
REMARK    2  A    between atoms: O_2  and  C_3
REMARK    3  A    between atoms: C_4  and  C_30
REMARK    4  A    between atoms: C_7  and  N_8
REMARK    5  A    between atoms: N_11  and  C_12
REMARK    6  A    between atoms: C_16  and  C_17
REMARK    7  A    between atoms: C_17  and  N_18
REMARK    8  A    between atoms: C_19  and  O_21
REMARK    9  A    between atoms: O_21  and  C_22
REMARK                            x       y       z     vdW  Elec       q    Type
REMARK                         _______ _______ _______ _____ _____    ______ ____
ROOT
ATOM      1  N   UNL     1       6.175  -1.841  25.969  0.00  0.00    -0.269 N 
ATOM      2  H   UNL     1       6.864  -2.220  26.601  0.00  0.00    +0.156 HD
ATOM      3  C   UNL     1       5.989  -0.463  25.962  0.00  0.00    +0.308 C 
ATOM      4  N   UNL     1       7.069   0.239  26.494  0.00  0.00    -0.269 N 
ATOM      5  H   UNL     1       7.709  -0.261  27.092  0.00  0.00    +0.156 HD
ATOM      6  O   UNL     1       4.986   0.080  25.521  0.00  0.00    -0.252 OA
ENDROOT
BRANCH   1   9
ATOM      7  C   UNL     1       4.593  -3.913  23.256  0.00  0.00    +0.133 A 
ATOM      8  C   UNL     1       5.429  -2.992  23.942  0.00  0.00    +0.069 A 
ATOM      9  C   UNL     1       5.310  -2.769  25.320  0.00  0.00    +0.038 A 
ATOM     10  C   UNL     1       4.325  -3.474  26.003  0.00  0.00    +0.024 A 
ATOM     11  C   UNL     1       3.488  -4.371  25.334  0.00  0.00    +0.017 A 
ATOM     12  C   UNL     1       3.584  -4.606  23.950  0.00  0.00    +0.061 A 
BRANCH  12  13
ATOM     13  C   UNL     1       2.628  -5.564  23.398  0.00  0.00    +0.158 A 
ATOM     14  O   UNL     1       1.498  -5.004  22.836  0.00  0.00    -0.442 OA
ATOM     15  C   UNL     1       0.752  -6.062  22.426  0.00  0.00    +0.308 A 
ATOM     16  N   UNL     1       1.292  -7.235  22.650  0.00  0.00    -0.224 NA
ATOM     17  C   UNL     1       2.475  -6.930  23.285  0.00  0.00    +0.161 A 
ENDBRANCH  12  13
BRANCH   7  19
ATOM     18  C   UNL     1       6.209  -4.784  21.733  0.00  0.00    +0.277 C 
ATOM     19  O   UNL     1       4.973  -4.116  21.953  0.00  0.00    -0.494 OA
ENDBRANCH   7  19
ENDBRANCH   1   9
BRANCH   4  20
ATOM     20  C   UNL     1       7.235   1.653  26.418  0.00  0.00    +0.035 A 
ATOM     21  C   UNL     1       7.860   2.212  25.292  0.00  0.00    +0.028 A 
ATOM     22  C   UNL     1       7.996   3.612  25.154  0.00  0.00    -0.028 A 
ATOM     23  C   UNL     1       7.548   4.448  26.185  0.00  0.00    +0.005 A 
ATOM     24  C   UNL     1       6.923   3.904  27.301  0.00  0.00    +0.002 A 
ATOM     25  C   UNL     1       6.751   2.523  27.402  0.00  0.00    +0.023 A 
BRANCH  22  26
ATOM     26  C   UNL     1       8.565   4.218  23.899  0.00  0.00    +0.143 C 
BRANCH  26  27
ATOM     27  N   UNL     1       9.021   3.244  22.944  0.00  0.00    -0.277 N 
ATOM     28  H   UNL     1       8.362   2.752  22.360  0.00  0.00    +0.152 HD
ATOM     29  C   UNL     1      10.328   2.871  22.843  0.00  0.00    +0.401 C 
ATOM     30  O   UNL     1      11.262   3.390  23.435  0.00  0.00    -0.226 OA
BRANCH  29  31
ATOM     31  O   UNL     1      10.419   1.811  22.006  0.00  0.00    -0.445 OA
BRANCH  31  32
ATOM     32  C   UNL     1       9.665   0.651  22.373  0.00  0.00    +0.206 C 
ATOM     33  C   UNL     1      10.478  -0.209  23.333  0.00  0.00    +0.204 C 
ATOM     34  O   UNL     1      10.076  -1.574  23.145  0.00  0.00    -0.376 OA
ATOM     35  C   UNL     1       9.200  -1.624  22.011  0.00  0.00    +0.163 C 
ATOM     36  C   UNL     1       9.406  -0.334  21.249  0.00  0.00    +0.075 C 
ENDBRANCH  31  32
ENDBRANCH  29  31
ENDBRANCH  26  27
ENDBRANCH  22  26
ENDBRANCH   4  20
TORSDOF 8
ENDMDL
MODEL 7
REMARK VINA RESULT:      -6.8      2.771      5.141
REMARK  Name = 
REMARK  9 active torsions:
REMARK  status: ('A' for Active; 'I' for Inactive)
REMARK    1  A    between atoms: C_1  and  O_2
REMARK    2  A    between atoms: O_2  and  C_3
REMARK    3  A    between atoms: C_4  and  C_30
REMARK    4  A    between atoms: C_7  and  N_8
REMARK    5  A    between atoms: N_11  and  C_12
REMARK    6  A    between atoms: C_16  and  C_17
REMARK    7  A    between atoms: C_17  and  N_18
REMARK    8  A    between atoms: C_19  and  O_21
REMARK    9  A    between atoms: O_21  and  C_22
REMARK                            x       y       z     vdW  Elec       q    Type
REMARK                         _______ _______ _______ _____ _____    ______ ____
ROOT
ATOM      1  N   UNL     1       9.665   0.440  22.414  0.00  0.00    -0.269 N 
ATOM      2  H   UNL     1      10.115   0.420  21.512  0.00  0.00    +0.156 HD
ATOM      3  C   UNL     1       9.983   1.487  23.274  0.00  0.00    +0.308 C 
ATOM      4  N   UNL     1      10.527   2.589  22.620  0.00  0.00    -0.269 N 
ATOM      5  H   UNL     1      10.923   2.447  21.704  0.00  0.00    +0.156 HD
ATOM      6  O   UNL     1       9.789   1.448  24.481  0.00  0.00    -0.252 OA
ENDROOT
BRANCH   1   9
ATOM      7  C   UNL     1       8.918  -3.030  23.660  0.00  0.00    +0.133 A 
ATOM      8  C   UNL     1       9.610  -1.856  23.259  0.00  0.00    +0.069 A 
ATOM      9  C   UNL     1       8.933  -0.719  22.799  0.00  0.00    +0.038 A 
ATOM     10  C   UNL     1       7.544  -0.780  22.732  0.00  0.00    +0.024 A 
ATOM     11  C   UNL     1       6.856  -1.936  23.110  0.00  0.00    +0.017 A 
ATOM     12  C   UNL     1       7.516  -3.092  23.568  0.00  0.00    +0.061 A 
BRANCH  12  13
ATOM     13  C   UNL     1       6.655  -4.221  23.914  0.00  0.00    +0.158 A 
ATOM     14  O   UNL     1       6.253  -4.999  22.845  0.00  0.00    -0.442 OA
ATOM     15  C   UNL     1       5.452  -5.950  23.388  0.00  0.00    +0.308 A 
ATOM     16  N   UNL     1       5.311  -5.874  24.689  0.00  0.00    -0.224 NA
ATOM     17  C   UNL     1       6.057  -4.768  25.030  0.00  0.00    +0.161 A 
ENDBRANCH  12  13
BRANCH   7  19
ATOM     18  C   UNL     1       9.541  -4.248  25.615  0.00  0.00    +0.277 C 
ATOM     19  O   UNL     1       9.740  -3.967  24.235  0.00  0.00    -0.494 OA
ENDBRANCH   7  19
ENDBRANCH   1   9
BRANCH   4  20
ATOM     20  C   UNL     1      10.744   3.864  23.220  0.00  0.00    +0.035 A 
ATOM     21  C   UNL     1       9.648   4.583  23.720  0.00  0.00    +0.028 A 
ATOM     22  C   UNL     1       9.826   5.826  24.370  0.00  0.00    -0.028 A 
ATOM     23  C   UNL     1      11.114   6.370  24.464  0.00  0.00    +0.005 A 
ATOM     24  C   UNL     1      12.206   5.663  23.976  0.00  0.00    +0.002 A 
ATOM     25  C   UNL     1      12.021   4.414  23.381  0.00  0.00    +0.023 A 
BRANCH  22  26
ATOM     26  C   UNL     1       8.667   6.546  25.005  0.00  0.00    +0.143 C 
BRANCH  26  27
ATOM     27  N   UNL     1       7.499   5.723  25.171  0.00  0.00    -0.277 N 
ATOM     28  H   UNL     1       6.850   5.596  24.410  0.00  0.00    +0.152 HD
ATOM     29  C   UNL     1       7.159   5.162  26.366  0.00  0.00    +0.401 C 
ATOM     30  O   UNL     1       7.847   5.175  27.376  0.00  0.00    -0.226 OA
BRANCH  29  31
ATOM     31  O   UNL     1       5.925   4.617  26.261  0.00  0.00    -0.445 OA
BRANCH  31  32
ATOM     32  C   UNL     1       5.776   3.575  25.290  0.00  0.00    +0.206 C 
ATOM     33  C   UNL     1       4.322   3.124  25.238  0.00  0.00    +0.204 C 
ATOM     34  O   UNL     1       4.307   1.742  24.850  0.00  0.00    -0.376 OA
ATOM     35  C   UNL     1       5.661   1.272  24.835  0.00  0.00    +0.163 C 
ATOM     36  C   UNL     1       6.473   2.272  25.628  0.00  0.00    +0.075 C 
ENDBRANCH  31  32
ENDBRANCH  29  31
ENDBRANCH  26  27
ENDBRANCH  22  26
ENDBRANCH   4  20
TORSDOF 8
ENDMDL
MODEL 8
REMARK VINA RESULT:      -6.8      2.585      5.138
REMARK  Name = 
REMARK  9 active torsions:
REMARK  status: ('A' for Active; 'I' for Inactive)
REMARK    1  A    between atoms: C_1  and  O_2
REMARK    2  A    between atoms: O_2  and  C_3
REMARK    3  A    between atoms: C_4  and  C_30
REMARK    4  A    between atoms: C_7  and  N_8
REMARK    5  A    between atoms: N_11  and  C_12
REMARK    6  A    between atoms: C_16  and  C_17
REMARK    7  A    between atoms: C_17  and  N_18
REMARK    8  A    between atoms: C_19  and  O_21
REMARK    9  A    between atoms: O_21  and  C_22
REMARK                            x       y       z     vdW  Elec       q    Type
REMARK                         _______ _______ _______ _____ _____    ______ ____
ROOT
ATOM      1  N   UNL     1       9.504   0.340  22.942  0.00  0.00    -0.269 N 
ATOM      2  H   UNL     1       9.742   0.271  21.965  0.00  0.00    +0.156 HD
ATOM      3  C   UNL     1       9.995   1.430  23.654  0.00  0.00    +0.308 C 
ATOM      4  N   UNL     1      10.371   2.494  22.838  0.00  0.00    -0.269 N 
ATOM      5  H   UNL     1      10.555   2.302  21.866  0.00  0.00    +0.156 HD
ATOM      6  O   UNL     1      10.075   1.456  24.874  0.00  0.00    -0.252 OA
ENDROOT
BRANCH   1   9
ATOM      7  C   UNL     1       6.893  -1.838  24.551  0.00  0.00    +0.133 A 
ATOM      8  C   UNL     1       7.550  -0.728  23.956  0.00  0.00    +0.069 A 
ATOM      9  C   UNL     1       8.886  -0.795  23.541  0.00  0.00    +0.038 A 
ATOM     10  C   UNL     1       9.564  -1.993  23.745  0.00  0.00    +0.024 A 
ATOM     11  C   UNL     1       8.930  -3.085  24.343  0.00  0.00    +0.017 A 
ATOM     12  C   UNL     1       7.591  -3.038  24.775  0.00  0.00    +0.061 A 
BRANCH  12  13
ATOM     13  C   UNL     1       7.078  -4.259  25.392  0.00  0.00    +0.158 A 
ATOM     14  O   UNL     1       6.068  -4.888  24.692  0.00  0.00    -0.442 OA
ATOM     15  C   UNL     1       5.732  -5.961  25.452  0.00  0.00    +0.308 A 
ATOM     16  N   UNL     1       6.429  -6.094  26.554  0.00  0.00    -0.224 NA
ATOM     17  C   UNL     1       7.275  -5.008  26.534  0.00  0.00    +0.161 A 
ENDBRANCH  12  13
BRANCH   7  19
ATOM     18  C   UNL     1       5.133  -1.110  25.989  0.00  0.00    +0.277 C 
ATOM     19  O   UNL     1       5.548  -1.631  24.733  0.00  0.00    -0.494 OA
ENDBRANCH   7  19
ENDBRANCH   1   9
BRANCH   4  20
ATOM     20  C   UNL     1      10.704   3.799  23.308  0.00  0.00    +0.035 A 
ATOM     21  C   UNL     1       9.699   4.607  23.862  0.00  0.00    +0.028 A 
ATOM     22  C   UNL     1       9.998   5.885  24.386  0.00  0.00    -0.028 A 
ATOM     23  C   UNL     1      11.310   6.370  24.300  0.00  0.00    +0.005 A 
ATOM     24  C   UNL     1      12.312   5.575  23.757  0.00  0.00    +0.002 A 
ATOM     25  C   UNL     1      12.012   4.296  23.287  0.00  0.00    +0.023 A 
BRANCH  22  26
ATOM     26  C   UNL     1       8.946   6.707  25.081  0.00  0.00    +0.143 C 
BRANCH  26  27
ATOM     27  N   UNL     1       7.654   6.075  25.121  0.00  0.00    -0.277 N 
ATOM     28  H   UNL     1       7.008   6.183  24.354  0.00  0.00    +0.152 HD
ATOM     29  C   UNL     1       7.204   5.392  26.211  0.00  0.00    +0.401 C 
ATOM     30  O   UNL     1       7.865   5.126  27.204  0.00  0.00    -0.226 OA
BRANCH  29  31
ATOM     31  O   UNL     1       5.898   5.085  26.029  0.00  0.00    -0.445 OA
BRANCH  31  32
ATOM     32  C   UNL     1       5.599   4.236  24.916  0.00  0.00    +0.206 C 
ATOM     33  C   UNL     1       4.117   3.885  24.921  0.00  0.00    +0.204 C 
ATOM     34  O   UNL     1       3.972   2.593  24.312  0.00  0.00    -0.376 OA
ATOM     35  C   UNL     1       5.284   2.056  24.098  0.00  0.00    +0.163 C 
ATOM     36  C   UNL     1       6.225   2.856  24.970  0.00  0.00    +0.075 C 
ENDBRANCH  31  32
ENDBRANCH  29  31
ENDBRANCH  26  27
ENDBRANCH  22  26
ENDBRANCH   4  20
TORSDOF 8
ENDMDL
MODEL 9
REMARK VINA RESULT:      -6.5      3.029      9.896
REMARK  Name = 
REMARK  9 active torsions:
REMARK  status: ('A' for Active; 'I' for Inactive)
REMARK    1  A    between atoms: C_1  and  O_2
REMARK    2  A    between atoms: O_2  and  C_3
REMARK    3  A    between atoms: C_4  and  C_30
REMARK    4  A    between atoms: C_7  and  N_8
REMARK    5  A    between atoms: N_11  and  C_12
REMARK    6  A    between atoms: C_16  and  C_17
REMARK    7  A    between atoms: C_17  and  N_18
REMARK    8  A    between atoms: C_19  and  O_21
REMARK    9  A    between atoms: O_21  and  C_22
REMARK                            x       y       z     vdW  Elec       q    Type
REMARK                         _______ _______ _______ _____ _____    ______ ____
ROOT
ATOM      1  N   UNL     1       5.896   1.385  25.429  0.00  0.00    -0.269 N 
ATOM      2  H   UNL     1       5.022   1.875  25.543  0.00  0.00    +0.156 HD
ATOM      3  C   UNL     1       5.975   0.080  25.905  0.00  0.00    +0.308 C 
ATOM      4  N   UNL     1       4.729  -0.520  26.071  0.00  0.00    -0.269 N 
ATOM      5  H   UNL     1       3.922   0.079  26.144  0.00  0.00    +0.156 HD
ATOM      6  O   UNL     1       7.033  -0.488  26.140  0.00  0.00    -0.252 OA
ENDROOT
BRANCH   1   9
ATOM      7  C   UNL     1       8.856   2.506  23.395  0.00  0.00    +0.133 A 
ATOM      8  C   UNL     1       7.736   1.767  23.861  0.00  0.00    +0.069 A 
ATOM      9  C   UNL     1       7.018   2.150  25.001  0.00  0.00    +0.038 A 
ATOM     10  C   UNL     1       7.452   3.284  25.682  0.00  0.00    +0.024 A 
ATOM     11  C   UNL     1       8.562   4.008  25.241  0.00  0.00    +0.017 A 
ATOM     12  C   UNL     1       9.301   3.637  24.102  0.00  0.00    +0.061 A 
BRANCH  12  13
ATOM     13  C   UNL     1      10.442   4.491  23.779  0.00  0.00    +0.158 A 
ATOM     14  O   UNL     1      11.591   3.818  23.410  0.00  0.00    -0.442 OA
ATOM     15  C   UNL     1      12.510   4.792  23.190  0.00  0.00    +0.308 A 
ATOM     16  N   UNL     1      12.069   6.015  23.363  0.00  0.00    -0.224 NA
ATOM     17  C   UNL     1      10.761   5.833  23.755  0.00  0.00    +0.161 A 
ENDBRANCH  12  13
BRANCH   7  19
ATOM     18  C   UNL     1       8.351   1.588  21.252  0.00  0.00    +0.277 C 
ATOM     19  O   UNL     1       9.317   2.072  22.177  0.00  0.00    -0.494 OA
ENDBRANCH   7  19
ENDBRANCH   1   9
BRANCH   4  20
ATOM     20  C   UNL     1       4.525  -1.905  26.340  0.00  0.00    +0.035 A 
ATOM     21  C   UNL     1       4.779  -2.846  25.331  0.00  0.00    +0.028 A 
ATOM     22  C   UNL     1       4.639  -4.232  25.573  0.00  0.00    -0.028 A 
ATOM     23  C   UNL     1       4.187  -4.665  26.827  0.00  0.00    +0.005 A 
ATOM     24  C   UNL     1       3.937  -3.741  27.835  0.00  0.00    +0.002 A 
ATOM     25  C   UNL     1       4.127  -2.379  27.596  0.00  0.00    +0.023 A 
BRANCH  22  26
ATOM     26  C   UNL     1       5.018  -5.247  24.529  0.00  0.00    +0.143 C 
BRANCH  26  27
ATOM     27  N   UNL     1       6.221  -4.916  23.812  0.00  0.00    -0.277 N 
ATOM     28  H   UNL     1       7.125  -5.083  24.226  0.00  0.00    +0.152 HD
ATOM     29  C   UNL     1       6.206  -4.284  22.605  0.00  0.00    +0.401 C 
ATOM     30  O   UNL     1       5.208  -4.047  21.941  0.00  0.00    -0.226 OA
BRANCH  29  31
ATOM     31  O   UNL     1       7.471  -3.933  22.276  0.00  0.00    -0.445 OA
BRANCH  31  32
ATOM     32  C   UNL     1       7.999  -2.780  22.941  0.00  0.00    +0.206 C 
ATOM     33  C   UNL     1       8.814  -1.948  21.959  0.00  0.00    +0.204 C 
ATOM     34  O   UNL     1       9.835  -1.268  22.705  0.00  0.00    -0.376 OA
ATOM     35  C   UNL     1       9.808  -1.768  24.048  0.00  0.00    +0.163 C 
ATOM     36  C   UNL     1       9.035  -3.067  24.010  0.00  0.00    +0.075 C 
ENDBRANCH  31  32
ENDBRANCH  29  31
ENDBRANCH  26  27
ENDBRANCH  22  26
ENDBRANCH   4  20
TORSDOF 8
ENDMDL
