MODEL 1
REMARK VINA RESULT:      -7.4      0.000      0.000
REMARK  Name = 
REMARK  4 active torsions:
REMARK  status: ('A' for Active; 'I' for Inactive)
REMARK    1  A    between atoms: C_2  and  C_6
REMARK    2  A    between atoms: C_12  and  C_16
REMARK    3  A    between atoms: C_20  and  O_21
REMARK    4  A    between atoms: O_21  and  C_22
REMARK                            x       y       z     vdW  Elec       q    Type
REMARK                         _______ _______ _______ _____ _____    ______ ____
ROOT
ATOM      1  C   UNL     1      11.097   4.361  23.555  0.00  0.00    +0.080 A 
ATOM      2  C   UNL     1      11.443   2.991  23.539  0.00  0.00    +0.027 A 
ATOM      3  C   UNL     1      10.479   2.011  23.816  0.00  0.00    +0.001 A 
ATOM      4  C   UNL     1       9.185   2.421  24.087  0.00  0.00    +0.048 A 
ATOM      5  N   UNL     1       8.446   1.285  24.270  0.00  0.00    -0.354 N 
ATOM      6  H   UNL     1       7.434   1.201  24.388  0.00  0.00    +0.166 HD
ATOM      7  C   UNL     1       9.193   0.152  24.019  0.00  0.00    +0.047 A 
ATOM      8  C   UNL     1       8.783   3.760  24.105  0.00  0.00    +0.047 A 
ATOM      9  C   UNL     1      10.492   0.587  23.822  0.00  0.00    +0.036 A 
ATOM     10  C   UNL     1       9.763   4.719  23.836  0.00  0.00    +0.058 A 
ATOM     11 CL   UNL     1       9.249   6.373  23.866  0.00  0.00    -0.083 Cl
ENDROOT
BRANCH   1  15
ATOM     12  N   UNL     1      12.617   6.110  24.229  0.00  0.00    -0.250 N 
ATOM     13  H   UNL     1      12.206   6.058  25.157  0.00  0.00    +0.288 HD
ATOM     14  H   UNL     1      13.364   6.774  24.091  0.00  0.00    +0.288 HD
ATOM     15  C   UNL     1      12.153   5.348  23.258  0.00  0.00    +0.268 C 
ATOM     16  N   UNL     1      12.659   5.463  22.050  0.00  0.00    -0.288 N 
ATOM     17  H   UNL     1      13.375   6.130  21.810  0.00  0.00    +0.301 HD
ATOM     18  H   UNL     1      12.284   4.888  21.297  0.00  0.00    +0.301 HD
ENDBRANCH   1  15
BRANCH   7  19
ATOM     19  C   UNL     1       8.516  -1.163  23.856  0.00  0.00    -0.006 A 
ATOM     20  C   UNL     1       7.828  -1.761  24.974  0.00  0.00    -0.056 A 
ATOM     21  O   UNL     1       8.009  -1.368  26.186  0.00  0.00    -0.871 OA
ATOM     22  C   UNL     1       6.938  -2.817  24.617  0.00  0.00    +0.114 A 
ATOM     23  C   UNL     1       6.902  -3.372  23.328  0.00  0.00    +0.045 A 
ATOM     24  C   UNL     1       7.693  -2.856  22.311  0.00  0.00    +0.004 A 
ATOM     25  C   UNL     1       8.472  -1.735  22.567  0.00  0.00    +0.009 A 
BRANCH  22  26
ATOM     26  O   UNL     1       6.039  -3.409  25.497  0.00  0.00    -0.489 OA
BRANCH  26  27
ATOM     27  C   UNL     1       6.516  -4.634  26.075  0.00  0.00    +0.173 C 
ATOM     28  C   UNL     1       5.653  -5.839  25.664  0.00  0.00    +0.044 C 
ATOM     29  C   UNL     1       5.076  -6.438  26.936  0.00  0.00    +0.004 C 
ATOM     30  C   UNL     1       6.012  -5.969  28.032  0.00  0.00    +0.004 C 
ATOM     31  C   UNL     1       6.364  -4.554  27.602  0.00  0.00    +0.044 C 
ENDBRANCH  26  27
ENDBRANCH  22  26
ENDBRANCH   7  19
TORSDOF 4
ENDMDL
MODEL 2
REMARK VINA RESULT:      -7.4      4.411      9.383
REMARK  Name = 
REMARK  4 active torsions:
REMARK  status: ('A' for Active; 'I' for Inactive)
REMARK    1  A    between atoms: C_2  and  C_6
REMARK    2  A    between atoms: C_12  and  C_16
REMARK    3  A    between atoms: C_20  and  O_21
REMARK    4  A    between atoms: O_21  and  C_22
REMARK                            x       y       z     vdW  Elec       q    Type
REMARK                         _______ _______ _______ _____ _____    ______ ____
ROOT
ATOM      1  C   UNL     1       5.853  -5.603  26.944  0.00  0.00    +0.080 A 
ATOM      2  C   UNL     1       6.795  -4.561  27.104  0.00  0.00    +0.027 A 
ATOM      3  C   UNL     1       7.315  -3.894  25.985  0.00  0.00    +0.001 A 
ATOM      4  C   UNL     1       6.871  -4.273  24.729  0.00  0.00    +0.048 A 
ATOM      5  N   UNL     1       7.488  -3.447  23.832  0.00  0.00    -0.354 N 
ATOM      6  H   UNL     1       7.323  -3.370  22.826  0.00  0.00    +0.166 HD
ATOM      7  C   UNL     1       8.231  -2.475  24.471  0.00  0.00    +0.047 A 
ATOM      8  C   UNL     1       5.934  -5.287  24.512  0.00  0.00    +0.047 A 
ATOM      9  C   UNL     1       8.206  -2.797  25.816  0.00  0.00    +0.036 A 
ATOM     10  C   UNL     1       5.437  -5.944  25.641  0.00  0.00    +0.058 A 
ATOM     11 CL   UNL     1       4.279  -7.200  25.353  0.00  0.00    -0.083 Cl
ENDROOT
BRANCH   1  15
ATOM     12  N   UNL     1       4.469  -5.641  28.919  0.00  0.00    -0.250 N 
ATOM     13  H   UNL     1       4.201  -4.684  28.705  0.00  0.00    +0.288 HD
ATOM     14  H   UNL     1       4.057  -6.063  29.738  0.00  0.00    +0.288 HD
ATOM     15  C   UNL     1       5.341  -6.269  28.155  0.00  0.00    +0.268 C 
ATOM     16  N   UNL     1       5.716  -7.489  28.474  0.00  0.00    -0.288 N 
ATOM     17  H   UNL     1       5.392  -7.971  29.298  0.00  0.00    +0.301 HD
ATOM     18  H   UNL     1       6.406  -7.963  27.894  0.00  0.00    +0.301 HD
ENDBRANCH   1  15
BRANCH   7  19
ATOM     19  C   UNL     1       8.726  -1.297  23.707  0.00  0.00    -0.006 A 
ATOM     20  C   UNL     1       9.113  -0.097  24.408  0.00  0.00    -0.056 A 
ATOM     21  O   UNL     1       8.785   0.124  25.633  0.00  0.00    -0.871 OA
ATOM     22  C   UNL     1       9.887   0.813  23.628  0.00  0.00    +0.114 A 
ATOM     23  C   UNL     1      10.065   0.659  22.243  0.00  0.00    +0.045 A 
ATOM     24  C   UNL     1       9.547  -0.444  21.579  0.00  0.00    +0.004 A 
ATOM     25  C   UNL     1       8.908  -1.434  22.315  0.00  0.00    +0.009 A 
BRANCH  22  26
ATOM     26  O   UNL     1      10.523   1.936  24.144  0.00  0.00    -0.489 OA
BRANCH  26  27
ATOM     27  C   UNL     1      10.317   3.126  23.366  0.00  0.00    +0.173 C 
ATOM     28  C   UNL     1      11.592   3.981  23.273  0.00  0.00    +0.044 C 
ATOM     29  C   UNL     1      11.277   5.334  23.890  0.00  0.00    +0.004 C 
ATOM     30  C   UNL     1       9.767   5.443  23.808  0.00  0.00    +0.004 C 
ATOM     31  C   UNL     1       9.303   4.024  24.092  0.00  0.00    +0.044 C 
ENDBRANCH  26  27
ENDBRANCH  22  26
ENDBRANCH   7  19
TORSDOF 4
ENDMDL
MODEL 3
REMARK VINA RESULT:      -7.4      1.850      2.521
REMARK  Name = 
REMARK  4 active torsions:
REMARK  status: ('A' for Active; 'I' for Inactive)
REMARK    1  A    between atoms: C_2  and  C_6
REMARK    2  A    between atoms: C_12  and  C_16
REMARK    3  A    between atoms: C_20  and  O_21
REMARK    4  A    between atoms: O_21  and  C_22
REMARK                            x       y       z     vdW  Elec       q    Type
REMARK                         _______ _______ _______ _____ _____    ______ ____
ROOT
ATOM      1  C   UNL     1      11.059   4.197  23.547  0.00  0.00    +0.080 A 
ATOM      2  C   UNL     1      11.451   2.851  23.732  0.00  0.00    +0.027 A 
ATOM      3  C   UNL     1      10.511   1.882  24.111  0.00  0.00    +0.001 A 
ATOM      4  C   UNL     1       9.194   2.275  24.283  0.00  0.00    +0.048 A 
ATOM      5  N   UNL     1       8.488   1.148  24.598  0.00  0.00    -0.354 N 
ATOM      6  H   UNL     1       7.477   1.042  24.695  0.00  0.00    +0.166 HD
ATOM      7  C   UNL     1       9.282   0.020  24.529  0.00  0.00    +0.047 A 
ATOM      8  C   UNL     1       8.748   3.588  24.103  0.00  0.00    +0.047 A 
ATOM      9  C   UNL     1      10.571   0.474  24.314  0.00  0.00    +0.036 A 
ATOM     10  C   UNL     1       9.704   4.538  23.735  0.00  0.00    +0.058 A 
ATOM     11 CL   UNL     1       9.134   6.159  23.520  0.00  0.00    -0.083 Cl
ENDROOT
BRANCH   1  15
ATOM     12  N   UNL     1      12.597   5.983  24.058  0.00  0.00    -0.250 N 
ATOM     13  H   UNL     1      12.236   5.974  25.007  0.00  0.00    +0.288 HD
ATOM     14  H   UNL     1      13.332   6.643  23.850  0.00  0.00    +0.288 HD
ATOM     15  C   UNL     1      12.090   5.173  23.150  0.00  0.00    +0.268 C 
ATOM     16  N   UNL     1      12.533   5.232  21.913  0.00  0.00    -0.288 N 
ATOM     17  H   UNL     1      13.231   5.891  21.605  0.00  0.00    +0.301 HD
ATOM     18  H   UNL     1      12.123   4.620  21.209  0.00  0.00    +0.301 HD
ENDBRANCH   1  15
BRANCH   7  19
ATOM     19  C   UNL     1       8.656  -1.329  24.528  0.00  0.00    -0.006 A 
ATOM     20  C   UNL     1       8.135  -1.880  23.300  0.00  0.00    -0.056 A 
ATOM     21  O   UNL     1       7.916  -1.156  22.258  0.00  0.00    -0.871 OA
ATOM     22  C   UNL     1       7.890  -3.284  23.346  0.00  0.00    +0.114 A 
ATOM     23  C   UNL     1       7.937  -4.022  24.540  0.00  0.00    +0.045 A 
ATOM     24  C   UNL     1       8.304  -3.416  25.733  0.00  0.00    +0.004 A 
ATOM     25  C   UNL     1       8.693  -2.083  25.720  0.00  0.00    +0.009 A 
BRANCH  22  26
ATOM     26  O   UNL     1       7.567  -4.055  22.235  0.00  0.00    -0.489 OA
BRANCH  26  27
ATOM     27  C   UNL     1       6.154  -4.196  22.019  0.00  0.00    +0.173 C 
ATOM     28  C   UNL     1       5.332  -3.392  23.042  0.00  0.00    +0.044 C 
ATOM     29  C   UNL     1       4.469  -4.382  23.807  0.00  0.00    +0.004 C 
ATOM     30  C   UNL     1       4.372  -5.586  22.891  0.00  0.00    +0.004 C 
ATOM     31  C   UNL     1       5.758  -5.659  22.270  0.00  0.00    +0.044 C 
ENDBRANCH  26  27
ENDBRANCH  22  26
ENDBRANCH   7  19
TORSDOF 4
ENDMDL
MODEL 4
REMARK VINA RESULT:      -7.3      4.840      9.325
REMARK  Name = 
REMARK  4 active torsions:
REMARK  status: ('A' for Active; 'I' for Inactive)
REMARK    1  A    between atoms: C_2  and  C_6
REMARK    2  A    between atoms: C_12  and  C_16
REMARK    3  A    between atoms: C_20  and  O_21
REMARK    4  A    between atoms: O_21  and  C_22
REMARK                            x       y       z     vdW  Elec       q    Type
REMARK                         _______ _______ _______ _____ _____    ______ ____
ROOT
ATOM      1  C   UNL     1       5.392  -6.151  26.645  0.00  0.00    +0.080 A 
ATOM      2  C   UNL     1       6.464  -5.235  26.746  0.00  0.00    +0.027 A 
ATOM      3  C   UNL     1       6.985  -4.621  25.598  0.00  0.00    +0.001 A 
ATOM      4  C   UNL     1       6.413  -4.922  24.374  0.00  0.00    +0.048 A 
ATOM      5  N   UNL     1       7.064  -4.164  23.441  0.00  0.00    -0.354 N 
ATOM      6  H   UNL     1       6.842  -4.053  22.450  0.00  0.00    +0.166 HD
ATOM      7  C   UNL     1       7.965  -3.302  24.033  0.00  0.00    +0.047 A 
ATOM      8  C   UNL     1       5.344  -5.810  24.215  0.00  0.00    +0.047 A 
ATOM      9  C   UNL     1       7.992  -3.639  25.374  0.00  0.00    +0.036 A 
ATOM     10  C   UNL     1       4.849  -6.418  25.372  0.00  0.00    +0.058 A 
ATOM     11 CL   UNL     1       3.527  -7.517  25.157  0.00  0.00    -0.083 Cl
ENDROOT
BRANCH   1  15
ATOM     12  N   UNL     1       5.693  -7.517  28.610  0.00  0.00    -0.250 N 
ATOM     13  H   UNL     1       6.633  -7.716  28.283  0.00  0.00    +0.288 HD
ATOM     14  H   UNL     1       5.411  -7.932  29.486  0.00  0.00    +0.288 HD
ATOM     15  C   UNL     1       4.886  -6.767  27.885  0.00  0.00    +0.268 C 
ATOM     16  N   UNL     1       3.654  -6.561  28.296  0.00  0.00    -0.288 N 
ATOM     17  H   UNL     1       3.273  -6.972  29.134  0.00  0.00    +0.301 HD
ATOM     18  H   UNL     1       3.026  -5.999  27.723  0.00  0.00    +0.301 HD
ENDBRANCH   1  15
BRANCH   7  19
ATOM     19  C   UNL     1       8.548  -2.182  23.244  0.00  0.00    -0.006 A 
ATOM     20  C   UNL     1       7.733  -1.042  22.903  0.00  0.00    -0.056 A 
ATOM     21  O   UNL     1       6.448  -1.061  22.988  0.00  0.00    -0.871 OA
ATOM     22  C   UNL     1       8.472   0.097  22.468  0.00  0.00    +0.114 A 
ATOM     23  C   UNL     1       9.847   0.044  22.184  0.00  0.00    +0.045 A 
ATOM     24  C   UNL     1      10.568  -1.124  22.390  0.00  0.00    +0.004 A 
ATOM     25  C   UNL     1       9.927  -2.222  22.949  0.00  0.00    +0.009 A 
BRANCH  22  26
ATOM     26  O   UNL     1       7.917   1.356  22.267  0.00  0.00    -0.489 OA
BRANCH  26  27
ATOM     27  C   UNL     1       8.686   2.425  22.841  0.00  0.00    +0.173 C 
ATOM     28  C   UNL     1       8.792   2.301  24.371  0.00  0.00    +0.044 C 
ATOM     29  C   UNL     1       8.163   3.549  24.971  0.00  0.00    +0.004 C 
ATOM     30  C   UNL     1       8.224   4.575  23.858  0.00  0.00    +0.004 C 
ATOM     31  C   UNL     1       7.941   3.750  22.613  0.00  0.00    +0.044 C 
ENDBRANCH  26  27
ENDBRANCH  22  26
ENDBRANCH   7  19
TORSDOF 4
ENDMDL
MODEL 5
REMARK VINA RESULT:      -7.1      2.524      3.345
REMARK  Name = 
REMARK  4 active torsions:
REMARK  status: ('A' for Active; 'I' for Inactive)
REMARK    1  A    between atoms: C_2  and  C_6
REMARK    2  A    between atoms: C_12  and  C_16
REMARK    3  A    between atoms: C_20  and  O_21
REMARK    4  A    between atoms: O_21  and  C_22
REMARK                            x       y       z     vdW  Elec       q    Type
REMARK                         _______ _______ _______ _____ _____    ______ ____
ROOT
ATOM      1  C   UNL     1       8.893   2.785  23.405  0.00  0.00    +0.080 A 
ATOM      2  C   UNL     1       9.153   1.477  23.874  0.00  0.00    +0.027 A 
ATOM      3  C   UNL     1       8.211   0.455  23.692  0.00  0.00    +0.001 A 
ATOM      4  C   UNL     1       7.034   0.757  23.028  0.00  0.00    +0.048 A 
ATOM      5  N   UNL     1       6.324  -0.408  22.943  0.00  0.00    -0.354 N 
ATOM      6  H   UNL     1       5.457  -0.584  22.432  0.00  0.00    +0.166 HD
ATOM      7  C   UNL     1       7.049  -1.477  23.431  0.00  0.00    +0.047 A 
ATOM      8  C   UNL     1       6.728   2.028  22.532  0.00  0.00    +0.047 A 
ATOM      9  C   UNL     1       8.196  -0.938  23.986  0.00  0.00    +0.036 A 
ATOM     10  C   UNL     1       7.677   3.033  22.735  0.00  0.00    +0.058 A 
ATOM     11 CL   UNL     1       7.280   4.602  22.117  0.00  0.00    -0.083 Cl
ENDROOT
BRANCH   1  15
ATOM     12  N   UNL     1      11.079   3.723  23.006  0.00  0.00    -0.250 N 
ATOM     13  H   UNL     1      11.283   2.911  22.432  0.00  0.00    +0.288 HD
ATOM     14  H   UNL     1      11.803   4.422  23.091  0.00  0.00    +0.288 HD
ATOM     15  C   UNL     1       9.919   3.820  23.626  0.00  0.00    +0.268 C 
ATOM     16  N   UNL     1       9.689   4.853  24.407  0.00  0.00    -0.288 N 
ATOM     17  H   UNL     1      10.370   5.574  24.586  0.00  0.00    +0.301 HD
ATOM     18  H   UNL     1       8.801   4.914  24.902  0.00  0.00    +0.301 HD
ENDBRANCH   1  15
BRANCH   7  19
ATOM     19  C   UNL     1       6.600  -2.867  23.152  0.00  0.00    -0.006 A 
ATOM     20  C   UNL     1       5.264  -3.278  23.513  0.00  0.00    -0.056 A 
ATOM     21  O   UNL     1       4.530  -2.601  24.326  0.00  0.00    -0.871 OA
ATOM     22  C   UNL     1       4.836  -4.488  22.893  0.00  0.00    +0.114 A 
ATOM     23  C   UNL     1       5.709  -5.320  22.174  0.00  0.00    +0.045 A 
ATOM     24  C   UNL     1       7.033  -4.954  21.973  0.00  0.00    +0.004 A 
ATOM     25  C   UNL     1       7.466  -3.717  22.433  0.00  0.00    +0.009 A 
BRANCH  22  26
ATOM     26  O   UNL     1       3.533  -4.972  22.945  0.00  0.00    -0.489 OA
BRANCH  26  27
ATOM     27  C   UNL     1       3.436  -6.319  23.435  0.00  0.00    +0.173 C 
ATOM     28  C   UNL     1       2.060  -6.941  23.139  0.00  0.00    +0.044 C 
ATOM     29  C   UNL     1       1.427  -7.297  24.475  0.00  0.00    +0.004 C 
ATOM     30  C   UNL     1       2.600  -7.410  25.429  0.00  0.00    +0.004 C 
ATOM     31  C   UNL     1       3.528  -6.297  24.969  0.00  0.00    +0.044 C 
ENDBRANCH  26  27
ENDBRANCH  22  26
ENDBRANCH   7  19
TORSDOF 4
ENDMDL
MODEL 6
REMARK VINA RESULT:      -7.0      4.359      8.413
REMARK  Name = 
REMARK  4 active torsions:
REMARK  status: ('A' for Active; 'I' for Inactive)
REMARK    1  A    between atoms: C_2  and  C_6
REMARK    2  A    between atoms: C_12  and  C_16
REMARK    3  A    between atoms: C_20  and  O_21
REMARK    4  A    between atoms: O_21  and  C_22
REMARK                            x       y       z     vdW  Elec       q    Type
REMARK                         _______ _______ _______ _____ _____    ______ ____
ROOT
ATOM      1  C   UNL     1       8.638  -4.119  24.701  0.00  0.00    +0.080 A 
ATOM      2  C   UNL     1       9.207  -2.911  25.164  0.00  0.00    +0.027 A 
ATOM      3  C   UNL     1       9.168  -1.756  24.369  0.00  0.00    +0.001 A 
ATOM      4  C   UNL     1       8.546  -1.828  23.134  0.00  0.00    +0.048 A 
ATOM      5  N   UNL     1       8.604  -0.574  22.594  0.00  0.00    -0.354 N 
ATOM      6  H   UNL     1       8.158  -0.232  21.740  0.00  0.00    +0.166 HD
ATOM      7  C   UNL     1       9.143   0.333  23.484  0.00  0.00    +0.047 A 
ATOM      8  C   UNL     1       7.957  -2.992  22.630  0.00  0.00    +0.047 A 
ATOM      9  C   UNL     1       9.585  -0.409  24.565  0.00  0.00    +0.036 A 
ATOM     10  C   UNL     1       8.017  -4.133  23.435  0.00  0.00    +0.058 A 
ATOM     11 CL   UNL     1       7.285  -5.566  22.794  0.00  0.00    -0.083 Cl
ENDROOT
BRANCH   1  15
ATOM     12  N   UNL     1       9.818  -6.017  25.609  0.00  0.00    -0.250 N 
ATOM     13  H   UNL     1      10.589  -5.788  24.989  0.00  0.00    +0.288 HD
ATOM     14  H   UNL     1       9.936  -6.813  26.219  0.00  0.00    +0.288 HD
ATOM     15  C   UNL     1       8.710  -5.302  25.578  0.00  0.00    +0.268 C 
ATOM     16  N   UNL     1       7.701  -5.642  26.350  0.00  0.00    -0.288 N 
ATOM     17  H   UNL     1       7.714  -6.447  26.956  0.00  0.00    +0.301 HD
ATOM     18  H   UNL     1       6.839  -5.101  26.307  0.00  0.00    +0.301 HD
ENDBRANCH   1  15
BRANCH   7  19
ATOM     19  C   UNL     1       9.014   1.793  23.225  0.00  0.00    -0.006 A 
ATOM     20  C   UNL     1       7.857   2.300  22.529  0.00  0.00    -0.056 A 
ATOM     21  O   UNL     1       7.064   1.538  21.860  0.00  0.00    -0.871 OA
ATOM     22  C   UNL     1       7.671   3.709  22.650  0.00  0.00    +0.114 A 
ATOM     23  C   UNL     1       8.645   4.555  23.206  0.00  0.00    +0.045 A 
ATOM     24  C   UNL     1       9.818   4.034  23.736  0.00  0.00    +0.004 A 
ATOM     25  C   UNL     1       9.986   2.656  23.774  0.00  0.00    +0.009 A 
BRANCH  22  26
ATOM     26  O   UNL     1       6.534   4.385  22.225  0.00  0.00    -0.489 OA
BRANCH  26  27
ATOM     27  C   UNL     1       5.472   4.398  23.193  0.00  0.00    +0.173 C 
ATOM     28  C   UNL     1       4.274   3.544  22.744  0.00  0.00    +0.044 C 
ATOM     29  C   UNL     1       3.070   4.467  22.646  0.00  0.00    +0.004 C 
ATOM     30  C   UNL     1       3.422   5.641  23.539  0.00  0.00    +0.004 C 
ATOM     31  C   UNL     1       4.911   5.825  23.295  0.00  0.00    +0.044 C 
ENDBRANCH  26  27
ENDBRANCH  22  26
ENDBRANCH   7  19
TORSDOF 4
ENDMDL
MODEL 7
REMARK VINA RESULT:      -7.0      1.926      2.622
REMARK  Name = 
REMARK  4 active torsions:
REMARK  status: ('A' for Active; 'I' for Inactive)
REMARK    1  A    between atoms: C_2  and  C_6
REMARK    2  A    between atoms: C_12  and  C_16
REMARK    3  A    between atoms: C_20  and  O_21
REMARK    4  A    between atoms: O_21  and  C_22
REMARK                            x       y       z     vdW  Elec       q    Type
REMARK                         _______ _______ _______ _____ _____    ______ ____
ROOT
ATOM      1  C   UNL     1       8.978   3.304  23.463  0.00  0.00    +0.080 A 
ATOM      2  C   UNL     1       7.880   2.418  23.381  0.00  0.00    +0.027 A 
ATOM      3  C   UNL     1       8.081   1.061  23.089  0.00  0.00    +0.001 A 
ATOM      4  C   UNL     1       9.378   0.615  22.901  0.00  0.00    +0.048 A 
ATOM      5  N   UNL     1       9.298  -0.733  22.682  0.00  0.00    -0.354 N 
ATOM      6  H   UNL     1      10.063  -1.407  22.605  0.00  0.00    +0.166 HD
ATOM      7  C   UNL     1       8.005  -1.192  22.831  0.00  0.00    +0.047 A 
ATOM      8  C   UNL     1      10.502   1.442  22.981  0.00  0.00    +0.047 A 
ATOM      9  C   UNL     1       7.217  -0.067  22.997  0.00  0.00    +0.036 A 
ATOM     10  C   UNL     1      10.276   2.792  23.263  0.00  0.00    +0.058 A 
ATOM     11 CL   UNL     1      11.680   3.803  23.355  0.00  0.00    -0.083 Cl
ENDROOT
BRANCH   1  15
ATOM     12  N   UNL     1       8.696   5.116  25.030  0.00  0.00    -0.250 N 
ATOM     13  H   UNL     1       8.811   4.440  25.778  0.00  0.00    +0.288 HD
ATOM     14  H   UNL     1       8.554   6.080  25.297  0.00  0.00    +0.288 HD
ATOM     15  C   UNL     1       8.707   4.720  23.772  0.00  0.00    +0.268 C 
ATOM     16  N   UNL     1       8.505   5.600  22.816  0.00  0.00    -0.288 N 
ATOM     17  H   UNL     1       8.310   6.574  22.992  0.00  0.00    +0.301 HD
ATOM     18  H   UNL     1       8.493   5.287  21.847  0.00  0.00    +0.301 HD
ENDBRANCH   1  15
BRANCH   7  19
ATOM     19  C   UNL     1       7.745  -2.653  22.945  0.00  0.00    -0.006 A 
ATOM     20  C   UNL     1       7.995  -3.333  24.193  0.00  0.00    -0.056 A 
ATOM     21  O   UNL     1       8.704  -2.812  25.133  0.00  0.00    -0.871 OA
ATOM     22  C   UNL     1       7.389  -4.620  24.290  0.00  0.00    +0.114 A 
ATOM     23  C   UNL     1       6.793  -5.260  23.191  0.00  0.00    +0.045 A 
ATOM     24  C   UNL     1       6.704  -4.622  21.961  0.00  0.00    +0.004 A 
ATOM     25  C   UNL     1       7.149  -3.312  21.849  0.00  0.00    +0.009 A 
BRANCH  22  26
ATOM     26  O   UNL     1       7.338  -5.371  25.458  0.00  0.00    -0.489 OA
BRANCH  26  27
ATOM     27  C   UNL     1       6.143  -5.163  26.229  0.00  0.00    +0.173 C 
ATOM     28  C   UNL     1       6.450  -4.952  27.721  0.00  0.00    +0.044 C 
ATOM     29  C   UNL     1       5.751  -6.063  28.489  0.00  0.00    +0.004 C 
ATOM     30  C   UNL     1       4.648  -6.527  27.559  0.00  0.00    +0.004 C 
ATOM     31  C   UNL     1       5.296  -6.445  26.187  0.00  0.00    +0.044 C 
ENDBRANCH  26  27
ENDBRANCH  22  26
ENDBRANCH   7  19
TORSDOF 4
ENDMDL
MODEL 8
REMARK VINA RESULT:      -6.9      4.236      9.198
REMARK  Name = 
REMARK  4 active torsions:
REMARK  status: ('A' for Active; 'I' for Inactive)
REMARK    1  A    between atoms: C_2  and  C_6
REMARK    2  A    between atoms: C_12  and  C_16
REMARK    3  A    between atoms: C_20  and  O_21
REMARK    4  A    between atoms: O_21  and  C_22
REMARK                            x       y       z     vdW  Elec       q    Type
REMARK                         _______ _______ _______ _____ _____    ______ ____
ROOT
ATOM      1  C   UNL     1       5.117  -5.238  24.898  0.00  0.00    +0.080 A 
ATOM      2  C   UNL     1       6.432  -4.991  24.441  0.00  0.00    +0.027 A 
ATOM      3  C   UNL     1       6.859  -3.682  24.176  0.00  0.00    +0.001 A 
ATOM      4  C   UNL     1       5.967  -2.644  24.388  0.00  0.00    +0.048 A 
ATOM      5  N   UNL     1       6.639  -1.488  24.104  0.00  0.00    -0.354 N 
ATOM      6  H   UNL     1       6.328  -0.525  24.245  0.00  0.00    +0.166 HD
ATOM      7  C   UNL     1       7.968  -1.734  23.821  0.00  0.00    +0.047 A 
ATOM      8  C   UNL     1       4.660  -2.828  24.849  0.00  0.00    +0.047 A 
ATOM      9  C   UNL     1       8.099  -3.111  23.774  0.00  0.00    +0.036 A 
ATOM     10  C   UNL     1       4.254  -4.141  25.097  0.00  0.00    +0.058 A 
ATOM     11 CL   UNL     1       2.631  -4.350  25.665  0.00  0.00    -0.083 Cl
ENDROOT
BRANCH   1  15
ATOM     12  N   UNL     1       4.908  -7.143  26.363  0.00  0.00    -0.250 N 
ATOM     13  H   UNL     1       5.374  -6.597  27.081  0.00  0.00    +0.288 HD
ATOM     14  H   UNL     1       4.622  -8.080  26.608  0.00  0.00    +0.288 HD
ATOM     15  C   UNL     1       4.723  -6.634  25.160  0.00  0.00    +0.268 C 
ATOM     16  N   UNL     1       4.165  -7.372  24.226  0.00  0.00    -0.288 N 
ATOM     17  H   UNL     1       3.890  -8.332  24.368  0.00  0.00    +0.301 HD
ATOM     18  H   UNL     1       4.043  -6.984  23.293  0.00  0.00    +0.301 HD
ENDBRANCH   1  15
BRANCH   7  19
ATOM     19  C   UNL     1       8.941  -0.609  23.792  0.00  0.00    -0.006 A 
ATOM     20  C   UNL     1       8.724   0.507  22.903  0.00  0.00    -0.056 A 
ATOM     21  O   UNL     1       7.892   0.455  21.921  0.00  0.00    -0.871 OA
ATOM     22  C   UNL     1       9.505   1.660  23.208  0.00  0.00    +0.114 A 
ATOM     23  C   UNL     1      10.550   1.638  24.146  0.00  0.00    +0.045 A 
ATOM     24  C   UNL     1      10.821   0.492  24.880  0.00  0.00    +0.004 A 
ATOM     25  C   UNL     1       9.998  -0.616  24.726  0.00  0.00    +0.009 A 
BRANCH  22  26
ATOM     26  O   UNL     1       9.328   2.902  22.610  0.00  0.00    -0.489 OA
BRANCH  26  27
ATOM     27  C   UNL     1       8.326   3.712  23.243  0.00  0.00    +0.173 C 
ATOM     28  C   UNL     1       7.236   4.159  22.253  0.00  0.00    +0.044 C 
ATOM     29  C   UNL     1       7.250   5.678  22.218  0.00  0.00    +0.004 C 
ATOM     30  C   UNL     1       7.899   6.080  23.528  0.00  0.00    +0.004 C 
ATOM     31  C   UNL     1       8.974   5.022  23.719  0.00  0.00    +0.044 C 
ENDBRANCH  26  27
ENDBRANCH  22  26
ENDBRANCH   7  19
TORSDOF 4
ENDMDL
MODEL 9
REMARK VINA RESULT:      -6.7      2.157      2.547
REMARK  Name = 
REMARK  4 active torsions:
REMARK  status: ('A' for Active; 'I' for Inactive)
REMARK    1  A    between atoms: C_2  and  C_6
REMARK    2  A    between atoms: C_12  and  C_16
REMARK    3  A    between atoms: C_20  and  O_21
REMARK    4  A    between atoms: O_21  and  C_22
REMARK                            x       y       z     vdW  Elec       q    Type
REMARK                         _______ _______ _______ _____ _____    ______ ____
ROOT
ATOM      1  C   UNL     1       9.283   4.428  24.262  0.00  0.00    +0.080 A 
ATOM      2  C   UNL     1       9.804   3.218  23.748  0.00  0.00    +0.027 A 
ATOM      3  C   UNL     1       9.338   1.984  24.224  0.00  0.00    +0.001 A 
ATOM      4  C   UNL     1       8.350   1.985  25.194  0.00  0.00    +0.048 A 
ATOM      5  N   UNL     1       8.047   0.675  25.443  0.00  0.00    -0.354 N 
ATOM      6  H   UNL     1       7.296   0.299  26.025  0.00  0.00    +0.166 HD
ATOM      7  C   UNL     1       8.727  -0.170  24.590  0.00  0.00    +0.047 A 
ATOM      8  C   UNL     1       7.790   3.148  25.730  0.00  0.00    +0.047 A 
ATOM      9  C   UNL     1       9.607   0.629  23.882  0.00  0.00    +0.036 A 
ATOM     10  C   UNL     1       8.277   4.366  25.247  0.00  0.00    +0.058 A 
ATOM     11 CL   UNL     1       7.575   5.798  25.925  0.00  0.00    -0.083 Cl
ENDROOT
BRANCH   1  15
ATOM     12  N   UNL     1       9.103   6.365  22.836  0.00  0.00    -0.250 N 
ATOM     13  H   UNL     1       8.234   5.978  22.482  0.00  0.00    +0.288 HD
ATOM     14  H   UNL     1       9.398   7.256  22.463  0.00  0.00    +0.288 HD
ATOM     15  C   UNL     1       9.811   5.696  23.725  0.00  0.00    +0.268 C 
ATOM     16  N   UNL     1      10.960   6.185  24.136  0.00  0.00    -0.288 N 
ATOM     17  H   UNL     1      11.353   7.044  23.785  0.00  0.00    +0.301 HD
ATOM     18  H   UNL     1      11.514   5.655  24.806  0.00  0.00    +0.301 HD
ENDBRANCH   1  15
BRANCH   7  19
ATOM     19  C   UNL     1       8.318  -1.597  24.476  0.00  0.00    -0.006 A 
ATOM     20  C   UNL     1       6.987  -1.930  24.032  0.00  0.00    -0.056 A 
ATOM     21  O   UNL     1       6.032  -1.067  24.004  0.00  0.00    -0.871 OA
ATOM     22  C   UNL     1       6.826  -3.289  23.630  0.00  0.00    +0.114 A 
ATOM     23  C   UNL     1       7.810  -4.265  23.856  0.00  0.00    +0.045 A 
ATOM     24  C   UNL     1       9.030  -3.925  24.423  0.00  0.00    +0.004 A 
ATOM     25  C   UNL     1       9.294  -2.590  24.702  0.00  0.00    +0.009 A 
BRANCH  22  26
ATOM     26  O   UNL     1       5.693  -3.785  22.996  0.00  0.00    -0.489 OA
BRANCH  26  27
ATOM     27  C   UNL     1       4.916  -4.675  23.814  0.00  0.00    +0.173 C 
ATOM     28  C   UNL     1       4.085  -5.656  22.969  0.00  0.00    +0.044 C 
ATOM     29  C   UNL     1       2.622  -5.415  23.303  0.00  0.00    +0.004 C 
ATOM     30  C   UNL     1       2.650  -4.754  24.667  0.00  0.00    +0.004 C 
ATOM     31  C   UNL     1       3.873  -3.854  24.589  0.00  0.00    +0.044 C 
ENDBRANCH  26  27
ENDBRANCH  22  26
ENDBRANCH   7  19
TORSDOF 4
ENDMDL
