MODEL 1
REMARK VINA RESULT:       1.1      0.000      0.000
REMARK  Name = 
REMARK  27 active torsions:
REMARK  status: ('A' for Active; 'I' for Inactive)
REMARK    1  A    between atoms: C_4  and  O_6
REMARK    2  A    between atoms: C_11  and  C_94
REMARK    3  A    between atoms: C_16  and  N_67
REMARK    4  A    between atoms: C_19  and  O_21
REMARK    5  A    between atoms: C_22  and  O_24
REMARK    6  A    between atoms: C_30  and  O_32
REMARK    7  A    between atoms: C_33  and  C_35
REMARK    8  A    between atoms: C_40  and  C_63
REMARK    9  A    between atoms: C_45  and  C_50
REMARK   10  A    between atoms: C_50  and  O_52
REMARK   11  A    between atoms: C_50  and  C_53
REMARK   12  A    between atoms: C_53  and  O_55
REMARK   13  A    between atoms: C_53  and  C_56
REMARK   14  A    between atoms: C_59  and  O_60
REMARK   15  A    between atoms: C_63  and  C_65
REMARK   16  A    between atoms: C_63  and  O_66
REMARK   17  A    between atoms: C_68  and  C_70
REMARK   18  A    between atoms: C_73  and  C_76
REMARK   19  A    between atoms: C_79  and  C_82
REMARK   20  A    between atoms: C_85  and  O_86
REMARK   21  A    between atoms: O_86  and  C_87
REMARK   22  A    between atoms: C_87  and  C_88
REMARK   23  A    between atoms: C_88  and  C_89
REMARK   24  A    between atoms: C_89  and  C_90
REMARK   25  A    between atoms: C_90  and  C_91
REMARK   26  A    between atoms: C_94  and  C_96
REMARK   27  A    between atoms: C_94  and  O_97
REMARK                            x       y       z     vdW  Elec       q    Type
REMARK                         _______ _______ _______ _____ _____    ______ ____
ROOT
ATOM      1  C   UNL     1       5.704   1.694  24.374  0.00  0.00    +0.164 C 
ATOM      2  C   UNL     1       5.994   0.194  24.187  0.00  0.00    +0.234 C 
ATOM      3  O   UNL     1       5.186  -0.639  23.790  0.00  0.00    -0.274 OA
ATOM      4  N   UNL     1       7.390  -0.056  24.136  0.00  0.00    -0.300 N 
ATOM      5  H   UNL     1       7.552  -1.044  23.963  0.00  0.00    +0.150 HD
ATOM      6  C   UNL     1       8.275   0.677  25.130  0.00  0.00    +0.190 C 
ATOM      7  C   UNL     1       9.060   2.361  24.695  0.00  0.00    +0.237 C 
ATOM      8  O   UNL     1      10.234   2.268  24.277  0.00  0.00    -0.274 OA
ATOM      9  N   UNL     1       8.489   3.958  24.654  0.00  0.00    -0.300 N 
ATOM     10  H   UNL     1       9.335   4.512  24.536  0.00  0.00    +0.150 HD
ATOM     11  C   UNL     1       7.084   5.114  25.273  0.00  0.00    +0.187 C 
ATOM     12  C   UNL     1       5.120   5.227  25.096  0.00  0.00    +0.239 C 
ATOM     13  O   UNL     1       4.710   5.661  23.990  0.00  0.00    -0.273 OA
ATOM     14  N   UNL     1       3.852   4.577  25.957  0.00  0.00    -0.285 N 
ATOM     15  C   UNL     1       2.829   5.140  27.303  0.00  0.00    +0.191 C 
ATOM     16  C   UNL     1       1.425   4.415  26.981  0.00  0.00    +0.148 C 
ATOM     17  C   UNL     1       1.752   3.226  26.104  0.00  0.00    +0.034 C 
ATOM     18  C   UNL     1       0.583   2.491  25.454  0.00  0.00    +0.012 C 
ATOM     19  C   UNL     1       2.922   4.728  29.023  0.00  0.00    +0.238 C 
ATOM     20  O   UNL     1       2.160   3.876  29.518  0.00  0.00    -0.274 OA
ATOM     21  N   UNL     1       3.875   5.033  29.956  0.00  0.00    -0.287 N 
ATOM     22  H   UNL     1       3.881   4.351  30.711  0.00  0.00    +0.151 HD
ATOM     23  C   UNL     1       5.081   5.798  29.954  0.00  0.00    +0.231 C 
ATOM     24  C   UNL     1       6.082   5.370  28.903  0.00  0.00    +0.163 C 
ATOM     25  C   UNL     1       5.370   4.417  27.949  0.00  0.00    +0.067 C 
ATOM     26  C   UNL     1       4.573   2.949  28.068  0.00  0.00    +0.162 C 
ATOM     27  C   UNL     1       4.954   1.892  27.098  0.00  0.00    +0.234 C 
ATOM     28  O   UNL     1       4.228   1.182  26.423  0.00  0.00    -0.274 OA
ATOM     29  N   UNL     1       6.182   1.514  27.348  0.00  0.00    -0.300 N 
ATOM     30  H   UNL     1       6.426   0.552  27.210  0.00  0.00    +0.150 HD
ATOM     31  C   UNL     1       7.162   2.278  27.951  0.00  0.00    +0.187 C 
ATOM     32  C   UNL     1       7.493   2.920  26.497  0.00  0.00    +0.239 C 
ATOM     33  O   UNL     1       8.528   3.589  26.748  0.00  0.00    -0.273 OA
ATOM     34  C   UNL     1       2.867   3.743  25.191  0.00  0.00    +0.114 C 
ATOM     35  N   UNL     1       6.510   2.846  24.990  0.00  0.00    -0.286 N 
ATOM     36  C   UNL     1       6.723   3.588  23.352  0.00  0.00    +0.140 C 
ATOM     37  C   UNL     1       5.685   3.061  22.330  0.00  0.00    +0.134 C 
ATOM     38  C   UNL     1       4.764   2.287  23.225  0.00  0.00    +0.065 C 
ENDROOT
BRANCH  26  39
ATOM     39  N   UNL     1       4.385   2.159  29.304  0.00  0.00    -0.300 N 
ATOM     40  H   UNL     1       3.567   2.515  29.781  0.00  0.00    +0.150 HD
ATOM     41  C   UNL     1       4.291   0.736  29.181  0.00  0.00    +0.245 C 
ATOM     42  O   UNL     1       5.211  -0.052  28.967  0.00  0.00    -0.270 OA
BRANCH  41  43
ATOM     43  C   UNL     1       2.982   0.137  29.368  0.00  0.00    +0.037 A 
ATOM     44  C   UNL     1       2.094   0.316  28.316  0.00  0.00    +0.013 A 
ATOM     45  C   UNL     1       1.193  -0.685  28.072  0.00  0.00    +0.009 A 
ATOM     46  C   UNL     1       1.246  -1.844  28.858  0.00  0.00    -0.018 A 
ATOM     47  C   UNL     1       1.952  -1.839  30.072  0.00  0.00    +0.009 A 
ATOM     48  C   UNL     1       2.780  -0.794  30.367  0.00  0.00    +0.013 A 
BRANCH  46  49
ATOM     49  C   UNL     1       0.824  -3.118  28.301  0.00  0.00    -0.018 A 
ATOM     50  C   UNL     1       0.764  -3.288  26.907  0.00  0.00    +0.009 A 
ATOM     51  C   UNL     1       0.584  -4.541  26.353  0.00  0.00    +0.009 A 
ATOM     52  C   UNL     1       0.540  -5.663  27.180  0.00  0.00    -0.018 A 
ATOM     53  C   UNL     1       0.598  -5.486  28.573  0.00  0.00    +0.009 A 
ATOM     54  C   UNL     1       0.689  -4.229  29.129  0.00  0.00    +0.009 A 
BRANCH  52  55
ATOM     55  C   UNL     1       0.487  -7.008  26.628  0.00  0.00    -0.018 A 
ATOM     56  C   UNL     1       0.451  -7.253  25.245  0.00  0.00    +0.012 A 
ATOM     57  C   UNL     1       0.498  -8.554  24.754  0.00  0.00    +0.046 A 
ATOM     58  C   UNL     1       0.610  -9.619  25.641  0.00  0.00    +0.121 A 
ATOM     59  C   UNL     1       0.618  -9.381  27.016  0.00  0.00    +0.046 A 
ATOM     60  C   UNL     1       0.535  -8.095  27.500  0.00  0.00    +0.012 A 
BRANCH  58  61
ATOM     61  O   UNL     1       0.722 -10.862  25.077  0.00  0.00    -0.492 OA
BRANCH  61  62
ATOM     62  C   UNL     1       0.443 -10.844  23.683  0.00  0.00    +0.229 C 
BRANCH  62  63
ATOM     63  C   UNL     1       1.320  -9.844  22.971  0.00  0.00    +0.041 C 
BRANCH  63  64
ATOM     64  C   UNL     1       0.443  -9.077  21.990  0.00  0.00    +0.003 C 
BRANCH  64  65
ATOM     65  C   UNL     1       1.253  -8.055  21.215  0.00  0.00    -0.003 C 
ATOM     66  C   UNL     1       0.933  -8.132  19.733  0.00  0.00    +0.004 C 
ENDBRANCH  64  65
ENDBRANCH  63  64
ENDBRANCH  62  63
ENDBRANCH  61  62
ENDBRANCH  58  61
ENDBRANCH  52  55
ENDBRANCH  46  49
ENDBRANCH  41  43
ENDBRANCH  26  39
BRANCH  37  67
ATOM     67  O   UNL     1       5.023   4.090  21.599  0.00  0.00    -0.390 OA
ATOM     68  H   UNL     1       4.663   4.758  22.223  0.00  0.00    +0.210 HD
ENDBRANCH  37  67
BRANCH  31  69
ATOM     69  C   UNL     1       7.666   1.862  29.412  0.00  0.00    +0.141 C 
ATOM     70  C   UNL     1       8.586   0.687  29.705  0.00  0.00    +0.040 C 
BRANCH  69  71
ATOM     71  O   UNL     1       8.389   2.970  30.086  0.00  0.00    -0.390 OA
ATOM     72  H   UNL     1       8.902   2.551  30.808  0.00  0.00    +0.210 HD
ENDBRANCH  69  71
ENDBRANCH  31  69
BRANCH  24  73
ATOM     73  O   UNL     1       6.438   6.570  28.130  0.00  0.00    -0.387 OA
ATOM     74  H   UNL     1       7.409   6.500  27.953  0.00  0.00    +0.210 HD
ENDBRANCH  24  73
BRANCH  23  75
ATOM     75  O   UNL     1       4.618   7.108  29.712  0.00  0.00    -0.372 OA
ATOM     76  H   UNL     1       3.651   6.994  29.721  0.00  0.00    +0.212 HD
ENDBRANCH  23  75
BRANCH  16  77
ATOM     77  O   UNL     1       0.460   5.270  26.403  0.00  0.00    -0.389 OA
ATOM     78  H   UNL     1       0.491   6.129  26.850  0.00  0.00    +0.210 HD
ENDBRANCH  16  77
BRANCH  11  79
ATOM     79  C   UNL     1       7.729   6.544  24.921  0.00  0.00    +0.141 C 
ATOM     80  C   UNL     1       9.063   6.943  25.527  0.00  0.00    +0.040 C 
BRANCH  79  81
ATOM     81  O   UNL     1       7.837   6.765  23.510  0.00  0.00    -0.390 OA
ATOM     82  H   UNL     1       8.785   6.886  23.287  0.00  0.00    +0.210 HD
ENDBRANCH  79  81
ENDBRANCH  11  79
BRANCH   6  83
ATOM     83  C   UNL     1       8.443  -0.508  26.337  0.00  0.00    +0.176 C 
BRANCH  83  84
ATOM     84  O   UNL     1       9.479  -0.089  27.214  0.00  0.00    -0.387 OA
ATOM     85  H   UNL     1       9.819   0.814  27.002  0.00  0.00    +0.210 HD
ENDBRANCH  83  84
BRANCH  83  86
ATOM     86  C   UNL     1       8.672  -2.044  26.377  0.00  0.00    +0.175 C 
BRANCH  86  87
ATOM     87  C   UNL     1       7.207  -2.730  26.297  0.00  0.00    -0.016 A 
ATOM     88  C   UNL     1       7.060  -4.106  25.975  0.00  0.00    +0.010 A 
ATOM     89  C   UNL     1       5.955  -4.861  26.430  0.00  0.00    +0.046 A 
ATOM     90  C   UNL     1       4.965  -4.258  27.195  0.00  0.00    +0.117 A 
ATOM     91  C   UNL     1       5.030  -2.893  27.454  0.00  0.00    +0.046 A 
ATOM     92  C   UNL     1       6.122  -2.128  26.982  0.00  0.00    +0.010 A 
BRANCH  90  93
ATOM     93  O   UNL     1       3.978  -5.045  27.718  0.00  0.00    -0.507 OA
ATOM     94  H   UNL     1       3.402  -5.355  26.998  0.00  0.00    +0.292 HD
ENDBRANCH  90  93
ENDBRANCH  86  87
BRANCH  86  95
ATOM     95  O   UNL     1       9.313  -2.416  27.592  0.00  0.00    -0.385 OA
ATOM     96  H   UNL     1       9.309  -1.645  28.186  0.00  0.00    +0.210 HD
ENDBRANCH  86  95
ENDBRANCH  83  86
ENDBRANCH   6  83
TORSDOF 23
ENDMDL
MODEL 2
REMARK VINA RESULT:       3.8      3.849     10.624
REMARK  Name = 
REMARK  27 active torsions:
REMARK  status: ('A' for Active; 'I' for Inactive)
REMARK    1  A    between atoms: C_4  and  O_6
REMARK    2  A    between atoms: C_11  and  C_94
REMARK    3  A    between atoms: C_16  and  N_67
REMARK    4  A    between atoms: C_19  and  O_21
REMARK    5  A    between atoms: C_22  and  O_24
REMARK    6  A    between atoms: C_30  and  O_32
REMARK    7  A    between atoms: C_33  and  C_35
REMARK    8  A    between atoms: C_40  and  C_63
REMARK    9  A    between atoms: C_45  and  C_50
REMARK   10  A    between atoms: C_50  and  O_52
REMARK   11  A    between atoms: C_50  and  C_53
REMARK   12  A    between atoms: C_53  and  O_55
REMARK   13  A    between atoms: C_53  and  C_56
REMARK   14  A    between atoms: C_59  and  O_60
REMARK   15  A    between atoms: C_63  and  C_65
REMARK   16  A    between atoms: C_63  and  O_66
REMARK   17  A    between atoms: C_68  and  C_70
REMARK   18  A    between atoms: C_73  and  C_76
REMARK   19  A    between atoms: C_79  and  C_82
REMARK   20  A    between atoms: C_85  and  O_86
REMARK   21  A    between atoms: O_86  and  C_87
REMARK   22  A    between atoms: C_87  and  C_88
REMARK   23  A    between atoms: C_88  and  C_89
REMARK   24  A    between atoms: C_89  and  C_90
REMARK   25  A    between atoms: C_90  and  C_91
REMARK   26  A    between atoms: C_94  and  C_96
REMARK   27  A    between atoms: C_94  and  O_97
REMARK                            x       y       z     vdW  Elec       q    Type
REMARK                         _______ _______ _______ _____ _____    ______ ____
ROOT
ATOM      1  C   UNL     1       2.781  -3.756  25.860  0.00  0.00    +0.164 C 
ATOM      2  C   UNL     1       1.695  -2.667  25.793  0.00  0.00    +0.234 C 
ATOM      3  O   UNL     1       0.987  -2.433  24.821  0.00  0.00    -0.274 OA
ATOM      4  N   UNL     1       1.324  -2.233  27.093  0.00  0.00    -0.300 N 
ATOM      5  H   UNL     1       0.572  -1.553  27.021  0.00  0.00    +0.150 HD
ATOM      6  C   UNL     1       2.432  -2.010  28.107  0.00  0.00    +0.190 C 
ATOM      7  C   UNL     1       2.998  -3.410  29.273  0.00  0.00    +0.237 C 
ATOM      8  O   UNL     1       2.460  -3.366  30.400  0.00  0.00    -0.274 OA
ATOM      9  N   UNL     1       3.999  -4.768  29.094  0.00  0.00    -0.300 N 
ATOM     10  H   UNL     1       4.129  -5.097  30.048  0.00  0.00    +0.150 HD
ATOM     11  C   UNL     1       5.365  -5.548  27.988  0.00  0.00    +0.187 C 
ATOM     12  C   UNL     1       5.549  -6.127  26.109  0.00  0.00    +0.239 C 
ATOM     13  O   UNL     1       4.990  -7.219  25.833  0.00  0.00    -0.273 OA
ATOM     14  N   UNL     1       6.002  -5.351  24.708  0.00  0.00    -0.285 N 
ATOM     15  C   UNL     1       7.535  -5.155  23.821  0.00  0.00    +0.191 C 
ATOM     16  C   UNL     1       7.029  -5.075  22.292  0.00  0.00    +0.148 C 
ATOM     17  C   UNL     1       5.580  -4.640  22.348  0.00  0.00    +0.034 C 
ATOM     18  C   UNL     1       4.778  -4.707  21.050  0.00  0.00    +0.012 C 
ATOM     19  C   UNL     1       8.633  -3.766  23.783  0.00  0.00    +0.238 C 
ATOM     20  O   UNL     1       8.611  -2.960  22.833  0.00  0.00    -0.274 OA
ATOM     21  N   UNL     1       9.429  -3.239  24.764  0.00  0.00    -0.287 N 
ATOM     22  H   UNL     1       9.614  -2.252  24.595  0.00  0.00    +0.151 HD
ATOM     23  C   UNL     1       9.730  -3.588  26.116  0.00  0.00    +0.231 C 
ATOM     24  C   UNL     1       8.513  -3.710  27.007  0.00  0.00    +0.163 C 
ATOM     25  C   UNL     1       7.280  -3.707  26.109  0.00  0.00    +0.067 C 
ATOM     26  C   UNL     1       6.597  -2.669  24.988  0.00  0.00    +0.162 C 
ATOM     27  C   UNL     1       5.147  -2.382  25.128  0.00  0.00    +0.234 C 
ATOM     28  O   UNL     1       4.283  -2.396  24.268  0.00  0.00    -0.274 OA
ATOM     29  N   UNL     1       4.958  -1.698  26.229  0.00  0.00    -0.300 N 
ATOM     30  H   UNL     1       4.239  -0.999  26.242  0.00  0.00    +0.150 HD
ATOM     31  C   UNL     1       5.764  -1.719  27.348  0.00  0.00    +0.187 C 
ATOM     32  C   UNL     1       4.960  -3.038  27.848  0.00  0.00    +0.239 C 
ATOM     33  O   UNL     1       5.425  -3.192  29.006  0.00  0.00    -0.273 OA
ATOM     34  C   UNL     1       5.026  -5.377  23.569  0.00  0.00    +0.114 C 
ATOM     35  N   UNL     1       3.854  -4.100  26.903  0.00  0.00    -0.286 N 
ATOM     36  C   UNL     1       2.980  -5.631  27.314  0.00  0.00    +0.140 C 
ATOM     37  C   UNL     1       1.992  -6.060  26.201  0.00  0.00    +0.134 C 
ATOM     38  C   UNL     1       2.353  -5.099  25.107  0.00  0.00    +0.065 C 
ENDROOT
BRANCH  26  39
ATOM     39  N   UNL     1       7.121  -1.343  24.597  0.00  0.00    -0.300 N 
ATOM     40  H   UNL     1       6.403  -0.866  24.066  0.00  0.00    +0.150 HD
ATOM     41  C   UNL     1       7.608  -0.482  25.632  0.00  0.00    +0.245 C 
ATOM     42  O   UNL     1       8.671  -0.584  26.241  0.00  0.00    -0.270 OA
BRANCH  41  43
ATOM     43  C   UNL     1       6.788   0.663  25.985  0.00  0.00    +0.037 A 
ATOM     44  C   UNL     1       7.417   1.895  25.879  0.00  0.00    +0.013 A 
ATOM     45  C   UNL     1       6.648   2.969  25.521  0.00  0.00    +0.009 A 
ATOM     46  C   UNL     1       5.292   2.760  25.236  0.00  0.00    -0.018 A 
ATOM     47  C   UNL     1       4.662   1.573  25.644  0.00  0.00    +0.009 A 
ATOM     48  C   UNL     1       5.419   0.529  26.097  0.00  0.00    +0.013 A 
BRANCH  46  49
ATOM     49  C   UNL     1       4.609   3.622  24.286  0.00  0.00    -0.018 A 
ATOM     50  C   UNL     1       5.249   3.993  23.090  0.00  0.00    +0.009 A 
ATOM     51  C   UNL     1       4.549   4.620  22.078  0.00  0.00    +0.009 A 
ATOM     52  C   UNL     1       3.175   4.819  22.207  0.00  0.00    -0.018 A 
ATOM     53  C   UNL     1       2.542   4.448  23.406  0.00  0.00    +0.009 A 
ATOM     54  C   UNL     1       3.255   3.903  24.450  0.00  0.00    +0.009 A 
BRANCH  52  55
ATOM     55  C   UNL     1       2.382   5.353  21.110  0.00  0.00    -0.018 A 
ATOM     56  C   UNL     1       1.714   6.586  21.194  0.00  0.00    +0.012 A 
ATOM     57  C   UNL     1       1.046   7.107  20.090  0.00  0.00    +0.046 A 
ATOM     58  C   UNL     1       1.063   6.412  18.886  0.00  0.00    +0.121 A 
ATOM     59  C   UNL     1       1.702   5.175  18.807  0.00  0.00    +0.046 A 
ATOM     60  C   UNL     1       2.332   4.644  19.910  0.00  0.00    +0.012 A 
BRANCH  58  61
ATOM     61  O   UNL     1       0.443   7.025  17.830  0.00  0.00    -0.492 OA
BRANCH  61  62
ATOM     62  C   UNL     1       0.454   6.218  16.659  0.00  0.00    +0.229 C 
BRANCH  62  63
ATOM     63  C   UNL     1       1.711   6.449  15.858  0.00  0.00    +0.041 C 
BRANCH  63  64
ATOM     64  C   UNL     1       1.933   5.221  14.983  0.00  0.00    +0.003 C 
BRANCH  64  65
ATOM     65  C   UNL     1       1.693   5.542  13.520  0.00  0.00    -0.003 C 
ATOM     66  C   UNL     1       2.336   6.867  13.151  0.00  0.00    +0.004 C 
ENDBRANCH  64  65
ENDBRANCH  63  64
ENDBRANCH  62  63
ENDBRANCH  61  62
ENDBRANCH  58  61
ENDBRANCH  52  55
ENDBRANCH  46  49
ENDBRANCH  41  43
ENDBRANCH  26  39
BRANCH  37  67
ATOM     67  O   UNL     1       2.120  -7.426  25.812  0.00  0.00    -0.390 OA
ATOM     68  H   UNL     1       1.861  -7.525  24.871  0.00  0.00    +0.210 HD
ENDBRANCH  37  67
BRANCH  31  69
ATOM     69  C   UNL     1       6.602  -0.405  27.714  0.00  0.00    +0.141 C 
ATOM     70  C   UNL     1       6.267   0.541  28.857  0.00  0.00    +0.040 C 
BRANCH  69  71
ATOM     71  O   UNL     1       8.024  -0.716  28.005  0.00  0.00    -0.390 OA
ATOM     72  H   UNL     1       8.205  -1.571  27.564  0.00  0.00    +0.210 HD
ENDBRANCH  69  71
ENDBRANCH  31  69
BRANCH  24  73
ATOM     73  O   UNL     1       8.578  -5.032  27.649  0.00  0.00    -0.387 OA
ATOM     74  H   UNL     1       8.820  -5.670  26.932  0.00  0.00    +0.210 HD
ENDBRANCH  24  73
BRANCH  23  75
ATOM     75  O   UNL     1      10.385  -4.829  25.978  0.00  0.00    -0.372 OA
ATOM     76  H   UNL     1      10.323  -5.201  26.875  0.00  0.00    +0.212 HD
ENDBRANCH  23  75
BRANCH  16  77
ATOM     77  O   UNL     1       7.212  -6.273  21.566  0.00  0.00    -0.389 OA
ATOM     78  H   UNL     1       7.598  -6.941  22.152  0.00  0.00    +0.210 HD
ENDBRANCH  16  77
BRANCH  11  79
ATOM     79  C   UNL     1       5.862  -6.730  28.957  0.00  0.00    +0.141 C 
ATOM     80  C   UNL     1       6.450  -6.398  30.317  0.00  0.00    +0.040 C 
BRANCH  79  81
ATOM     81  O   UNL     1       4.851  -7.719  29.178  0.00  0.00    -0.390 OA
ATOM     82  H   UNL     1       4.097  -7.532  28.578  0.00  0.00    +0.210 HD
ENDBRANCH  79  81
ENDBRANCH  11  79
BRANCH   6  83
ATOM     83  C   UNL     1       2.651  -0.330  27.970  0.00  0.00    +0.176 C 
BRANCH  83  84
ATOM     84  O   UNL     1       2.530   0.231  29.270  0.00  0.00    -0.387 OA
ATOM     85  H   UNL     1       1.769   0.857  29.347  0.00  0.00    +0.210 HD
ENDBRANCH  83  84
BRANCH  83  86
ATOM     86  C   UNL     1       2.026   0.818  27.132  0.00  0.00    +0.175 C 
BRANCH  86  87
ATOM     87  C   UNL     1       2.006   2.127  28.085  0.00  0.00    -0.016 A 
ATOM     88  C   UNL     1       3.194   2.595  28.711  0.00  0.00    +0.010 A 
ATOM     89  C   UNL     1       3.368   3.957  29.048  0.00  0.00    +0.046 A 
ATOM     90  C   UNL     1       2.359   4.875  28.789  0.00  0.00    +0.117 A 
ATOM     91  C   UNL     1       1.149   4.438  28.260  0.00  0.00    +0.046 A 
ATOM     92  C   UNL     1       0.960   3.073  27.941  0.00  0.00    +0.010 A 
BRANCH  90  93
ATOM     93  O   UNL     1       2.611   6.199  29.015  0.00  0.00    -0.507 OA
ATOM     94  H   UNL     1       1.778   6.697  28.956  0.00  0.00    +0.292 HD
ENDBRANCH  90  93
ENDBRANCH  86  87
BRANCH  86  95
ATOM     95  O   UNL     1       0.699   0.483  26.746  0.00  0.00    -0.385 OA
ATOM     96  H   UNL     1       0.541   0.842  25.855  0.00  0.00    +0.210 HD
ENDBRANCH  86  95
ENDBRANCH  83  86
ENDBRANCH   6  83
TORSDOF 23
ENDMDL
