MODEL 1
REMARK VINA RESULT:      -6.8      0.000      0.000
REMARK  Name = 
REMARK  9 active torsions:
REMARK  status: ('A' for Active; 'I' for Inactive)
REMARK    1  A    between atoms: C_1  and  C_2
REMARK    2  A    between atoms: C_2  and  N_3
REMARK    3  A    between atoms: C_4  and  C_6
REMARK    4  A    between atoms: C_9  and  C_19
REMARK    5  A    between atoms: C_10  and  C_11
REMARK    6  A    between atoms: C_14  and  O_15
REMARK    7  A    between atoms: O_15  and  C_16
REMARK    8  A    between atoms: C_23  and  O_24
REMARK    9  A    between atoms: C_26  and  O_27
REMARK                            x       y       z     vdW  Elec       q    Type
REMARK                         _______ _______ _______ _____ _____    ______ ____
ROOT
ATOM      1  C   UNL     1       7.601  -4.106  26.549  0.00  0.00    +0.155 A 
ATOM      2  C   UNL     1       7.261  -3.753  25.179  0.00  0.00    +0.040 A 
ATOM      3  C   UNL     1       8.188  -2.749  24.849  0.00  0.00    +0.078 A 
ATOM      4  N   UNL     1       9.091  -2.772  25.881  0.00  0.00    -0.276 N 
ATOM      5  H   UNL     1       9.960  -2.245  25.921  0.00  0.00    +0.189 HD
ATOM      6  N   UNL     1       8.704  -3.450  26.962  0.00  0.00    -0.168 NA
ENDROOT
BRANCH   3   7
ATOM      7  C   UNL     1       8.356  -1.724  23.790  0.00  0.00    +0.043 A 
ATOM      8  C   UNL     1       9.509  -1.685  22.971  0.00  0.00    +0.130 A 
ATOM      9  C   UNL     1       9.739  -0.646  22.066  0.00  0.00    +0.093 A 
ATOM     10  C   UNL     1       8.791   0.357  21.931  0.00  0.00    +0.139 A 
ATOM     11  C   UNL     1       7.628   0.335  22.699  0.00  0.00    +0.083 A 
ATOM     12 CL   UNL     1       6.432   1.560  22.502  0.00  0.00    -0.080 Cl
ATOM     13  C   UNL     1       7.430  -0.678  23.643  0.00  0.00    +0.037 A 
BRANCH   8  14
ATOM     14  O   UNL     1      10.459  -2.672  23.083  0.00  0.00    -0.506 OA
ATOM     15  H   UNL     1      11.312  -2.314  22.778  0.00  0.00    +0.292 HD
ENDBRANCH   8  14
BRANCH  10  16
ATOM     16  O   UNL     1       9.058   1.360  21.040  0.00  0.00    -0.505 OA
ATOM     17  H   UNL     1       8.502   2.123  21.286  0.00  0.00    +0.292 HD
ENDBRANCH  10  16
ENDBRANCH   3   7
BRANCH   2  18
ATOM     18  C   UNL     1       6.099  -4.128  24.349  0.00  0.00    -0.013 A 
ATOM     19  C   UNL     1       6.182  -5.154  23.402  0.00  0.00    +0.012 A 
ATOM     20  C   UNL     1       5.045  -5.664  22.760  0.00  0.00    +0.046 A 
ATOM     21  C   UNL     1       3.784  -5.186  23.091  0.00  0.00    +0.120 A 
ATOM     22  C   UNL     1       3.689  -4.105  23.965  0.00  0.00    +0.046 A 
ATOM     23  C   UNL     1       4.839  -3.542  24.539  0.00  0.00    +0.012 A 
BRANCH  21  24
ATOM     24  O   UNL     1       2.593  -5.714  22.681  0.00  0.00    -0.495 OA
ATOM     25  C   UNL     1       1.428  -5.294  23.384  0.00  0.00    +0.277 C 
ENDBRANCH  21  24
ENDBRANCH   2  18
BRANCH   1  28
ATOM     26  N   UNL     1       5.661  -4.446  27.917  0.00  0.00    -0.310 N 
ATOM     27  H   UNL     1       5.423  -3.535  27.535  0.00  0.00    +0.149 HD
ATOM     28  C   UNL     1       6.894  -4.959  27.525  0.00  0.00    +0.265 C 
ATOM     29  O   UNL     1       7.305  -6.038  27.922  0.00  0.00    -0.268 OA
BRANCH  26  31
ATOM     30  C   UNL     1       3.802  -6.072  27.738  0.00  0.00    +0.024 C 
ATOM     31  C   UNL     1       4.706  -5.250  28.639  0.00  0.00    +0.101 C 
ENDBRANCH  26  31
ENDBRANCH   1  28
TORSDOF 7
ENDMDL
MODEL 2
REMARK VINA RESULT:      -6.6      2.028      3.146
REMARK  Name = 
REMARK  9 active torsions:
REMARK  status: ('A' for Active; 'I' for Inactive)
REMARK    1  A    between atoms: C_1  and  C_2
REMARK    2  A    between atoms: C_2  and  N_3
REMARK    3  A    between atoms: C_4  and  C_6
REMARK    4  A    between atoms: C_9  and  C_19
REMARK    5  A    between atoms: C_10  and  C_11
REMARK    6  A    between atoms: C_14  and  O_15
REMARK    7  A    between atoms: O_15  and  C_16
REMARK    8  A    between atoms: C_23  and  O_24
REMARK    9  A    between atoms: C_26  and  O_27
REMARK                            x       y       z     vdW  Elec       q    Type
REMARK                         _______ _______ _______ _____ _____    ______ ____
ROOT
ATOM      1  C   UNL     1       9.152  -2.294  24.317  0.00  0.00    +0.155 A 
ATOM      2  C   UNL     1       7.989  -1.816  23.585  0.00  0.00    +0.040 A 
ATOM      3  C   UNL     1       8.260  -0.453  23.372  0.00  0.00    +0.078 A 
ATOM      4  N   UNL     1       9.573  -0.308  23.742  0.00  0.00    -0.276 N 
ATOM      5  H   UNL     1      10.134   0.531  23.620  0.00  0.00    +0.189 HD
ATOM      6  N   UNL     1      10.085  -1.327  24.434  0.00  0.00    -0.168 NA
ENDROOT
BRANCH   3   7
ATOM      7  C   UNL     1       7.509   0.757  22.955  0.00  0.00    +0.043 A 
ATOM      8  C   UNL     1       7.984   1.608  21.930  0.00  0.00    +0.130 A 
ATOM      9  C   UNL     1       7.358   2.819  21.624  0.00  0.00    +0.093 A 
ATOM     10  C   UNL     1       6.211   3.182  22.314  0.00  0.00    +0.139 A 
ATOM     11  C   UNL     1       5.697   2.353  23.309  0.00  0.00    +0.083 A 
ATOM     12 CL   UNL     1       4.249   2.785  24.138  0.00  0.00    -0.080 Cl
ATOM     13  C   UNL     1       6.360   1.169  23.649  0.00  0.00    +0.037 A 
BRANCH   8  14
ATOM     14  O   UNL     1       9.115   1.266  21.228  0.00  0.00    -0.506 OA
ATOM     15  H   UNL     1       9.859   1.204  21.854  0.00  0.00    +0.292 HD
ENDBRANCH   8  14
BRANCH  10  16
ATOM     16  O   UNL     1       5.633   4.378  21.989  0.00  0.00    -0.505 OA
ATOM     17  H   UNL     1       6.184   5.082  22.380  0.00  0.00    +0.292 HD
ENDBRANCH  10  16
ENDBRANCH   3   7
BRANCH   2  18
ATOM     18  C   UNL     1       6.695  -2.468  23.305  0.00  0.00    -0.013 A 
ATOM     19  C   UNL     1       6.464  -3.139  22.098  0.00  0.00    +0.012 A 
ATOM     20  C   UNL     1       5.329  -3.938  21.901  0.00  0.00    +0.046 A 
ATOM     21  C   UNL     1       4.419  -4.124  22.932  0.00  0.00    +0.120 A 
ATOM     22  C   UNL     1       4.585  -3.394  24.108  0.00  0.00    +0.046 A 
ATOM     23  C   UNL     1       5.677  -2.528  24.267  0.00  0.00    +0.012 A 
BRANCH  21  24
ATOM     24  O   UNL     1       3.379  -5.010  22.935  0.00  0.00    -0.495 OA
ATOM     25  C   UNL     1       2.558  -5.034  24.098  0.00  0.00    +0.277 C 
ENDBRANCH  21  24
ENDBRANCH   2  18
BRANCH   1  28
ATOM     26  N   UNL     1       8.603  -3.778  26.118  0.00  0.00    -0.310 N 
ATOM     27  H   UNL     1       7.998  -3.001  26.368  0.00  0.00    +0.149 HD
ATOM     28  C   UNL     1       9.399  -3.582  24.994  0.00  0.00    +0.265 C 
ATOM     29  O   UNL     1      10.180  -4.431  24.594  0.00  0.00    -0.268 OA
BRANCH  26  31
ATOM     30  C   UNL     1       7.081  -5.420  27.177  0.00  0.00    +0.024 C 
ATOM     31  C   UNL     1       8.495  -5.071  26.749  0.00  0.00    +0.101 C 
ENDBRANCH  26  31
ENDBRANCH   1  28
TORSDOF 7
ENDMDL
MODEL 3
REMARK VINA RESULT:      -6.5      2.810      4.185
REMARK  Name = 
REMARK  9 active torsions:
REMARK  status: ('A' for Active; 'I' for Inactive)
REMARK    1  A    between atoms: C_1  and  C_2
REMARK    2  A    between atoms: C_2  and  N_3
REMARK    3  A    between atoms: C_4  and  C_6
REMARK    4  A    between atoms: C_9  and  C_19
REMARK    5  A    between atoms: C_10  and  C_11
REMARK    6  A    between atoms: C_14  and  O_15
REMARK    7  A    between atoms: O_15  and  C_16
REMARK    8  A    between atoms: C_23  and  O_24
REMARK    9  A    between atoms: C_26  and  O_27
REMARK                            x       y       z     vdW  Elec       q    Type
REMARK                         _______ _______ _______ _____ _____    ______ ____
ROOT
ATOM      1  C   UNL     1       7.011  -4.269  24.726  0.00  0.00    +0.155 A 
ATOM      2  C   UNL     1       7.107  -2.818  24.795  0.00  0.00    +0.040 A 
ATOM      3  C   UNL     1       7.612  -2.453  23.535  0.00  0.00    +0.078 A 
ATOM      4  N   UNL     1       7.536  -3.605  22.795  0.00  0.00    -0.276 N 
ATOM      5  H   UNL     1       7.722  -3.682  21.798  0.00  0.00    +0.189 HD
ATOM      6  N   UNL     1       7.325  -4.720  23.495  0.00  0.00    -0.168 NA
ENDROOT
BRANCH   3   7
ATOM      7  C   UNL     1       8.218  -1.252  22.909  0.00  0.00    +0.043 A 
ATOM      8  C   UNL     1       9.592  -1.202  22.576  0.00  0.00    +0.130 A 
ATOM      9  C   UNL     1      10.198  -0.032  22.114  0.00  0.00    +0.093 A 
ATOM     10  C   UNL     1       9.427   1.106  21.932  0.00  0.00    +0.139 A 
ATOM     11  C   UNL     1       8.064   1.084  22.220  0.00  0.00    +0.083 A 
ATOM     12 CL   UNL     1       7.097   2.487  21.957  0.00  0.00    -0.080 Cl
ATOM     13  C   UNL     1       7.473  -0.073  22.737  0.00  0.00    +0.037 A 
BRANCH   8  14
ATOM     14  O   UNL     1      10.375  -2.319  22.741  0.00  0.00    -0.506 OA
ATOM     15  H   UNL     1      10.582  -2.682  21.861  0.00  0.00    +0.292 HD
ENDBRANCH   8  14
BRANCH  10  16
ATOM     16  O   UNL     1      10.061   2.232  21.485  0.00  0.00    -0.505 OA
ATOM     17  H   UNL     1       9.553   2.568  20.722  0.00  0.00    +0.292 HD
ENDBRANCH  10  16
ENDBRANCH   3   7
BRANCH   2  18
ATOM     18  C   UNL     1       6.964  -1.899  25.941  0.00  0.00    -0.013 A 
ATOM     19  C   UNL     1       8.074  -1.252  26.498  0.00  0.00    +0.012 A 
ATOM     20  C   UNL     1       7.935  -0.222  27.440  0.00  0.00    +0.046 A 
ATOM     21  C   UNL     1       6.673   0.220  27.809  0.00  0.00    +0.120 A 
ATOM     22  C   UNL     1       5.559  -0.469  27.333  0.00  0.00    +0.046 A 
ATOM     23  C   UNL     1       5.707  -1.556  26.458  0.00  0.00    +0.012 A 
BRANCH  21  24
ATOM     24  O   UNL     1       6.398   1.322  28.568  0.00  0.00    -0.495 OA
ATOM     25  C   UNL     1       7.156   1.486  29.761  0.00  0.00    +0.277 C 
ENDBRANCH  21  24
ENDBRANCH   2  18
BRANCH   1  28
ATOM     26  N   UNL     1       5.384  -5.619  25.856  0.00  0.00    -0.310 N 
ATOM     27  H   UNL     1       4.761  -5.120  25.229  0.00  0.00    +0.149 HD
ATOM     28  C   UNL     1       6.727  -5.264  25.779  0.00  0.00    +0.265 C 
ATOM     29  O   UNL     1       7.578  -5.779  26.487  0.00  0.00    -0.268 OA
BRANCH  26  31
ATOM     30  C   UNL     1       4.422  -6.409  27.998  0.00  0.00    +0.024 C 
ATOM     31  C   UNL     1       4.951  -6.765  26.620  0.00  0.00    +0.101 C 
ENDBRANCH  26  31
ENDBRANCH   1  28
TORSDOF 7
ENDMDL
MODEL 4
REMARK VINA RESULT:      -6.3      1.581      2.034
REMARK  Name = 
REMARK  9 active torsions:
REMARK  status: ('A' for Active; 'I' for Inactive)
REMARK    1  A    between atoms: C_1  and  C_2
REMARK    2  A    between atoms: C_2  and  N_3
REMARK    3  A    between atoms: C_4  and  C_6
REMARK    4  A    between atoms: C_9  and  C_19
REMARK    5  A    between atoms: C_10  and  C_11
REMARK    6  A    between atoms: C_14  and  O_15
REMARK    7  A    between atoms: O_15  and  C_16
REMARK    8  A    between atoms: C_23  and  O_24
REMARK    9  A    between atoms: C_26  and  O_27
REMARK                            x       y       z     vdW  Elec       q    Type
REMARK                         _______ _______ _______ _____ _____    ______ ____
ROOT
ATOM      1  C   UNL     1       6.308  -5.803  27.264  0.00  0.00    +0.155 A 
ATOM      2  C   UNL     1       6.251  -5.228  25.928  0.00  0.00    +0.040 A 
ATOM      3  C   UNL     1       7.474  -4.546  25.802  0.00  0.00    +0.078 A 
ATOM      4  N   UNL     1       8.203  -4.957  26.889  0.00  0.00    -0.276 N 
ATOM      5  H   UNL     1       9.181  -4.741  27.062  0.00  0.00    +0.189 HD
ATOM      6  N   UNL     1       7.505  -5.577  27.841  0.00  0.00    -0.168 NA
ENDROOT
BRANCH   3   7
ATOM      7  C   UNL     1       8.069  -3.531  24.899  0.00  0.00    +0.043 A 
ATOM      8  C   UNL     1       9.419  -3.606  24.485  0.00  0.00    +0.130 A 
ATOM      9  C   UNL     1      10.025  -2.585  23.748  0.00  0.00    +0.093 A 
ATOM     10  C   UNL     1       9.273  -1.482  23.372  0.00  0.00    +0.139 A 
ATOM     11  C   UNL     1       7.931  -1.389  23.736  0.00  0.00    +0.083 A 
ATOM     12 CL   UNL     1       6.987  -0.037  23.235  0.00  0.00    -0.080 Cl
ATOM     13  C   UNL     1       7.346  -2.387  24.521  0.00  0.00    +0.037 A 
BRANCH   8  14
ATOM     14  O   UNL     1      10.182  -4.692  24.840  0.00  0.00    -0.506 OA
ATOM     15  H   UNL     1      10.641  -4.487  25.674  0.00  0.00    +0.292 HD
ENDBRANCH   8  14
BRANCH  10  16
ATOM     16  O   UNL     1       9.906  -0.502  22.658  0.00  0.00    -0.505 OA
ATOM     17  H   UNL     1       9.692   0.350  23.083  0.00  0.00    +0.292 HD
ENDBRANCH  10  16
ENDBRANCH   3   7
BRANCH   2  18
ATOM     18  C   UNL     1       5.132  -5.129  24.970  0.00  0.00    -0.013 A 
ATOM     19  C   UNL     1       5.136  -5.851  23.771  0.00  0.00    +0.012 A 
ATOM     20  C   UNL     1       3.999  -5.935  22.954  0.00  0.00    +0.046 A 
ATOM     21  C   UNL     1       2.811  -5.336  23.349  0.00  0.00    +0.120 A 
ATOM     22  C   UNL     1       2.813  -4.541  24.493  0.00  0.00    +0.046 A 
ATOM     23  C   UNL     1       3.977  -4.389  25.260  0.00  0.00    +0.012 A 
BRANCH  21  24
ATOM     24  O   UNL     1       1.595  -5.491  22.746  0.00  0.00    -0.495 OA
ATOM     25  C   UNL     1       0.494  -4.808  23.335  0.00  0.00    +0.277 C 
ENDBRANCH  21  24
ENDBRANCH   2  18
BRANCH   1  28
ATOM     26  N   UNL     1       4.149  -5.680  28.300  0.00  0.00    -0.310 N 
ATOM     27  H   UNL     1       4.205  -4.730  27.947  0.00  0.00    +0.149 HD
ATOM     28  C   UNL     1       5.266  -6.476  28.065  0.00  0.00    +0.265 C 
ATOM     29  O   UNL     1       5.333  -7.634  28.448  0.00  0.00    -0.268 OA
BRANCH  26  31
ATOM     30  C   UNL     1       1.675  -5.637  28.196  0.00  0.00    +0.024 C 
ATOM     31  C   UNL     1       2.923  -6.238  28.818  0.00  0.00    +0.101 C 
ENDBRANCH  26  31
ENDBRANCH   1  28
TORSDOF 7
ENDMDL
MODEL 5
REMARK VINA RESULT:      -6.3      3.365      6.604
REMARK  Name = 
REMARK  9 active torsions:
REMARK  status: ('A' for Active; 'I' for Inactive)
REMARK    1  A    between atoms: C_1  and  C_2
REMARK    2  A    between atoms: C_2  and  N_3
REMARK    3  A    between atoms: C_4  and  C_6
REMARK    4  A    between atoms: C_9  and  C_19
REMARK    5  A    between atoms: C_10  and  C_11
REMARK    6  A    between atoms: C_14  and  O_15
REMARK    7  A    between atoms: O_15  and  C_16
REMARK    8  A    between atoms: C_23  and  O_24
REMARK    9  A    between atoms: C_26  and  O_27
REMARK                            x       y       z     vdW  Elec       q    Type
REMARK                         _______ _______ _______ _____ _____    ______ ____
ROOT
ATOM      1  C   UNL     1       9.407  -1.762  24.207  0.00  0.00    +0.155 A 
ATOM      2  C   UNL     1       8.092  -2.179  24.670  0.00  0.00    +0.040 A 
ATOM      3  C   UNL     1       8.074  -3.565  24.432  0.00  0.00    +0.078 A 
ATOM      4  N   UNL     1       9.373  -3.868  24.112  0.00  0.00    -0.276 N 
ATOM      5  H   UNL     1       9.747  -4.804  23.980  0.00  0.00    +0.189 HD
ATOM      6  N   UNL     1      10.149  -2.822  23.830  0.00  0.00    -0.168 NA
ENDROOT
BRANCH   3   7
ATOM      7  C   UNL     1       7.064  -4.650  24.378  0.00  0.00    +0.043 A 
ATOM      8  C   UNL     1       6.568  -5.141  23.148  0.00  0.00    +0.130 A 
ATOM      9  C   UNL     1       5.520  -6.064  23.088  0.00  0.00    +0.093 A 
ATOM     10  C   UNL     1       4.976  -6.549  24.268  0.00  0.00    +0.139 A 
ATOM     11  C   UNL     1       5.461  -6.110  25.499  0.00  0.00    +0.083 A 
ATOM     12 CL   UNL     1       4.811  -6.743  26.964  0.00  0.00    -0.080 Cl
ATOM     13  C   UNL     1       6.471  -5.144  25.552  0.00  0.00    +0.037 A 
BRANCH   8  14
ATOM     14  O   UNL     1       7.097  -4.681  21.966  0.00  0.00    -0.506 OA
ATOM     15  H   UNL     1       7.289  -5.447  21.396  0.00  0.00    +0.292 HD
ENDBRANCH   8  14
BRANCH  10  16
ATOM     16  O   UNL     1       3.948  -7.445  24.165  0.00  0.00    -0.505 OA
ATOM     17  H   UNL     1       4.132  -8.171  24.791  0.00  0.00    +0.292 HD
ENDBRANCH  10  16
ENDBRANCH   3   7
BRANCH   2  18
ATOM     18  C   UNL     1       6.917  -1.383  25.075  0.00  0.00    -0.013 A 
ATOM     19  C   UNL     1       6.274  -1.605  26.298  0.00  0.00    +0.012 A 
ATOM     20  C   UNL     1       5.299  -0.727  26.792  0.00  0.00    +0.046 A 
ATOM     21  C   UNL     1       4.979   0.427  26.090  0.00  0.00    +0.120 A 
ATOM     22  C   UNL     1       5.543   0.619  24.830  0.00  0.00    +0.046 A 
ATOM     23  C   UNL     1       6.453  -0.308  24.302  0.00  0.00    +0.012 A 
BRANCH  21  24
ATOM     24  O   UNL     1       4.189   1.447  26.539  0.00  0.00    -0.495 OA
ATOM     25  C   UNL     1       3.908   2.495  25.619  0.00  0.00    +0.277 C 
ENDBRANCH  21  24
ENDBRANCH   2  18
BRANCH   1  28
ATOM     26  N   UNL     1       9.843   0.060  22.711  0.00  0.00    -0.310 N 
ATOM     27  H   UNL     1       9.432  -0.589  22.047  0.00  0.00    +0.149 HD
ATOM     28  C   UNL     1       9.974  -0.413  24.014  0.00  0.00    +0.265 C 
ATOM     29  O   UNL     1      10.464   0.262  24.905  0.00  0.00    -0.268 OA
BRANCH  26  31
ATOM     30  C   UNL     1       8.816   2.288  22.374  0.00  0.00    +0.024 C 
ATOM     31  C   UNL     1      10.079   1.446  22.387  0.00  0.00    +0.101 C 
ENDBRANCH  26  31
ENDBRANCH   1  28
TORSDOF 7
ENDMDL
MODEL 6
REMARK VINA RESULT:      -6.3      2.882      3.753
REMARK  Name = 
REMARK  9 active torsions:
REMARK  status: ('A' for Active; 'I' for Inactive)
REMARK    1  A    between atoms: C_1  and  C_2
REMARK    2  A    between atoms: C_2  and  N_3
REMARK    3  A    between atoms: C_4  and  C_6
REMARK    4  A    between atoms: C_9  and  C_19
REMARK    5  A    between atoms: C_10  and  C_11
REMARK    6  A    between atoms: C_14  and  O_15
REMARK    7  A    between atoms: O_15  and  C_16
REMARK    8  A    between atoms: C_23  and  O_24
REMARK    9  A    between atoms: C_26  and  O_27
REMARK                            x       y       z     vdW  Elec       q    Type
REMARK                         _______ _______ _______ _____ _____    ______ ____
ROOT
ATOM      1  C   UNL     1       9.155  -3.042  24.283  0.00  0.00    +0.155 A 
ATOM      2  C   UNL     1       8.350  -1.830  24.298  0.00  0.00    +0.040 A 
ATOM      3  C   UNL     1       9.138  -0.893  23.606  0.00  0.00    +0.078 A 
ATOM      4  N   UNL     1      10.151  -1.641  23.061  0.00  0.00    -0.276 N 
ATOM      5  H   UNL     1      10.851  -1.303  22.407  0.00  0.00    +0.189 HD
ATOM      6  N   UNL     1      10.275  -2.875  23.552  0.00  0.00    -0.168 NA
ENDROOT
BRANCH   3   7
ATOM      7  C   UNL     1       9.168   0.577  23.414  0.00  0.00    +0.043 A 
ATOM      8  C   UNL     1      10.217   1.372  23.932  0.00  0.00    +0.130 A 
ATOM      9  C   UNL     1      10.185   2.768  23.875  0.00  0.00    +0.093 A 
ATOM     10  C   UNL     1       9.115   3.397  23.255  0.00  0.00    +0.139 A 
ATOM     11  C   UNL     1       8.079   2.644  22.707  0.00  0.00    +0.083 A 
ATOM     12 CL   UNL     1       6.770   3.425  21.902  0.00  0.00    -0.080 Cl
ATOM     13  C   UNL     1       8.089   1.250  22.817  0.00  0.00    +0.037 A 
BRANCH   8  14
ATOM     14  O   UNL     1      11.290   0.771  24.544  0.00  0.00    -0.506 OA
ATOM     15  H   UNL     1      11.536  -0.018  24.030  0.00  0.00    +0.292 HD
ENDBRANCH   8  14
BRANCH  10  16
ATOM     16  O   UNL     1       9.119   4.764  23.228  0.00  0.00    -0.505 OA
ATOM     17  H   UNL     1       9.337   5.072  24.128  0.00  0.00    +0.292 HD
ENDBRANCH  10  16
ENDBRANCH   3   7
BRANCH   2  18
ATOM     18  C   UNL     1       7.115  -1.505  25.037  0.00  0.00    -0.013 A 
ATOM     19  C   UNL     1       5.882  -2.059  24.673  0.00  0.00    +0.012 A 
ATOM     20  C   UNL     1       4.745  -1.931  25.484  0.00  0.00    +0.046 A 
ATOM     21  C   UNL     1       4.831  -1.284  26.709  0.00  0.00    +0.120 A 
ATOM     22  C   UNL     1       6.025  -0.650  27.046  0.00  0.00    +0.046 A 
ATOM     23  C   UNL     1       7.135  -0.707  26.190  0.00  0.00    +0.012 A 
BRANCH  21  24
ATOM     24  O   UNL     1       3.858  -1.247  27.667  0.00  0.00    -0.495 OA
ATOM     25  C   UNL     1       2.641  -1.925  27.374  0.00  0.00    +0.277 C 
ENDBRANCH  21  24
ENDBRANCH   2  18
BRANCH   1  28
ATOM     26  N   UNL     1       8.413  -4.180  26.259  0.00  0.00    -0.310 N 
ATOM     27  H   UNL     1       8.248  -3.224  26.560  0.00  0.00    +0.149 HD
ATOM     28  C   UNL     1       8.975  -4.324  24.994  0.00  0.00    +0.265 C 
ATOM     29  O   UNL     1       9.236  -5.417  24.518  0.00  0.00    -0.268 OA
BRANCH  26  31
ATOM     30  C   UNL     1       6.446  -5.181  27.383  0.00  0.00    +0.024 C 
ATOM     31  C   UNL     1       7.906  -5.316  26.991  0.00  0.00    +0.101 C 
ENDBRANCH  26  31
ENDBRANCH   1  28
TORSDOF 7
ENDMDL
MODEL 7
REMARK VINA RESULT:      -6.2      3.562      6.934
REMARK  Name = 
REMARK  9 active torsions:
REMARK  status: ('A' for Active; 'I' for Inactive)
REMARK    1  A    between atoms: C_1  and  C_2
REMARK    2  A    between atoms: C_2  and  N_3
REMARK    3  A    between atoms: C_4  and  C_6
REMARK    4  A    between atoms: C_9  and  C_19
REMARK    5  A    between atoms: C_10  and  C_11
REMARK    6  A    between atoms: C_14  and  O_15
REMARK    7  A    between atoms: O_15  and  C_16
REMARK    8  A    between atoms: C_23  and  O_24
REMARK    9  A    between atoms: C_26  and  O_27
REMARK                            x       y       z     vdW  Elec       q    Type
REMARK                         _______ _______ _______ _____ _____    ______ ____
ROOT
ATOM      1  C   UNL     1       9.590  -1.770  24.274  0.00  0.00    +0.155 A 
ATOM      2  C   UNL     1       8.499  -2.043  25.198  0.00  0.00    +0.040 A 
ATOM      3  C   UNL     1       8.389  -3.444  25.187  0.00  0.00    +0.078 A 
ATOM      4  N   UNL     1       9.505  -3.864  24.507  0.00  0.00    -0.276 N 
ATOM      5  H   UNL     1       9.804  -4.830  24.400  0.00  0.00    +0.189 HD
ATOM      6  N   UNL     1      10.154  -2.913  23.835  0.00  0.00    -0.168 NA
ENDROOT
BRANCH   3   7
ATOM      7  C   UNL     1       7.407  -4.465  25.627  0.00  0.00    +0.043 A 
ATOM      8  C   UNL     1       6.533  -5.097  24.712  0.00  0.00    +0.130 A 
ATOM      9  C   UNL     1       5.515  -5.956  25.134  0.00  0.00    +0.093 A 
ATOM     10  C   UNL     1       5.381  -6.235  26.486  0.00  0.00    +0.139 A 
ATOM     11  C   UNL     1       6.244  -5.655  27.413  0.00  0.00    +0.083 A 
ATOM     12 CL   UNL     1       6.101  -6.033  29.088  0.00  0.00    -0.080 Cl
ATOM     13  C   UNL     1       7.224  -4.752  26.990  0.00  0.00    +0.037 A 
BRANCH   8  14
ATOM     14  O   UNL     1       6.652  -4.841  23.367  0.00  0.00    -0.506 OA
ATOM     15  H   UNL     1       7.543  -5.110  23.080  0.00  0.00    +0.292 HD
ENDBRANCH   8  14
BRANCH  10  16
ATOM     16  O   UNL     1       4.367  -7.075  26.857  0.00  0.00    -0.505 OA
ATOM     17  H   UNL     1       4.532  -7.936  26.427  0.00  0.00    +0.292 HD
ENDBRANCH  10  16
ENDBRANCH   3   7
BRANCH   2  18
ATOM     18  C   UNL     1       7.535  -1.130  25.843  0.00  0.00    -0.013 A 
ATOM     19  C   UNL     1       6.207  -1.049  25.407  0.00  0.00    +0.012 A 
ATOM     20  C   UNL     1       5.231  -0.353  26.134  0.00  0.00    +0.046 A 
ATOM     21  C   UNL     1       5.553   0.238  27.348  0.00  0.00    +0.120 A 
ATOM     22  C   UNL     1       6.887   0.242  27.754  0.00  0.00    +0.046 A 
ATOM     23  C   UNL     1       7.875  -0.380  26.978  0.00  0.00    +0.012 A 
BRANCH  21  24
ATOM     24  O   UNL     1       4.670   0.783  28.236  0.00  0.00    -0.495 OA
ATOM     25  C   UNL     1       4.925   0.557  29.618  0.00  0.00    +0.277 C 
ENDBRANCH  21  24
ENDBRANCH   2  18
BRANCH   1  28
ATOM     26  N   UNL     1       9.629  -0.261  22.412  0.00  0.00    -0.310 N 
ATOM     27  H   UNL     1       9.080  -1.006  21.995  0.00  0.00    +0.149 HD
ATOM     28  C   UNL     1      10.075  -0.495  23.709  0.00  0.00    +0.265 C 
ATOM     29  O   UNL     1      10.755   0.314  24.320  0.00  0.00    -0.268 OA
BRANCH  26  31
ATOM     30  C   UNL     1       8.454   1.806  21.719  0.00  0.00    +0.024 C 
ATOM     31  C   UNL     1       9.761   1.037  21.794  0.00  0.00    +0.101 C 
ENDBRANCH  26  31
ENDBRANCH   1  28
TORSDOF 7
ENDMDL
MODEL 8
REMARK VINA RESULT:      -6.2      3.087      6.844
REMARK  Name = 
REMARK  9 active torsions:
REMARK  status: ('A' for Active; 'I' for Inactive)
REMARK    1  A    between atoms: C_1  and  C_2
REMARK    2  A    between atoms: C_2  and  N_3
REMARK    3  A    between atoms: C_4  and  C_6
REMARK    4  A    between atoms: C_9  and  C_19
REMARK    5  A    between atoms: C_10  and  C_11
REMARK    6  A    between atoms: C_14  and  O_15
REMARK    7  A    between atoms: O_15  and  C_16
REMARK    8  A    between atoms: C_23  and  O_24
REMARK    9  A    between atoms: C_26  and  O_27
REMARK                            x       y       z     vdW  Elec       q    Type
REMARK                         _______ _______ _______ _____ _____    ______ ____
ROOT
ATOM      1  C   UNL     1       9.370  -1.855  24.181  0.00  0.00    +0.155 A 
ATOM      2  C   UNL     1       8.097  -2.049  24.858  0.00  0.00    +0.040 A 
ATOM      3  C   UNL     1       7.949  -3.446  24.907  0.00  0.00    +0.078 A 
ATOM      4  N   UNL     1       9.172  -3.928  24.513  0.00  0.00    -0.276 N 
ATOM      5  H   UNL     1       9.458  -4.903  24.531  0.00  0.00    +0.189 HD
ATOM      6  N   UNL     1       9.980  -3.033  23.944  0.00  0.00    -0.168 NA
ENDROOT
BRANCH   3   7
ATOM      7  C   UNL     1       6.865  -4.420  25.182  0.00  0.00    +0.043 A 
ATOM      8  C   UNL     1       6.821  -5.161  26.386  0.00  0.00    +0.130 A 
ATOM      9  C   UNL     1       5.884  -6.176  26.596  0.00  0.00    +0.093 A 
ATOM     10  C   UNL     1       4.940  -6.441  25.616  0.00  0.00    +0.139 A 
ATOM     11  C   UNL     1       4.933  -5.710  24.430  0.00  0.00    +0.083 A 
ATOM     12 CL   UNL     1       3.734  -6.012  23.229  0.00  0.00    -0.080 Cl
ATOM     13  C   UNL     1       5.908  -4.733  24.202  0.00  0.00    +0.037 A 
BRANCH   8  14
ATOM     14  O   UNL     1       7.743  -4.912  27.375  0.00  0.00    -0.506 OA
ATOM     15  H   UNL     1       8.229  -4.100  27.144  0.00  0.00    +0.292 HD
ENDBRANCH   8  14
BRANCH  10  16
ATOM     16  O   UNL     1       4.046  -7.447  25.859  0.00  0.00    -0.505 OA
ATOM     17  H   UNL     1       4.481  -8.286  25.616  0.00  0.00    +0.292 HD
ENDBRANCH  10  16
ENDBRANCH   3   7
BRANCH   2  18
ATOM     18  C   UNL     1       7.043  -1.081  25.222  0.00  0.00    -0.013 A 
ATOM     19  C   UNL     1       6.654  -0.895  26.554  0.00  0.00    +0.012 A 
ATOM     20  C   UNL     1       5.815   0.159  26.940  0.00  0.00    +0.046 A 
ATOM     21  C   UNL     1       5.384   1.087  26.002  0.00  0.00    +0.120 A 
ATOM     22  C   UNL     1       5.688   0.869  24.659  0.00  0.00    +0.046 A 
ATOM     23  C   UNL     1       6.456  -0.238  24.268  0.00  0.00    +0.012 A 
BRANCH  21  24
ATOM     24  O   UNL     1       4.721   2.251  26.269  0.00  0.00    -0.495 OA
ATOM     25  C   UNL     1       5.054   3.379  25.468  0.00  0.00    +0.277 C 
ENDBRANCH  21  24
ENDBRANCH   2  18
BRANCH   1  28
ATOM     26  N   UNL     1       9.533  -0.251  22.406  0.00  0.00    -0.310 N 
ATOM     27  H   UNL     1       8.862  -0.884  21.980  0.00  0.00    +0.149 HD
ATOM     28  C   UNL     1      10.004  -0.627  23.660  0.00  0.00    +0.265 C 
ATOM     29  O   UNL     1      10.822   0.038  24.275  0.00  0.00    -0.268 OA
BRANCH  26  31
ATOM     30  C   UNL     1       8.607   1.966  21.804  0.00  0.00    +0.024 C 
ATOM     31  C   UNL     1       9.818   1.052  21.854  0.00  0.00    +0.101 C 
ENDBRANCH  26  31
ENDBRANCH   1  28
TORSDOF 7
ENDMDL
MODEL 9
REMARK VINA RESULT:      -6.2      4.103      7.679
REMARK  Name = 
REMARK  9 active torsions:
REMARK  status: ('A' for Active; 'I' for Inactive)
REMARK    1  A    between atoms: C_1  and  C_2
REMARK    2  A    between atoms: C_2  and  N_3
REMARK    3  A    between atoms: C_4  and  C_6
REMARK    4  A    between atoms: C_9  and  C_19
REMARK    5  A    between atoms: C_10  and  C_11
REMARK    6  A    between atoms: C_14  and  O_15
REMARK    7  A    between atoms: O_15  and  C_16
REMARK    8  A    between atoms: C_23  and  O_24
REMARK    9  A    between atoms: C_26  and  O_27
REMARK                            x       y       z     vdW  Elec       q    Type
REMARK                         _______ _______ _______ _____ _____    ______ ____
ROOT
ATOM      1  C   UNL     1       9.901   2.554  23.861  0.00  0.00    +0.155 A 
ATOM      2  C   UNL     1       8.619   1.864  23.878  0.00  0.00    +0.040 A 
ATOM      3  C   UNL     1       8.964   0.506  23.772  0.00  0.00    +0.078 A 
ATOM      4  N   UNL     1      10.325   0.489  23.946  0.00  0.00    -0.276 N 
ATOM      5  H   UNL     1      10.901  -0.344  24.034  0.00  0.00    +0.189 HD
ATOM      6  N   UNL     1      10.925   1.677  23.858  0.00  0.00    -0.168 NA
ENDROOT
BRANCH   3   7
ATOM      7  C   UNL     1       8.278  -0.774  23.469  0.00  0.00    +0.043 A 
ATOM      8  C   UNL     1       8.693  -1.604  22.401  0.00  0.00    +0.130 A 
ATOM      9  C   UNL     1       7.972  -2.739  22.024  0.00  0.00    +0.093 A 
ATOM     10  C   UNL     1       6.839  -3.092  22.741  0.00  0.00    +0.139 A 
ATOM     11  C   UNL     1       6.418  -2.315  23.818  0.00  0.00    +0.083 A 
ATOM     12 CL   UNL     1       5.032  -2.776  24.733  0.00  0.00    -0.080 Cl
ATOM     13  C   UNL     1       7.112  -1.149  24.156  0.00  0.00    +0.037 A 
BRANCH   8  14
ATOM     14  O   UNL     1       9.817  -1.278  21.681  0.00  0.00    -0.506 OA
ATOM     15  H   UNL     1       9.845  -1.838  20.884  0.00  0.00    +0.292 HD
ENDBRANCH   8  14
BRANCH  10  16
ATOM     16  O   UNL     1       6.158  -4.206  22.333  0.00  0.00    -0.505 OA
ATOM     17  H   UNL     1       6.692  -4.982  22.588  0.00  0.00    +0.292 HD
ENDBRANCH  10  16
ENDBRANCH   3   7
BRANCH   2  18
ATOM     18  C   UNL     1       7.243   2.390  23.782  0.00  0.00    -0.013 A 
ATOM     19  C   UNL     1       6.706   2.804  22.557  0.00  0.00    +0.012 A 
ATOM     20  C   UNL     1       5.344   3.104  22.410  0.00  0.00    +0.046 A 
ATOM     21  C   UNL     1       4.476   2.947  23.481  0.00  0.00    +0.120 A 
ATOM     22  C   UNL     1       5.006   2.623  24.728  0.00  0.00    +0.046 A 
ATOM     23  C   UNL     1       6.383   2.409  24.889  0.00  0.00    +0.012 A 
BRANCH  21  24
ATOM     24  O   UNL     1       3.113   3.028  23.428  0.00  0.00    -0.495 OA
ATOM     25  C   UNL     1       2.535   3.311  22.158  0.00  0.00    +0.277 C 
ENDBRANCH  21  24
ENDBRANCH   2  18
BRANCH   1  28
ATOM     26  N   UNL     1      11.545   4.243  23.424  0.00  0.00    -0.310 N 
ATOM     27  H   UNL     1      12.141   3.424  23.349  0.00  0.00    +0.149 HD
ATOM     28  C   UNL     1      10.217   3.991  23.757  0.00  0.00    +0.265 C 
ATOM     29  O   UNL     1       9.400   4.888  23.891  0.00  0.00    -0.268 OA
BRANCH  26  31
ATOM     30  C   UNL     1      13.238   5.530  22.155  0.00  0.00    +0.024 C 
ATOM     31  C   UNL     1      11.982   5.553  23.007  0.00  0.00    +0.101 C 
ENDBRANCH  26  31
ENDBRANCH   1  28
TORSDOF 7
ENDMDL
