MODEL 1
REMARK VINA RESULT:      -6.4      0.000      0.000
REMARK  Name = 
REMARK  6 active torsions:
REMARK  status: ('A' for Active; 'I' for Inactive)
REMARK    1  A    between atoms: C_1  and  C_2
REMARK    2  A    between atoms: C_2  and  C_3
REMARK    3  A    between atoms: C_2  and  C_4
REMARK    4  A    between atoms: N_9  and  C_10
REMARK    5  A    between atoms: C_10  and  C_12
REMARK    6  A    between atoms: C_12  and  C_13
REMARK                            x       y       z     vdW  Elec       q    Type
REMARK                         _______ _______ _______ _____ _____    ______ ____
ROOT
ATOM      1  C   UNL     1       9.698   1.815  23.141  0.00  0.00    +0.011 A 
ATOM      2  S   UNL     1       9.050   0.379  23.932  0.00  0.00    -0.057 S 
ATOM      3  C   UNL     1       9.227  -0.567  22.432  0.00  0.00    +0.163 A 
ATOM      4  N   UNL     1       9.210  -1.852  22.302  0.00  0.00    -0.156 NA
ATOM      5  N   UNL     1       9.447   0.329  21.410  0.00  0.00    -0.342 N 
ATOM      6  H   UNL     1       9.776  -0.020  20.521  0.00  0.00    +0.167 HD
ATOM      7  C   UNL     1       9.801   1.597  21.818  0.00  0.00    +0.095 A 
ENDROOT
BRANCH   1   9
ATOM      8  C   UNL     1      11.288   3.714  23.331  0.00  0.00    +0.013 C 
ATOM      9  C   UNL     1      10.093   3.000  23.972  0.00  0.00    +0.021 C 
ATOM     10  C   UNL     1       8.949   3.985  24.211  0.00  0.00    +0.013 C 
ENDBRANCH   1   9
BRANCH   4  11
ATOM     11  C   UNL     1       9.189  -2.636  23.434  0.00  0.00    +0.243 C 
ATOM     12  O   UNL     1      10.183  -3.089  24.000  0.00  0.00    -0.273 OA
BRANCH  11  13
ATOM     13  C   UNL     1       7.810  -3.092  23.861  0.00  0.00    +0.134 C 
BRANCH  13  14
ATOM     14  C   UNL     1       7.215  -4.065  22.877  0.00  0.00    -0.020 A 
ATOM     15  C   UNL     1       6.315  -3.646  21.897  0.00  0.00    +0.114 A 
ATOM     16  N   UNL     1       5.728  -4.470  21.003  0.00  0.00    -0.263 NA
ATOM     17  C   UNL     1       6.051  -5.776  21.081  0.00  0.00    +0.111 A 
ATOM     18  C   UNL     1       6.948  -6.293  22.002  0.00  0.00    +0.020 A 
ATOM     19  C   UNL     1       7.539  -5.422  22.912  0.00  0.00    +0.007 A 
ENDBRANCH  13  14
ENDBRANCH  11  13
ENDBRANCH   4  11
TORSDOF 4
ENDMDL
MODEL 2
REMARK VINA RESULT:      -6.0      2.060      2.542
REMARK  Name = 
REMARK  6 active torsions:
REMARK  status: ('A' for Active; 'I' for Inactive)
REMARK    1  A    between atoms: C_1  and  C_2
REMARK    2  A    between atoms: C_2  and  C_3
REMARK    3  A    between atoms: C_2  and  C_4
REMARK    4  A    between atoms: N_9  and  C_10
REMARK    5  A    between atoms: C_10  and  C_12
REMARK    6  A    between atoms: C_12  and  C_13
REMARK                            x       y       z     vdW  Elec       q    Type
REMARK                         _______ _______ _______ _____ _____    ______ ____
ROOT
ATOM      1  C   UNL     1       8.473  -0.108  22.429  0.00  0.00    +0.011 A 
ATOM      2  S   UNL     1       7.887  -1.588  23.188  0.00  0.00    -0.057 S 
ATOM      3  C   UNL     1       9.550  -2.218  23.317  0.00  0.00    +0.163 A 
ATOM      4  N   UNL     1       9.970  -3.190  24.055  0.00  0.00    -0.156 NA
ATOM      5  N   UNL     1      10.344  -1.433  22.513  0.00  0.00    -0.342 N 
ATOM      6  H   UNL     1      11.348  -1.499  22.610  0.00  0.00    +0.167 HD
ATOM      7  C   UNL     1       9.775  -0.240  22.122  0.00  0.00    +0.095 A 
ENDROOT
BRANCH   1   9
ATOM      8  C   UNL     1       6.744   1.261  23.573  0.00  0.00    +0.013 C 
ATOM      9  C   UNL     1       7.546   1.062  22.282  0.00  0.00    +0.021 C 
ATOM     10  C   UNL     1       8.257   2.358  21.891  0.00  0.00    +0.013 C 
ENDBRANCH   1   9
BRANCH   4  11
ATOM     11  C   UNL     1       9.107  -3.756  24.967  0.00  0.00    +0.243 C 
ATOM     12  O   UNL     1       8.756  -3.237  26.026  0.00  0.00    -0.273 OA
BRANCH  11  13
ATOM     13  C   UNL     1       8.742  -5.197  24.681  0.00  0.00    +0.134 C 
BRANCH  13  14
ATOM     14  C   UNL     1       7.482  -5.301  23.861  0.00  0.00    -0.020 A 
ATOM     15  C   UNL     1       6.230  -5.054  24.423  0.00  0.00    +0.114 A 
ATOM     16  N   UNL     1       5.063  -5.153  23.750  0.00  0.00    -0.263 NA
ATOM     17  C   UNL     1       5.141  -5.513  22.453  0.00  0.00    +0.111 A 
ATOM     18  C   UNL     1       6.334  -5.761  21.795  0.00  0.00    +0.020 A 
ATOM     19  C   UNL     1       7.522  -5.650  22.510  0.00  0.00    +0.007 A 
ENDBRANCH  13  14
ENDBRANCH  11  13
ENDBRANCH   4  11
TORSDOF 4
ENDMDL
MODEL 3
REMARK VINA RESULT:      -6.0      2.370      6.593
REMARK  Name = 
REMARK  6 active torsions:
REMARK  status: ('A' for Active; 'I' for Inactive)
REMARK    1  A    between atoms: C_1  and  C_2
REMARK    2  A    between atoms: C_2  and  C_3
REMARK    3  A    between atoms: C_2  and  C_4
REMARK    4  A    between atoms: N_9  and  C_10
REMARK    5  A    between atoms: C_10  and  C_12
REMARK    6  A    between atoms: C_12  and  C_13
REMARK                            x       y       z     vdW  Elec       q    Type
REMARK                         _______ _______ _______ _____ _____    ______ ____
ROOT
ATOM      1  C   UNL     1       6.755  -4.416  23.149  0.00  0.00    +0.011 A 
ATOM      2  S   UNL     1       7.457  -2.833  22.815  0.00  0.00    -0.057 S 
ATOM      3  C   UNL     1       8.768  -3.132  23.985  0.00  0.00    +0.163 A 
ATOM      4  N   UNL     1       9.886  -2.497  24.096  0.00  0.00    -0.156 NA
ATOM      5  N   UNL     1       8.399  -4.223  24.738  0.00  0.00    -0.342 N 
ATOM      6  H   UNL     1       9.097  -4.674  25.313  0.00  0.00    +0.167 HD
ATOM      7  C   UNL     1       7.365  -4.967  24.213  0.00  0.00    +0.095 A 
ENDROOT
BRANCH   1   9
ATOM      8  C   UNL     1       6.328  -5.723  21.080  0.00  0.00    +0.013 C 
ATOM      9  C   UNL     1       5.688  -4.955  22.242  0.00  0.00    +0.021 C 
ATOM     10  C   UNL     1       4.664  -5.833  22.962  0.00  0.00    +0.013 C 
ENDBRANCH   1   9
BRANCH   4  11
ATOM     11  C   UNL     1      10.218  -1.558  23.144  0.00  0.00    +0.243 C 
ATOM     12  O   UNL     1      10.614  -1.812  22.007  0.00  0.00    -0.273 OA
BRANCH  11  13
ATOM     13  C   UNL     1      10.252  -0.131  23.649  0.00  0.00    +0.134 C 
BRANCH  13  14
ATOM     14  C   UNL     1       9.058   0.656  23.178  0.00  0.00    -0.020 A 
ATOM     15  C   UNL     1       7.880   0.701  23.925  0.00  0.00    +0.114 A 
ATOM     16  N   UNL     1       6.768   1.367  23.547  0.00  0.00    -0.263 NA
ATOM     17  C   UNL     1       6.825   2.025  22.372  0.00  0.00    +0.111 A 
ATOM     18  C   UNL     1       7.950   2.060  21.565  0.00  0.00    +0.020 A 
ATOM     19  C   UNL     1       9.084   1.367  21.977  0.00  0.00    +0.007 A 
ENDBRANCH  13  14
ENDBRANCH  11  13
ENDBRANCH   4  11
TORSDOF 4
ENDMDL
MODEL 4
REMARK VINA RESULT:      -5.9      2.652      3.670
REMARK  Name = 
REMARK  6 active torsions:
REMARK  status: ('A' for Active; 'I' for Inactive)
REMARK    1  A    between atoms: C_1  and  C_2
REMARK    2  A    between atoms: C_2  and  C_3
REMARK    3  A    between atoms: C_2  and  C_4
REMARK    4  A    between atoms: N_9  and  C_10
REMARK    5  A    between atoms: C_10  and  C_12
REMARK    6  A    between atoms: C_12  and  C_13
REMARK                            x       y       z     vdW  Elec       q    Type
REMARK                         _______ _______ _______ _____ _____    ______ ____
ROOT
ATOM      1  C   UNL     1       8.639  -0.066  23.007  0.00  0.00    +0.011 A 
ATOM      2  S   UNL     1       8.404  -1.788  23.304  0.00  0.00    -0.057 S 
ATOM      3  C   UNL     1       6.650  -1.629  23.032  0.00  0.00    +0.163 A 
ATOM      4  N   UNL     1       5.799  -2.571  22.798  0.00  0.00    -0.156 NA
ATOM      5  N   UNL     1       6.355  -0.285  23.060  0.00  0.00    -0.342 N 
ATOM      6  H   UNL     1       5.454   0.021  22.722  0.00  0.00    +0.167 HD
ATOM      7  C   UNL     1       7.445   0.551  22.944  0.00  0.00    +0.095 A 
ENDROOT
BRANCH   1   9
ATOM      8  C   UNL     1       9.979   1.771  22.007  0.00  0.00    +0.013 C 
ATOM      9  C   UNL     1      10.027   0.466  22.808  0.00  0.00    +0.021 C 
ATOM     10  C   UNL     1      10.794   0.671  24.115  0.00  0.00    +0.013 C 
ENDBRANCH   1   9
BRANCH   4  11
ATOM     11  C   UNL     1       6.262  -3.852  22.592  0.00  0.00    +0.243 C 
ATOM     12  O   UNL     1       6.717  -4.277  21.531  0.00  0.00    -0.273 OA
BRANCH  11  13
ATOM     13  C   UNL     1       5.996  -4.811  23.733  0.00  0.00    +0.134 C 
BRANCH  13  14
ATOM     14  C   UNL     1       7.119  -4.807  24.737  0.00  0.00    -0.020 A 
ATOM     15  C   UNL     1       6.916  -4.374  26.048  0.00  0.00    +0.114 A 
ATOM     16  N   UNL     1       7.884  -4.323  26.988  0.00  0.00    -0.263 NA
ATOM     17  C   UNL     1       9.116  -4.724  26.612  0.00  0.00    +0.111 A 
ATOM     18  C   UNL     1       9.418  -5.189  25.343  0.00  0.00    +0.020 A 
ATOM     19  C   UNL     1       8.402  -5.233  24.393  0.00  0.00    +0.007 A 
ENDBRANCH  13  14
ENDBRANCH  11  13
ENDBRANCH   4  11
TORSDOF 4
ENDMDL
MODEL 5
REMARK VINA RESULT:      -5.8      2.753      3.603
REMARK  Name = 
REMARK  6 active torsions:
REMARK  status: ('A' for Active; 'I' for Inactive)
REMARK    1  A    between atoms: C_1  and  C_2
REMARK    2  A    between atoms: C_2  and  C_3
REMARK    3  A    between atoms: C_2  and  C_4
REMARK    4  A    between atoms: N_9  and  C_10
REMARK    5  A    between atoms: C_10  and  C_12
REMARK    6  A    between atoms: C_12  and  C_13
REMARK                            x       y       z     vdW  Elec       q    Type
REMARK                         _______ _______ _______ _____ _____    ______ ____
ROOT
ATOM      1  C   UNL     1       8.584  -0.440  22.957  0.00  0.00    +0.011 A 
ATOM      2  S   UNL     1       8.402  -2.181  22.744  0.00  0.00    -0.057 S 
ATOM      3  C   UNL     1       6.628  -2.041  22.848  0.00  0.00    +0.163 A 
ATOM      4  N   UNL     1       5.745  -2.911  22.489  0.00  0.00    -0.156 NA
ATOM      5  N   UNL     1       6.349  -0.787  23.342  0.00  0.00    -0.342 N 
ATOM      6  H   UNL     1       5.401  -0.441  23.280  0.00  0.00    +0.167 HD
ATOM      7  C   UNL     1       7.402   0.101  23.300  0.00  0.00    +0.095 A 
ENDROOT
BRANCH   1   9
ATOM      8  C   UNL     1       9.723   1.484  21.876  0.00  0.00    +0.013 C 
ATOM      9  C   UNL     1       9.914   0.200  22.691  0.00  0.00    +0.021 C 
ATOM     10  C   UNL     1      10.717   0.489  23.960  0.00  0.00    +0.013 C 
ENDBRANCH   1   9
BRANCH   4  11
ATOM     11  C   UNL     1       6.158  -4.041  21.818  0.00  0.00    +0.243 C 
ATOM     12  O   UNL     1       5.790  -4.370  20.691  0.00  0.00    -0.273 OA
BRANCH  11  13
ATOM     13  C   UNL     1       6.979  -5.004  22.650  0.00  0.00    +0.134 C 
BRANCH  13  14
ATOM     14  C   UNL     1       6.177  -5.584  23.785  0.00  0.00    -0.020 A 
ATOM     15  C   UNL     1       5.061  -6.387  23.548  0.00  0.00    +0.114 A 
ATOM     16  N   UNL     1       4.287  -6.916  24.520  0.00  0.00    -0.263 NA
ATOM     17  C   UNL     1       4.638  -6.639  25.792  0.00  0.00    +0.111 A 
ATOM     18  C   UNL     1       5.738  -5.871  26.136  0.00  0.00    +0.020 A 
ATOM     19  C   UNL     1       6.520  -5.338  25.116  0.00  0.00    +0.007 A 
ENDBRANCH  13  14
ENDBRANCH  11  13
ENDBRANCH   4  11
TORSDOF 4
ENDMDL
MODEL 6
REMARK VINA RESULT:      -5.7      1.702      1.980
REMARK  Name = 
REMARK  6 active torsions:
REMARK  status: ('A' for Active; 'I' for Inactive)
REMARK    1  A    between atoms: C_1  and  C_2
REMARK    2  A    between atoms: C_2  and  C_3
REMARK    3  A    between atoms: C_2  and  C_4
REMARK    4  A    between atoms: N_9  and  C_10
REMARK    5  A    between atoms: C_10  and  C_12
REMARK    6  A    between atoms: C_12  and  C_13
REMARK                            x       y       z     vdW  Elec       q    Type
REMARK                         _______ _______ _______ _____ _____    ______ ____
ROOT
ATOM      1  C   UNL     1       9.673   1.253  24.260  0.00  0.00    +0.011 A 
ATOM      2  S   UNL     1      10.201  -0.417  24.055  0.00  0.00    -0.057 S 
ATOM      3  C   UNL     1       8.823  -1.006  25.020  0.00  0.00    +0.163 A 
ATOM      4  N   UNL     1       8.361  -2.209  25.084  0.00  0.00    -0.156 NA
ATOM      5  N   UNL     1       8.284   0.085  25.665  0.00  0.00    -0.342 N 
ATOM      6  H   UNL     1       7.374  -0.007  26.094  0.00  0.00    +0.167 HD
ATOM      7  C   UNL     1       8.683   1.307  25.169  0.00  0.00    +0.095 A 
ENDROOT
BRANCH   1   9
ATOM      8  C   UNL     1      10.104   2.006  21.933  0.00  0.00    +0.013 C 
ATOM      9  C   UNL     1      10.291   2.330  23.419  0.00  0.00    +0.021 C 
ATOM     10  C   UNL     1       9.757   3.728  23.731  0.00  0.00    +0.013 C 
ENDBRANCH   1   9
BRANCH   4  11
ATOM     11  C   UNL     1       8.866  -3.163  24.229  0.00  0.00    +0.243 C 
ATOM     12  O   UNL     1       9.799  -3.923  24.487  0.00  0.00    -0.273 OA
BRANCH  11  13
ATOM     13  C   UNL     1       8.316  -3.102  22.819  0.00  0.00    +0.134 C 
BRANCH  13  14
ATOM     14  C   UNL     1       7.176  -4.067  22.623  0.00  0.00    -0.020 A 
ATOM     15  C   UNL     1       5.849  -3.655  22.748  0.00  0.00    +0.114 A 
ATOM     16  N   UNL     1       4.784  -4.474  22.609  0.00  0.00    -0.263 NA
ATOM     17  C   UNL     1       5.046  -5.766  22.329  0.00  0.00    +0.111 A 
ATOM     18  C   UNL     1       6.325  -6.273  22.165  0.00  0.00    +0.020 A 
ATOM     19  C   UNL     1       7.405  -5.408  22.312  0.00  0.00    +0.007 A 
ENDBRANCH  13  14
ENDBRANCH  11  13
ENDBRANCH   4  11
TORSDOF 4
ENDMDL
MODEL 7
REMARK VINA RESULT:      -5.7      2.790      3.380
REMARK  Name = 
REMARK  6 active torsions:
REMARK  status: ('A' for Active; 'I' for Inactive)
REMARK    1  A    between atoms: C_1  and  C_2
REMARK    2  A    between atoms: C_2  and  C_3
REMARK    3  A    between atoms: C_2  and  C_4
REMARK    4  A    between atoms: N_9  and  C_10
REMARK    5  A    between atoms: C_10  and  C_12
REMARK    6  A    between atoms: C_12  and  C_13
REMARK                            x       y       z     vdW  Elec       q    Type
REMARK                         _______ _______ _______ _____ _____    ______ ____
ROOT
ATOM      1  C   UNL     1       9.776   0.090  23.434  0.00  0.00    +0.011 A 
ATOM      2  S   UNL     1       9.813  -1.665  23.269  0.00  0.00    -0.057 S 
ATOM      3  C   UNL     1       9.239  -1.868  24.944  0.00  0.00    +0.163 A 
ATOM      4  N   UNL     1       8.738  -2.928  25.484  0.00  0.00    -0.156 NA
ATOM      5  N   UNL     1       9.374  -0.649  25.569  0.00  0.00    -0.342 N 
ATOM      6  H   UNL     1       8.913  -0.505  26.457  0.00  0.00    +0.167 HD
ATOM      7  C   UNL     1       9.566   0.420  24.721  0.00  0.00    +0.095 A 
ENDROOT
BRANCH   1   9
ATOM      8  C   UNL     1       8.552   1.064  21.506  0.00  0.00    +0.013 C 
ATOM      9  C   UNL     1       9.907   0.949  22.211  0.00  0.00    +0.021 C 
ATOM     10  C   UNL     1      10.477   2.337  22.500  0.00  0.00    +0.013 C 
ENDBRANCH   1   9
BRANCH   4  11
ATOM     11  C   UNL     1       8.469  -4.018  24.686  0.00  0.00    +0.243 C 
ATOM     12  O   UNL     1       9.292  -4.867  24.346  0.00  0.00    -0.273 OA
BRANCH  11  13
ATOM     13  C   UNL     1       7.088  -4.020  24.064  0.00  0.00    +0.134 C 
BRANCH  13  14
ATOM     14  C   UNL     1       6.197  -5.061  24.687  0.00  0.00    -0.020 A 
ATOM     15  C   UNL     1       6.330  -5.420  26.029  0.00  0.00    +0.114 A 
ATOM     16  N   UNL     1       5.581  -6.362  26.641  0.00  0.00    -0.263 NA
ATOM     17  C   UNL     1       4.648  -6.978  25.887  0.00  0.00    +0.111 A 
ATOM     18  C   UNL     1       4.421  -6.682  24.552  0.00  0.00    +0.020 A 
ATOM     19  C   UNL     1       5.206  -5.707  23.946  0.00  0.00    +0.007 A 
ENDBRANCH  13  14
ENDBRANCH  11  13
ENDBRANCH   4  11
TORSDOF 4
ENDMDL
MODEL 8
REMARK VINA RESULT:      -5.6      1.978      2.456
REMARK  Name = 
REMARK  6 active torsions:
REMARK  status: ('A' for Active; 'I' for Inactive)
REMARK    1  A    between atoms: C_1  and  C_2
REMARK    2  A    between atoms: C_2  and  C_3
REMARK    3  A    between atoms: C_2  and  C_4
REMARK    4  A    between atoms: N_9  and  C_10
REMARK    5  A    between atoms: C_10  and  C_12
REMARK    6  A    between atoms: C_12  and  C_13
REMARK                            x       y       z     vdW  Elec       q    Type
REMARK                         _______ _______ _______ _____ _____    ______ ____
ROOT
ATOM      1  C   UNL     1       8.466   2.720  22.559  0.00  0.00    +0.011 A 
ATOM      2  S   UNL     1       8.844   1.066  22.077  0.00  0.00    -0.057 S 
ATOM      3  C   UNL     1      10.086   0.946  23.349  0.00  0.00    +0.163 A 
ATOM      4  N   UNL     1      10.636  -0.125  23.817  0.00  0.00    -0.156 NA
ATOM      5  N   UNL     1      10.330   2.223  23.801  0.00  0.00    -0.342 N 
ATOM      6  H   UNL     1      10.848   2.343  24.660  0.00  0.00    +0.167 HD
ATOM      7  C   UNL     1       9.380   3.156  23.443  0.00  0.00    +0.095 A 
ENDROOT
BRANCH   1   9
ATOM      8  C   UNL     1       5.983   2.710  22.608  0.00  0.00    +0.013 C 
ATOM      9  C   UNL     1       7.230   3.380  22.022  0.00  0.00    +0.021 C 
ATOM     10  C   UNL     1       7.190   4.889  22.267  0.00  0.00    +0.013 C 
ENDBRANCH   1   9
BRANCH   4  11
ATOM     11  C   UNL     1      10.150  -1.351  23.420  0.00  0.00    +0.243 C 
ATOM     12  O   UNL     1      10.456  -1.930  22.378  0.00  0.00    -0.273 OA
BRANCH  11  13
ATOM     13  C   UNL     1       9.024  -1.892  24.275  0.00  0.00    +0.134 C 
BRANCH  13  14
ATOM     14  C   UNL     1       8.174  -2.879  23.519  0.00  0.00    -0.020 A 
ATOM     15  C   UNL     1       7.275  -2.460  22.538  0.00  0.00    +0.114 A 
ATOM     16  N   UNL     1       6.468  -3.290  21.843  0.00  0.00    -0.263 NA
ATOM     17  C   UNL     1       6.558  -4.604  22.132  0.00  0.00    +0.111 A 
ATOM     18  C   UNL     1       7.431  -5.126  23.073  0.00  0.00    +0.020 A 
ATOM     19  C   UNL     1       8.252  -4.249  23.774  0.00  0.00    +0.007 A 
ENDBRANCH  13  14
ENDBRANCH  11  13
ENDBRANCH   4  11
TORSDOF 4
ENDMDL
MODEL 9
REMARK VINA RESULT:      -5.6      2.500      7.321
REMARK  Name = 
REMARK  6 active torsions:
REMARK  status: ('A' for Active; 'I' for Inactive)
REMARK    1  A    between atoms: C_1  and  C_2
REMARK    2  A    between atoms: C_2  and  C_3
REMARK    3  A    between atoms: C_2  and  C_4
REMARK    4  A    between atoms: N_9  and  C_10
REMARK    5  A    between atoms: C_10  and  C_12
REMARK    6  A    between atoms: C_12  and  C_13
REMARK                            x       y       z     vdW  Elec       q    Type
REMARK                         _______ _______ _______ _____ _____    ______ ____
ROOT
ATOM      1  C   UNL     1       5.490  -5.356  23.686  0.00  0.00    +0.011 A 
ATOM      2  S   UNL     1       7.203  -4.943  23.760  0.00  0.00    -0.057 S 
ATOM      3  C   UNL     1       6.881  -3.344  23.039  0.00  0.00    +0.163 A 
ATOM      4  N   UNL     1       7.656  -2.312  23.032  0.00  0.00    -0.156 NA
ATOM      5  N   UNL     1       5.606  -3.381  22.523  0.00  0.00    -0.342 N 
ATOM      6  H   UNL     1       5.165  -2.512  22.258  0.00  0.00    +0.167 HD
ATOM      7  C   UNL     1       4.830  -4.430  22.967  0.00  0.00    +0.095 A 
ENDROOT
BRANCH   1   9
ATOM      8  C   UNL     1       5.232  -6.386  25.931  0.00  0.00    +0.013 C 
ATOM      9  C   UNL     1       4.989  -6.559  24.428  0.00  0.00    +0.021 C 
ATOM     10  C   UNL     1       3.517  -6.872  24.159  0.00  0.00    +0.013 C 
ENDBRANCH   1   9
BRANCH   4  11
ATOM     11  C   UNL     1       8.821  -2.348  23.765  0.00  0.00    +0.243 C 
ATOM     12  O   UNL     1       8.892  -2.571  24.973  0.00  0.00    -0.273 OA
BRANCH  11  13
ATOM     13  C   UNL     1      10.054  -1.891  23.014  0.00  0.00    +0.134 C 
BRANCH  13  14
ATOM     14  C   UNL     1      10.158  -0.389  22.972  0.00  0.00    -0.020 A 
ATOM     15  C   UNL     1      10.616   0.336  24.072  0.00  0.00    +0.114 A 
ATOM     16  N   UNL     1      10.708   1.682  24.109  0.00  0.00    -0.263 NA
ATOM     17  C   UNL     1      10.331   2.346  22.997  0.00  0.00    +0.111 A 
ATOM     18  C   UNL     1       9.881   1.721  21.845  0.00  0.00    +0.020 A 
ATOM     19  C   UNL     1       9.796   0.333  21.834  0.00  0.00    +0.007 A 
ENDBRANCH  13  14
ENDBRANCH  11  13
ENDBRANCH   4  11
TORSDOF 4
ENDMDL
