MODEL 1
REMARK VINA RESULT:      -7.2      0.000      0.000
REMARK  Name = 
REMARK  6 active torsions:
REMARK  status: ('A' for Active; 'I' for Inactive)
REMARK    1  A    between atoms: C_2  and  N_3
REMARK    2  A    between atoms: C_2  and  C_12
REMARK    3  A    between atoms: C_7  and  C_9
REMARK    4  A    between atoms: C_12  and  C_13
REMARK    5  A    between atoms: C_12  and  C_15
REMARK    6  A    between atoms: C_18  and  N_21
REMARK                            x       y       z     vdW  Elec       q    Type
REMARK                         _______ _______ _______ _____ _____    ______ ____
ROOT
ATOM      1  C   UNL     1       7.031  -4.457  24.525  0.00  0.00    +0.131 C 
ATOM      2  C   UNL     1       7.871  -5.293  25.495  0.00  0.00    +0.025 C 
ENDROOT
BRANCH   1   3
ATOM      3  C   UNL     1       7.701  -3.126  24.223  0.00  0.00    -0.033 A 
ATOM      4  C   UNL     1       9.088  -3.057  24.054  0.00  0.00    +0.006 A 
ATOM      5  C   UNL     1       9.712  -1.850  23.707  0.00  0.00    +0.024 A 
ATOM      6  C   UNL     1       8.969  -0.676  23.521  0.00  0.00    +0.038 A 
ATOM      7  C   UNL     1       7.587  -0.746  23.731  0.00  0.00    +0.024 A 
ATOM      8  C   UNL     1       6.960  -1.949  24.080  0.00  0.00    +0.006 A 
BRANCH   6   9
ATOM      9  N   UNL     1       9.602   0.538  23.150  0.00  0.00    -0.254 N 
ATOM     10  C   UNL     1       9.510   1.196  21.905  0.00  0.00    +0.307 C 
ATOM     11  O   UNL     1       8.906   0.891  20.892  0.00  0.00    -0.252 OA
ATOM     12  N   UNL     1      10.257   2.372  21.996  0.00  0.00    -0.297 N 
ATOM     13  H   UNL     1      10.131   3.069  21.274  0.00  0.00    +0.150 HD
ATOM     14  C   UNL     1      10.593   2.631  23.363  0.00  0.00    +0.125 C 
ATOM     15  C   UNL     1      10.543   1.248  23.992  0.00  0.00    +0.134 C 
ENDBRANCH   6   9
ENDBRANCH   1   3
BRANCH   1  17
ATOM     16  O   UNL     1       7.488  -5.944  22.667  0.00  0.00    -0.243 OA
ATOM     17  C   UNL     1       6.674  -5.239  23.254  0.00  0.00    +0.351 C 
BRANCH  17  18
ATOM     18  N   UNL     1       5.338  -5.150  22.942  0.00  0.00    +0.033 NA
ATOM     19  C   UNL     1       4.523  -6.013  23.446  0.00  0.00    +0.389 C 
ATOM     20  C   UNL     1       3.098  -6.013  23.156  0.00  0.00    +0.133 C 
ATOM     21  C   UNL     1       2.706  -7.071  23.857  0.00  0.00    +0.099 C 
ATOM     22  N   UNL     1       3.732  -7.672  24.536  0.00  0.00    -0.039 NA
ATOM     23  N   UNL     1       4.806  -7.065  24.290  0.00  0.00    +0.084 NA
BRANCH  21  24
ATOM     24  C   UNL     1       1.358  -7.622  23.976  0.00  0.00    +0.042 C 
ATOM     25  C   UNL     1       1.178  -9.054  24.411  0.00  0.00    +0.010 C 
ATOM     26  C   UNL     1       0.890  -8.666  22.991  0.00  0.00    +0.010 C 
ENDBRANCH  21  24
ENDBRANCH  17  18
ENDBRANCH   1  17
TORSDOF 5
ENDMDL
MODEL 2
REMARK VINA RESULT:      -7.1      1.748      2.264
REMARK  Name = 
REMARK  6 active torsions:
REMARK  status: ('A' for Active; 'I' for Inactive)
REMARK    1  A    between atoms: C_2  and  N_3
REMARK    2  A    between atoms: C_2  and  C_12
REMARK    3  A    between atoms: C_7  and  C_9
REMARK    4  A    between atoms: C_12  and  C_13
REMARK    5  A    between atoms: C_12  and  C_15
REMARK    6  A    between atoms: C_18  and  N_21
REMARK                            x       y       z     vdW  Elec       q    Type
REMARK                         _______ _______ _______ _____ _____    ______ ____
ROOT
ATOM      1  C   UNL     1       8.706  -4.354  26.159  0.00  0.00    +0.131 C 
ATOM      2  C   UNL     1       9.125  -5.580  25.344  0.00  0.00    +0.025 C 
ENDROOT
BRANCH   1   3
ATOM      3  C   UNL     1       8.983  -3.066  25.399  0.00  0.00    -0.033 A 
ATOM      4  C   UNL     1       8.723  -1.826  25.993  0.00  0.00    +0.006 A 
ATOM      5  C   UNL     1       9.039  -0.631  25.332  0.00  0.00    +0.024 A 
ATOM      6  C   UNL     1       9.621  -0.638  24.057  0.00  0.00    +0.038 A 
ATOM      7  C   UNL     1       9.841  -1.882  23.454  0.00  0.00    +0.024 A 
ATOM      8  C   UNL     1       9.524  -3.079  24.110  0.00  0.00    +0.006 A 
BRANCH   6   9
ATOM      9  N   UNL     1       9.957   0.573  23.401  0.00  0.00    -0.254 N 
ATOM     10  C   UNL     1       9.728   0.896  22.046  0.00  0.00    +0.307 C 
ATOM     11  O   UNL     1       9.223   0.240  21.151  0.00  0.00    -0.252 OA
ATOM     12  N   UNL     1      10.178   2.202  21.844  0.00  0.00    -0.297 N 
ATOM     13  H   UNL     1       9.900   2.670  20.991  0.00  0.00    +0.150 HD
ATOM     14  C   UNL     1      10.428   2.831  23.104  0.00  0.00    +0.125 C 
ATOM     15  C   UNL     1      10.695   1.652  24.025  0.00  0.00    +0.134 C 
ENDBRANCH   6   9
ENDBRANCH   1   3
BRANCH   1  17
ATOM     16  O   UNL     1       6.963  -4.719  27.802  0.00  0.00    -0.243 OA
ATOM     17  C   UNL     1       7.253  -4.453  26.641  0.00  0.00    +0.351 C 
BRANCH  17  18
ATOM     18  N   UNL     1       6.352  -4.091  25.666  0.00  0.00    +0.033 NA
ATOM     19  C   UNL     1       5.535  -4.981  25.214  0.00  0.00    +0.389 C 
ATOM     20  C   UNL     1       4.565  -4.699  24.168  0.00  0.00    +0.133 C 
ATOM     21  C   UNL     1       3.999  -5.892  24.031  0.00  0.00    +0.099 C 
ATOM     22  N   UNL     1       4.511  -6.828  24.889  0.00  0.00    -0.039 NA
ATOM     23  N   UNL     1       5.425  -6.305  25.579  0.00  0.00    +0.084 NA
BRANCH  21  24
ATOM     24  C   UNL     1       2.933  -6.282  23.111  0.00  0.00    +0.042 C 
ATOM     25  C   UNL     1       1.663  -5.471  23.062  0.00  0.00    +0.010 C 
ATOM     26  C   UNL     1       1.644  -6.846  23.661  0.00  0.00    +0.010 C 
ENDBRANCH  21  24
ENDBRANCH  17  18
ENDBRANCH   1  17
TORSDOF 5
ENDMDL
MODEL 3
REMARK VINA RESULT:      -7.1      2.841      4.016
REMARK  Name = 
REMARK  6 active torsions:
REMARK  status: ('A' for Active; 'I' for Inactive)
REMARK    1  A    between atoms: C_2  and  N_3
REMARK    2  A    between atoms: C_2  and  C_12
REMARK    3  A    between atoms: C_7  and  C_9
REMARK    4  A    between atoms: C_12  and  C_13
REMARK    5  A    between atoms: C_12  and  C_15
REMARK    6  A    between atoms: C_18  and  N_21
REMARK                            x       y       z     vdW  Elec       q    Type
REMARK                         _______ _______ _______ _____ _____    ______ ____
ROOT
ATOM      1  C   UNL     1       6.395  -5.853  22.505  0.00  0.00    +0.131 C 
ATOM      2  C   UNL     1       6.386  -6.007  20.982  0.00  0.00    +0.025 C 
ENDROOT
BRANCH   1   3
ATOM      3  C   UNL     1       7.220  -4.649  22.932  0.00  0.00    -0.033 A 
ATOM      4  C   UNL     1       7.068  -3.422  22.275  0.00  0.00    +0.006 A 
ATOM      5  C   UNL     1       7.769  -2.286  22.703  0.00  0.00    +0.024 A 
ATOM      6  C   UNL     1       8.645  -2.341  23.796  0.00  0.00    +0.038 A 
ATOM      7  C   UNL     1       8.820  -3.581  24.422  0.00  0.00    +0.024 A 
ATOM      8  C   UNL     1       8.123  -4.719  23.997  0.00  0.00    +0.006 A 
BRANCH   6   9
ATOM      9  N   UNL     1       9.337  -1.184  24.237  0.00  0.00    -0.254 N 
ATOM     10  C   UNL     1       9.283  -0.602  25.521  0.00  0.00    +0.307 C 
ATOM     11  O   UNL     1       8.651  -0.927  26.512  0.00  0.00    -0.252 OA
ATOM     12  N   UNL     1      10.150   0.492  25.522  0.00  0.00    -0.297 N 
ATOM     13  H   UNL     1      10.399   0.896  26.416  0.00  0.00    +0.150 HD
ATOM     14  C   UNL     1      10.980   0.457  24.357  0.00  0.00    +0.125 C 
ATOM     15  C   UNL     1      10.148  -0.351  23.374  0.00  0.00    +0.134 C 
ENDBRANCH   6   9
ENDBRANCH   1   3
BRANCH   1  17
ATOM     16  O   UNL     1       4.060  -5.207  22.565  0.00  0.00    -0.243 OA
ATOM     17  C   UNL     1       4.976  -5.833  23.089  0.00  0.00    +0.351 C 
BRANCH  17  18
ATOM     18  N   UNL     1       4.840  -6.679  24.165  0.00  0.00    +0.033 NA
ATOM     19  C   UNL     1       4.819  -6.177  25.352  0.00  0.00    +0.389 C 
ATOM     20  C   UNL     1       4.703  -6.993  26.550  0.00  0.00    +0.133 C 
ATOM     21  C   UNL     1       4.755  -6.056  27.490  0.00  0.00    +0.099 C 
ATOM     22  N   UNL     1       4.866  -4.791  26.978  0.00  0.00    -0.039 NA
ATOM     23  N   UNL     1       4.918  -4.853  25.722  0.00  0.00    +0.084 NA
BRANCH  21  24
ATOM     24  C   UNL     1       4.698  -6.232  28.939  0.00  0.00    +0.042 C 
ATOM     25  C   UNL     1       5.105  -5.095  29.841  0.00  0.00    +0.010 C 
ATOM     26  C   UNL     1       5.981  -6.308  29.731  0.00  0.00    +0.010 C 
ENDBRANCH  21  24
ENDBRANCH  17  18
ENDBRANCH   1  17
TORSDOF 5
ENDMDL
MODEL 4
REMARK VINA RESULT:      -6.9      2.334      9.840
REMARK  Name = 
REMARK  6 active torsions:
REMARK  status: ('A' for Active; 'I' for Inactive)
REMARK    1  A    between atoms: C_2  and  N_3
REMARK    2  A    between atoms: C_2  and  C_12
REMARK    3  A    between atoms: C_7  and  C_9
REMARK    4  A    between atoms: C_12  and  C_13
REMARK    5  A    between atoms: C_12  and  C_15
REMARK    6  A    between atoms: C_18  and  N_21
REMARK                            x       y       z     vdW  Elec       q    Type
REMARK                         _______ _______ _______ _____ _____    ______ ____
ROOT
ATOM      1  C   UNL     1       8.654  -0.917  23.117  0.00  0.00    +0.131 C 
ATOM      2  C   UNL     1       9.517  -1.266  21.901  0.00  0.00    +0.025 C 
ENDROOT
BRANCH   1   3
ATOM      3  C   UNL     1       7.861  -2.124  23.592  0.00  0.00    -0.033 A 
ATOM      4  C   UNL     1       8.447  -3.395  23.600  0.00  0.00    +0.006 A 
ATOM      5  C   UNL     1       7.752  -4.504  24.101  0.00  0.00    +0.024 A 
ATOM      6  C   UNL     1       6.450  -4.379  24.605  0.00  0.00    +0.038 A 
ATOM      7  C   UNL     1       5.858  -3.112  24.557  0.00  0.00    +0.024 A 
ATOM      8  C   UNL     1       6.547  -2.001  24.055  0.00  0.00    +0.006 A 
BRANCH   6   9
ATOM      9  N   UNL     1       5.759  -5.501  25.129  0.00  0.00    -0.254 N 
ATOM     10  C   UNL     1       5.945  -6.097  26.395  0.00  0.00    +0.307 C 
ATOM     11  O   UNL     1       6.715  -5.814  27.297  0.00  0.00    -0.252 OA
ATOM     12  N   UNL     1       5.028  -7.143  26.506  0.00  0.00    -0.297 N 
ATOM     13  H   UNL     1       4.874  -7.541  27.423  0.00  0.00    +0.150 HD
ATOM     14  C   UNL     1       4.059  -7.054  25.457  0.00  0.00    +0.125 C 
ATOM     15  C   UNL     1       4.800  -6.283  24.376  0.00  0.00    +0.134 C 
ENDBRANCH   6   9
ENDBRANCH   1   3
BRANCH   1  17
ATOM     16  O   UNL     1       9.448  -0.687  25.394  0.00  0.00    -0.243 OA
ATOM     17  C   UNL     1       9.477  -0.273  24.240  0.00  0.00    +0.351 C 
BRANCH  17  18
ATOM     18  N   UNL     1      10.319   0.710  23.774  0.00  0.00    +0.033 NA
ATOM     19  C   UNL     1       9.991   1.944  23.954  0.00  0.00    +0.389 C 
ATOM     20  C   UNL     1      10.804   3.052  23.478  0.00  0.00    +0.133 C 
ATOM     21  C   UNL     1      10.062   4.084  23.862  0.00  0.00    +0.099 C 
ATOM     22  N   UNL     1       8.925   3.706  24.525  0.00  0.00    -0.039 NA
ATOM     23  N   UNL     1       8.868   2.450  24.572  0.00  0.00    +0.084 NA
BRANCH  21  24
ATOM     24  C   UNL     1      10.330   5.507  23.668  0.00  0.00    +0.042 C 
ATOM     25  C   UNL     1      11.730   6.030  23.860  0.00  0.00    +0.010 C 
ATOM     26  C   UNL     1      10.665   6.371  24.860  0.00  0.00    +0.010 C 
ENDBRANCH  21  24
ENDBRANCH  17  18
ENDBRANCH   1  17
TORSDOF 5
ENDMDL
MODEL 5
REMARK VINA RESULT:      -6.9      2.164      9.950
REMARK  Name = 
REMARK  6 active torsions:
REMARK  status: ('A' for Active; 'I' for Inactive)
REMARK    1  A    between atoms: C_2  and  N_3
REMARK    2  A    between atoms: C_2  and  C_12
REMARK    3  A    between atoms: C_7  and  C_9
REMARK    4  A    between atoms: C_12  and  C_13
REMARK    5  A    between atoms: C_12  and  C_15
REMARK    6  A    between atoms: C_18  and  N_21
REMARK                            x       y       z     vdW  Elec       q    Type
REMARK                         _______ _______ _______ _____ _____    ______ ____
ROOT
ATOM      1  C   UNL     1       8.822  -0.580  22.945  0.00  0.00    +0.131 C 
ATOM      2  C   UNL     1       9.759  -0.905  21.779  0.00  0.00    +0.025 C 
ENDROOT
BRANCH   1   3
ATOM      3  C   UNL     1       7.954  -1.776  23.303  0.00  0.00    -0.033 A 
ATOM      4  C   UNL     1       6.580  -1.613  23.512  0.00  0.00    +0.006 A 
ATOM      5  C   UNL     1       5.755  -2.716  23.772  0.00  0.00    +0.024 A 
ATOM      6  C   UNL     1       6.279  -4.015  23.835  0.00  0.00    +0.038 A 
ATOM      7  C   UNL     1       7.660  -4.164  23.664  0.00  0.00    +0.024 A 
ATOM      8  C   UNL     1       8.487  -3.064  23.406  0.00  0.00    +0.006 A 
BRANCH   6   9
ATOM      9  N   UNL     1       5.437  -5.130  24.079  0.00  0.00    -0.254 N 
ATOM     10  C   UNL     1       4.832  -5.964  23.114  0.00  0.00    +0.307 C 
ATOM     11  O   UNL     1       4.872  -5.923  21.896  0.00  0.00    -0.252 OA
ATOM     12  N   UNL     1       4.127  -6.955  23.798  0.00  0.00    -0.297 N 
ATOM     13  H   UNL     1       3.811  -7.759  23.271  0.00  0.00    +0.150 HD
ATOM     14  C   UNL     1       4.500  -6.952  25.179  0.00  0.00    +0.125 C 
ATOM     15  C   UNL     1       4.984  -5.527  25.396  0.00  0.00    +0.134 C 
ENDBRANCH   6   9
ENDBRANCH   1   3
BRANCH   1  17
ATOM     16  O   UNL     1       9.406  -0.443  25.293  0.00  0.00    -0.243 OA
ATOM     17  C   UNL     1       9.582  -0.021  24.155  0.00  0.00    +0.351 C 
BRANCH  17  18
ATOM     18  N   UNL     1      10.543   0.894  23.792  0.00  0.00    +0.033 NA
ATOM     19  C   UNL     1      10.277   2.151  23.901  0.00  0.00    +0.389 C 
ATOM     20  C   UNL     1      11.220   3.191  23.520  0.00  0.00    +0.133 C 
ATOM     21  C   UNL     1      10.502   4.278  23.778  0.00  0.00    +0.099 C 
ATOM     22  N   UNL     1       9.263   3.993  24.284  0.00  0.00    -0.039 NA
ATOM     23  N   UNL     1       9.116   2.744  24.347  0.00  0.00    +0.084 NA
BRANCH  21  24
ATOM     24  C   UNL     1      10.889   5.675  23.596  0.00  0.00    +0.042 C 
ATOM     25  C   UNL     1      12.348   6.053  23.641  0.00  0.00    +0.010 C 
ATOM     26  C   UNL     1      11.440   6.454  24.766  0.00  0.00    +0.010 C 
ENDBRANCH  21  24
ENDBRANCH  17  18
ENDBRANCH   1  17
TORSDOF 5
ENDMDL
MODEL 6
REMARK VINA RESULT:      -6.8      2.703      2.997
REMARK  Name = 
REMARK  6 active torsions:
REMARK  status: ('A' for Active; 'I' for Inactive)
REMARK    1  A    between atoms: C_2  and  N_3
REMARK    2  A    between atoms: C_2  and  C_12
REMARK    3  A    between atoms: C_7  and  C_9
REMARK    4  A    between atoms: C_12  and  C_13
REMARK    5  A    between atoms: C_12  and  C_15
REMARK    6  A    between atoms: C_18  and  N_21
REMARK                            x       y       z     vdW  Elec       q    Type
REMARK                         _______ _______ _______ _____ _____    ______ ____
ROOT
ATOM      1  C   UNL     1       8.082  -4.374  25.379  0.00  0.00    +0.131 C 
ATOM      2  C   UNL     1       9.190  -5.430  25.347  0.00  0.00    +0.025 C 
ENDROOT
BRANCH   1   3
ATOM      3  C   UNL     1       8.589  -3.031  24.878  0.00  0.00    -0.033 A 
ATOM      4  C   UNL     1       9.691  -2.969  24.018  0.00  0.00    +0.006 A 
ATOM      5  C   UNL     1      10.125  -1.745  23.491  0.00  0.00    +0.024 A 
ATOM      6  C   UNL     1       9.475  -0.545  23.811  0.00  0.00    +0.038 A 
ATOM      7  C   UNL     1       8.398  -0.611  24.703  0.00  0.00    +0.024 A 
ATOM      8  C   UNL     1       7.962  -1.832  25.233  0.00  0.00    +0.006 A 
BRANCH   6   9
ATOM      9  N   UNL     1       9.906   0.689  23.260  0.00  0.00    -0.254 N 
ATOM     10  C   UNL     1       9.669   1.163  21.952  0.00  0.00    +0.307 C 
ATOM     11  O   UNL     1       9.077   0.648  21.019  0.00  0.00    -0.252 OA
ATOM     12  N   UNL     1      10.237   2.434  21.857  0.00  0.00    -0.297 N 
ATOM     13  H   UNL     1       9.980   3.008  21.064  0.00  0.00    +0.150 HD
ATOM     14  C   UNL     1      10.584   2.911  23.160  0.00  0.00    +0.125 C 
ATOM     15  C   UNL     1      10.764   1.627  23.954  0.00  0.00    +0.134 C 
ENDBRANCH   6   9
ENDBRANCH   1   3
BRANCH   1  17
ATOM     16  O   UNL     1       6.871  -5.463  23.585  0.00  0.00    -0.243 OA
ATOM     17  C   UNL     1       6.821  -4.841  24.641  0.00  0.00    +0.351 C 
BRANCH  17  18
ATOM     18  N   UNL     1       5.674  -4.592  25.357  0.00  0.00    +0.033 NA
ATOM     19  C   UNL     1       5.353  -5.392  26.316  0.00  0.00    +0.389 C 
ATOM     20  C   UNL     1       4.148  -5.224  27.112  0.00  0.00    +0.133 C 
ATOM     21  C   UNL     1       4.240  -6.273  27.921  0.00  0.00    +0.099 C 
ATOM     22  N   UNL     1       5.368  -7.018  27.702  0.00  0.00    -0.039 NA
ATOM     23  N   UNL     1       6.021  -6.516  26.751  0.00  0.00    +0.084 NA
BRANCH  21  24
ATOM     24  C   UNL     1       3.312  -6.683  28.972  0.00  0.00    +0.042 C 
ATOM     25  C   UNL     1       2.391  -5.661  29.588  0.00  0.00    +0.010 C 
ATOM     26  C   UNL     1       3.535  -6.210  30.389  0.00  0.00    +0.010 C 
ENDBRANCH  21  24
ENDBRANCH  17  18
ENDBRANCH   1  17
TORSDOF 5
ENDMDL
MODEL 7
REMARK VINA RESULT:      -6.8      2.409      8.666
REMARK  Name = 
REMARK  6 active torsions:
REMARK  status: ('A' for Active; 'I' for Inactive)
REMARK    1  A    between atoms: C_2  and  N_3
REMARK    2  A    between atoms: C_2  and  C_12
REMARK    3  A    between atoms: C_7  and  C_9
REMARK    4  A    between atoms: C_12  and  C_13
REMARK    5  A    between atoms: C_12  and  C_15
REMARK    6  A    between atoms: C_18  and  N_21
REMARK                            x       y       z     vdW  Elec       q    Type
REMARK                         _______ _______ _______ _____ _____    ______ ____
ROOT
ATOM      1  C   UNL     1       7.853  -4.643  25.851  0.00  0.00    +0.131 C 
ATOM      2  C   UNL     1       7.796  -3.232  26.442  0.00  0.00    +0.025 C 
ENDROOT
BRANCH   1   3
ATOM      3  C   UNL     1       6.477  -5.104  25.397  0.00  0.00    -0.033 A 
ATOM      4  C   UNL     1       5.917  -4.599  24.218  0.00  0.00    +0.006 A 
ATOM      5  C   UNL     1       4.682  -5.067  23.750  0.00  0.00    +0.024 A 
ATOM      6  C   UNL     1       3.966  -6.051  24.447  0.00  0.00    +0.038 A 
ATOM      7  C   UNL     1       4.515  -6.521  25.645  0.00  0.00    +0.024 A 
ATOM      8  C   UNL     1       5.748  -6.055  26.118  0.00  0.00    +0.006 A 
BRANCH   6   9
ATOM      9  N   UNL     1       2.726  -6.535  23.959  0.00  0.00    -0.254 N 
ATOM     10  C   UNL     1       2.217  -7.845  24.087  0.00  0.00    +0.307 C 
ATOM     11  O   UNL     1       2.700  -8.834  24.611  0.00  0.00    -0.252 OA
ATOM     12  N   UNL     1       0.951  -7.863  23.498  0.00  0.00    -0.297 N 
ATOM     13  H   UNL     1       0.355  -8.659  23.685  0.00  0.00    +0.150 HD
ATOM     14  C   UNL     1       0.511  -6.525  23.248  0.00  0.00    +0.125 C 
ATOM     15  C   UNL     1       1.817  -5.753  23.147  0.00  0.00    +0.134 C 
ENDBRANCH   6   9
ENDBRANCH   1   3
BRANCH   1  17
ATOM     16  O   UNL     1       8.990  -5.745  24.018  0.00  0.00    -0.243 OA
ATOM     17  C   UNL     1       8.909  -4.761  24.745  0.00  0.00    +0.351 C 
BRANCH  17  18
ATOM     18  N   UNL     1       9.644  -3.608  24.598  0.00  0.00    +0.033 NA
ATOM     19  C   UNL     1       9.348  -2.801  23.637  0.00  0.00    +0.389 C 
ATOM     20  C   UNL     1      10.083  -1.571  23.388  0.00  0.00    +0.133 C 
ATOM     21  C   UNL     1       9.446  -1.118  22.315  0.00  0.00    +0.099 C 
ATOM     22  N   UNL     1       8.414  -1.929  21.925  0.00  0.00    -0.039 NA
ATOM     23  N   UNL     1       8.357  -2.928  22.688  0.00  0.00    +0.084 NA
BRANCH  21  24
ATOM     24  C   UNL     1       9.715   0.101  21.556  0.00  0.00    +0.042 C 
ATOM     25  C   UNL     1       9.976   1.390  22.293  0.00  0.00    +0.010 C 
ATOM     26  C   UNL     1       8.690   1.210  21.540  0.00  0.00    +0.010 C 
ENDBRANCH  21  24
ENDBRANCH  17  18
ENDBRANCH   1  17
TORSDOF 5
ENDMDL
MODEL 8
REMARK VINA RESULT:      -6.8      2.712      8.717
REMARK  Name = 
REMARK  6 active torsions:
REMARK  status: ('A' for Active; 'I' for Inactive)
REMARK    1  A    between atoms: C_2  and  N_3
REMARK    2  A    between atoms: C_2  and  C_12
REMARK    3  A    between atoms: C_7  and  C_9
REMARK    4  A    between atoms: C_12  and  C_13
REMARK    5  A    between atoms: C_12  and  C_15
REMARK    6  A    between atoms: C_18  and  N_21
REMARK                            x       y       z     vdW  Elec       q    Type
REMARK                         _______ _______ _______ _____ _____    ______ ____
ROOT
ATOM      1  C   UNL     1      10.313  -0.565  23.613  0.00  0.00    +0.131 C 
ATOM      2  C   UNL     1      10.543   0.500  24.689  0.00  0.00    +0.025 C 
ENDROOT
BRANCH   1   3
ATOM      3  C   UNL     1       9.425  -1.686  24.130  0.00  0.00    -0.033 A 
ATOM      4  C   UNL     1       8.148  -1.401  24.629  0.00  0.00    +0.006 A 
ATOM      5  C   UNL     1       7.292  -2.430  25.043  0.00  0.00    +0.024 A 
ATOM      6  C   UNL     1       7.685  -3.774  24.976  0.00  0.00    +0.038 A 
ATOM      7  C   UNL     1       8.977  -4.047  24.513  0.00  0.00    +0.024 A 
ATOM      8  C   UNL     1       9.837  -3.021  24.100  0.00  0.00    +0.006 A 
BRANCH   6   9
ATOM      9  N   UNL     1       6.807  -4.813  25.378  0.00  0.00    -0.254 N 
ATOM     10  C   UNL     1       6.877  -5.570  26.567  0.00  0.00    +0.307 C 
ATOM     11  O   UNL     1       7.676  -5.527  27.486  0.00  0.00    -0.252 OA
ATOM     12  N   UNL     1       5.792  -6.449  26.570  0.00  0.00    -0.297 N 
ATOM     13  H   UNL     1       5.564  -6.915  27.438  0.00  0.00    +0.150 HD
ATOM     14  C   UNL     1       4.862  -6.077  25.548  0.00  0.00    +0.125 C 
ATOM     15  C   UNL     1       5.734  -5.328  24.553  0.00  0.00    +0.134 C 
ENDBRANCH   6   9
ENDBRANCH   1   3
BRANCH   1  17
ATOM     16  O   UNL     1       9.466  -0.648  21.345  0.00  0.00    -0.243 OA
ATOM     17  C   UNL     1       9.793   0.042  22.304  0.00  0.00    +0.351 C 
BRANCH  17  18
ATOM     18  N   UNL     1       9.628   1.405  22.389  0.00  0.00    +0.033 NA
ATOM     19  C   UNL     1       8.432   1.883  22.453  0.00  0.00    +0.389 C 
ATOM     20  C   UNL     1       8.157   3.309  22.521  0.00  0.00    +0.133 C 
ATOM     21  C   UNL     1       6.829   3.302  22.539  0.00  0.00    +0.099 C 
ATOM     22  N   UNL     1       6.301   2.039  22.511  0.00  0.00    -0.039 NA
ATOM     23  N   UNL     1       7.236   1.199  22.447  0.00  0.00    +0.084 NA
BRANCH  21  24
ATOM     24  C   UNL     1       5.924   4.448  22.594  0.00  0.00    +0.042 C 
ATOM     25  C   UNL     1       6.492   5.844  22.568  0.00  0.00    +0.010 C 
ATOM     26  C   UNL     1       5.888   5.310  23.833  0.00  0.00    +0.010 C 
ENDBRANCH  21  24
ENDBRANCH  17  18
ENDBRANCH   1  17
TORSDOF 5
ENDMDL
MODEL 9
REMARK VINA RESULT:      -6.7      2.146      9.920
REMARK  Name = 
REMARK  6 active torsions:
REMARK  status: ('A' for Active; 'I' for Inactive)
REMARK    1  A    between atoms: C_2  and  N_3
REMARK    2  A    between atoms: C_2  and  C_12
REMARK    3  A    between atoms: C_7  and  C_9
REMARK    4  A    between atoms: C_12  and  C_13
REMARK    5  A    between atoms: C_12  and  C_15
REMARK    6  A    between atoms: C_18  and  N_21
REMARK                            x       y       z     vdW  Elec       q    Type
REMARK                         _______ _______ _______ _____ _____    ______ ____
ROOT
ATOM      1  C   UNL     1      10.120  -0.247  23.691  0.00  0.00    +0.131 C 
ATOM      2  C   UNL     1      10.167   0.228  25.146  0.00  0.00    +0.025 C 
ENDROOT
BRANCH   1   3
ATOM      3  C   UNL     1       9.175  -1.428  23.528  0.00  0.00    -0.033 A 
ATOM      4  C   UNL     1       9.394  -2.610  24.244  0.00  0.00    +0.006 A 
ATOM      5  C   UNL     1       8.493  -3.680  24.159  0.00  0.00    +0.024 A 
ATOM      6  C   UNL     1       7.348  -3.603  23.353  0.00  0.00    +0.038 A 
ATOM      7  C   UNL     1       7.159  -2.432  22.610  0.00  0.00    +0.024 A 
ATOM      8  C   UNL     1       8.058  -1.362  22.691  0.00  0.00    +0.006 A 
BRANCH   6   9
ATOM      9  N   UNL     1       6.429  -4.682  23.285  0.00  0.00    -0.254 N 
ATOM     10  C   UNL     1       6.159  -5.497  22.165  0.00  0.00    +0.307 C 
ATOM     11  O   UNL     1       6.617  -5.466  21.035  0.00  0.00    -0.252 OA
ATOM     12  N   UNL     1       5.223  -6.454  22.558  0.00  0.00    -0.297 N 
ATOM     13  H   UNL     1       5.075  -7.248  21.949  0.00  0.00    +0.150 HD
ATOM     14  C   UNL     1       5.098  -6.456  23.984  0.00  0.00    +0.125 C 
ATOM     15  C   UNL     1       5.536  -5.051  24.364  0.00  0.00    +0.134 C 
ENDBRANCH   6   9
ENDBRANCH   1   3
BRANCH   1  17
ATOM     16  O   UNL     1      10.027   0.820  21.518  0.00  0.00    -0.243 OA
ATOM     17  C   UNL     1       9.804   0.899  22.721  0.00  0.00    +0.351 C 
BRANCH  17  18
ATOM     18  N   UNL     1       9.145   1.938  23.336  0.00  0.00    +0.033 NA
ATOM     19  C   UNL     1       9.758   3.063  23.482  0.00  0.00    +0.389 C 
ATOM     20  C   UNL     1       9.151   4.209  24.139  0.00  0.00    +0.133 C 
ATOM     21  C   UNL     1      10.147   5.086  24.072  0.00  0.00    +0.099 C 
ATOM     22  N   UNL     1      11.252   4.589  23.434  0.00  0.00    -0.039 NA
ATOM     23  N   UNL     1      11.037   3.396  23.095  0.00  0.00    +0.084 NA
BRANCH  21  24
ATOM     24  C   UNL     1      10.175   6.457  24.575  0.00  0.00    +0.042 C 
ATOM     25  C   UNL     1      11.370   6.934  25.360  0.00  0.00    +0.010 C 
ATOM     26  C   UNL     1      10.063   6.707  26.061  0.00  0.00    +0.010 C 
ENDBRANCH  21  24
ENDBRANCH  17  18
ENDBRANCH   1  17
TORSDOF 5
ENDMDL
