MODEL 1
REMARK VINA RESULT:      -7.8      0.000      0.000
REMARK  Name = 
REMARK  6 active torsions:
REMARK  status: ('A' for Active; 'I' for Inactive)
REMARK    1  A    between atoms: C_1  and  O_2
REMARK    2  A    between atoms: O_2  and  C_3
REMARK    3  A    between atoms: C_4  and  C_22
REMARK    4  A    between atoms: C_6  and  C_9
REMARK    5  A    between atoms: C_16  and  C_19
REMARK    6  A    between atoms: C_19  and  O_20
REMARK                            x       y       z     vdW  Elec       q    Type
REMARK                         _______ _______ _______ _____ _____    ______ ____
ROOT
ATOM      1  C   UNL     1       5.602  -5.328  23.282  0.00  0.00    +0.124 A 
ATOM      2  C   UNL     1       6.053  -4.911  22.021  0.00  0.00    +0.046 A 
ATOM      3  C   UNL     1       6.808  -3.752  21.867  0.00  0.00    +0.012 A 
ATOM      4  C   UNL     1       7.141  -2.958  22.966  0.00  0.00    -0.017 A 
ATOM      5  C   UNL     1       6.677  -3.392  24.227  0.00  0.00    +0.016 A 
ATOM      6  C   UNL     1       5.909  -4.573  24.436  0.00  0.00    +0.001 A 
ENDROOT
BRANCH   4   7
ATOM      7  C   UNL     1       7.906  -1.699  22.789  0.00  0.00    -0.017 A 
ATOM      8  C   UNL     1       8.899  -1.565  21.806  0.00  0.00    +0.009 A 
ATOM      9  C   UNL     1       9.659  -0.395  21.687  0.00  0.00    +0.009 A 
ATOM     10  C   UNL     1       9.471   0.677  22.568  0.00  0.00    -0.017 A 
ATOM     11  C   UNL     1      10.263   1.837  22.500  0.00  0.00    +0.023 A 
ATOM     12  C   UNL     1      10.071   2.881  23.416  0.00  0.00    +0.059 A 
ATOM     13  C   UNL     1       9.100   2.761  24.416  0.00  0.00    +0.015 A 
ATOM     14  C   UNL     1       8.302   1.620  24.480  0.00  0.00    +0.009 A 
ATOM     15  C   UNL     1       8.476   0.572  23.563  0.00  0.00    -0.017 A 
ATOM     16  C   UNL     1       7.697  -0.596  23.641  0.00  0.00    +0.017 A 
BRANCH  12  17
ATOM     17  C   UNL     1      10.914   4.102  23.410  0.00  0.00    +0.337 C 
ATOM     18  O   UNL     1      12.132   4.065  23.396  0.00  0.00    -0.245 OA
BRANCH  17  19
ATOM     19  O   UNL     1      10.210   5.251  23.466  0.00  0.00    -0.477 OA
ATOM     20  H   UNL     1       9.512   5.275  24.146  0.00  0.00    +0.295 HD
ENDBRANCH  17  19
ENDBRANCH  12  17
ENDBRANCH   4   7
BRANCH   6  21
ATOM     21  C   UNL     1       5.413  -4.904  25.876  0.00  0.00    -0.000 C 
ATOM     22  C   UNL     1       6.314  -4.238  26.978  0.00  0.00    +0.015 C 
ATOM     23  C   UNL     1       5.778  -4.485  28.398  0.00  0.00    -0.010 C 
ATOM     24  C   UNL     1       4.357  -3.909  28.501  0.00  0.00    +0.007 C 
ATOM     25  C   UNL     1       3.439  -4.595  27.477  0.00  0.00    -0.010 C 
ATOM     26  C   UNL     1       3.419  -6.105  27.762  0.00  0.00    +0.007 C 
ATOM     27  C   UNL     1       4.842  -6.677  27.657  0.00  0.00    -0.010 C 
ATOM     28  C   UNL     1       5.750  -5.988  28.678  0.00  0.00    +0.007 C 
ATOM     29  C   UNL     1       3.972  -4.344  26.051  0.00  0.00    +0.015 C 
ATOM     30  C   UNL     1       5.372  -6.426  26.234  0.00  0.00    +0.015 C 
ENDBRANCH   6  21
BRANCH   1  32
ATOM     31  C   UNL     1       3.418  -6.218  23.016  0.00  0.00    +0.277 C 
ATOM     32  O   UNL     1       4.779  -6.417  23.389  0.00  0.00    -0.495 OA
ENDBRANCH   1  32
TORSDOF 5
ENDMDL
MODEL 2
REMARK VINA RESULT:      -7.8      1.786      3.307
REMARK  Name = 
REMARK  6 active torsions:
REMARK  status: ('A' for Active; 'I' for Inactive)
REMARK    1  A    between atoms: C_1  and  O_2
REMARK    2  A    between atoms: O_2  and  C_3
REMARK    3  A    between atoms: C_4  and  C_22
REMARK    4  A    between atoms: C_6  and  C_9
REMARK    5  A    between atoms: C_16  and  C_19
REMARK    6  A    between atoms: C_19  and  O_20
REMARK                            x       y       z     vdW  Elec       q    Type
REMARK                         _______ _______ _______ _____ _____    ______ ____
ROOT
ATOM      1  C   UNL     1       6.370  -5.700  26.722  0.00  0.00    +0.124 A 
ATOM      2  C   UNL     1       7.640  -5.279  27.143  0.00  0.00    +0.046 A 
ATOM      3  C   UNL     1       8.243  -4.144  26.609  0.00  0.00    +0.012 A 
ATOM      4  C   UNL     1       7.605  -3.385  25.627  0.00  0.00    -0.017 A 
ATOM      5  C   UNL     1       6.329  -3.824  25.212  0.00  0.00    +0.016 A 
ATOM      6  C   UNL     1       5.668  -4.973  25.734  0.00  0.00    +0.001 A 
ENDROOT
BRANCH   4   7
ATOM      7  C   UNL     1       8.274  -2.203  25.028  0.00  0.00    -0.017 A 
ATOM      8  C   UNL     1       9.403  -2.327  24.203  0.00  0.00    +0.009 A 
ATOM      9  C   UNL     1      10.065  -1.204  23.693  0.00  0.00    +0.009 A 
ATOM     10  C   UNL     1       9.634   0.091  24.011  0.00  0.00    -0.017 A 
ATOM     11  C   UNL     1      10.320   1.230  23.554  0.00  0.00    +0.023 A 
ATOM     12  C   UNL     1       9.883   2.512  23.916  0.00  0.00    +0.059 A 
ATOM     13  C   UNL     1       8.770   2.659  24.752  0.00  0.00    +0.015 A 
ATOM     14  C   UNL     1       8.079   1.534  25.197  0.00  0.00    +0.009 A 
ATOM     15  C   UNL     1       8.499   0.246  24.834  0.00  0.00    -0.017 A 
ATOM     16  C   UNL     1       7.826  -0.896  25.305  0.00  0.00    +0.017 A 
BRANCH  12  17
ATOM     17  C   UNL     1      10.602   3.740  23.495  0.00  0.00    +0.337 C 
ATOM     18  O   UNL     1      11.812   3.782  23.353  0.00  0.00    -0.245 OA
BRANCH  17  19
ATOM     19  O   UNL     1       9.800   4.812  23.328  0.00  0.00    -0.477 OA
ATOM     20  H   UNL     1       9.410   4.901  22.440  0.00  0.00    +0.295 HD
ENDBRANCH  17  19
ENDBRANCH  12  17
ENDBRANCH   4   7
BRANCH   6  21
ATOM     21  C   UNL     1       4.283  -5.377  25.145  0.00  0.00    -0.000 C 
ATOM     22  C   UNL     1       4.225  -6.902  24.767  0.00  0.00    +0.015 C 
ATOM     23  C   UNL     1       2.834  -7.329  24.271  0.00  0.00    -0.010 C 
ATOM     24  C   UNL     1       1.804  -7.050  25.378  0.00  0.00    +0.007 C 
ATOM     25  C   UNL     1       1.793  -5.551  25.718  0.00  0.00    -0.010 C 
ATOM     26  C   UNL     1       1.435  -4.758  24.452  0.00  0.00    +0.007 C 
ATOM     27  C   UNL     1       2.468  -5.038  23.348  0.00  0.00    -0.010 C 
ATOM     28  C   UNL     1       2.474  -6.532  23.016  0.00  0.00    +0.007 C 
ATOM     29  C   UNL     1       3.188  -5.123  26.221  0.00  0.00    +0.015 C 
ATOM     30  C   UNL     1       3.858  -4.610  23.851  0.00  0.00    +0.015 C 
ENDBRANCH   6  21
BRANCH   1  32
ATOM     31  C   UNL     1       5.367  -6.856  28.536  0.00  0.00    +0.277 C 
ATOM     32  O   UNL     1       5.846  -6.874  27.193  0.00  0.00    -0.495 OA
ENDBRANCH   1  32
TORSDOF 5
ENDMDL
MODEL 3
REMARK VINA RESULT:      -7.7      2.335      9.234
REMARK  Name = 
REMARK  6 active torsions:
REMARK  status: ('A' for Active; 'I' for Inactive)
REMARK    1  A    between atoms: C_1  and  O_2
REMARK    2  A    between atoms: O_2  and  C_3
REMARK    3  A    between atoms: C_4  and  C_22
REMARK    4  A    between atoms: C_6  and  C_9
REMARK    5  A    between atoms: C_16  and  C_19
REMARK    6  A    between atoms: C_19  and  O_20
REMARK                            x       y       z     vdW  Elec       q    Type
REMARK                         _______ _______ _______ _____ _____    ______ ____
ROOT
ATOM      1  C   UNL     1       9.647  -0.635  23.500  0.00  0.00    +0.124 A 
ATOM      2  C   UNL     1      10.041  -1.977  23.606  0.00  0.00    +0.046 A 
ATOM      3  C   UNL     1       9.121  -2.984  23.880  0.00  0.00    +0.012 A 
ATOM      4  C   UNL     1       7.769  -2.693  24.067  0.00  0.00    -0.017 A 
ATOM      5  C   UNL     1       7.390  -1.337  23.961  0.00  0.00    +0.016 A 
ATOM      6  C   UNL     1       8.292  -0.273  23.673  0.00  0.00    +0.001 A 
ENDROOT
BRANCH   4   7
ATOM      7  C   UNL     1       6.801  -3.765  24.407  0.00  0.00    -0.017 A 
ATOM      8  C   UNL     1       7.006  -4.637  25.488  0.00  0.00    +0.009 A 
ATOM      9  C   UNL     1       6.120  -5.685  25.763  0.00  0.00    +0.009 A 
ATOM     10  C   UNL     1       5.004  -5.916  24.947  0.00  0.00    -0.017 A 
ATOM     11  C   UNL     1       4.135  -6.998  25.175  0.00  0.00    +0.023 A 
ATOM     12  C   UNL     1       3.045  -7.221  24.322  0.00  0.00    +0.059 A 
ATOM     13  C   UNL     1       2.832  -6.377  23.227  0.00  0.00    +0.015 A 
ATOM     14  C   UNL     1       3.682  -5.295  23.005  0.00  0.00    +0.009 A 
ATOM     15  C   UNL     1       4.770  -5.053  23.856  0.00  0.00    -0.017 A 
ATOM     16  C   UNL     1       5.652  -3.984  23.620  0.00  0.00    +0.017 A 
BRANCH  12  17
ATOM     17  C   UNL     1       2.129  -8.376  24.497  0.00  0.00    +0.337 C 
ATOM     18  O   UNL     1       0.996  -8.396  24.046  0.00  0.00    -0.245 OA
BRANCH  17  19
ATOM     19  O   UNL     1       2.649  -9.378  25.235  0.00  0.00    -0.477 OA
ATOM     20  H   UNL     1       2.281  -9.464  26.133  0.00  0.00    +0.295 HD
ENDBRANCH  17  19
ENDBRANCH  12  17
ENDBRANCH   4   7
BRANCH   6  21
ATOM     21  C   UNL     1       7.749   1.188  23.640  0.00  0.00    -0.000 C 
ATOM     22  C   UNL     1       8.146   1.934  22.315  0.00  0.00    +0.015 C 
ATOM     23  C   UNL     1       7.537   3.344  22.234  0.00  0.00    -0.010 C 
ATOM     24  C   UNL     1       6.006   3.229  22.303  0.00  0.00    +0.007 C 
ATOM     25  C   UNL     1       5.589   2.562  23.623  0.00  0.00    -0.010 C 
ATOM     26  C   UNL     1       6.107   3.412  24.793  0.00  0.00    +0.007 C 
ATOM     27  C   UNL     1       7.639   3.523  24.722  0.00  0.00    -0.010 C 
ATOM     28  C   UNL     1       8.046   4.187  23.404  0.00  0.00    +0.007 C 
ATOM     29  C   UNL     1       6.195   1.145  23.703  0.00  0.00    +0.015 C 
ATOM     30  C   UNL     1       8.242   2.109  24.802  0.00  0.00    +0.015 C 
ENDBRANCH   6  21
BRANCH   1  32
ATOM     31  C   UNL     1      11.325   0.722  24.488  0.00  0.00    +0.277 C 
ATOM     32  O   UNL     1      10.589   0.344  23.328  0.00  0.00    -0.495 OA
ENDBRANCH   1  32
TORSDOF 5
ENDMDL
MODEL 4
REMARK VINA RESULT:      -7.5      2.180      9.168
REMARK  Name = 
REMARK  6 active torsions:
REMARK  status: ('A' for Active; 'I' for Inactive)
REMARK    1  A    between atoms: C_1  and  O_2
REMARK    2  A    between atoms: O_2  and  C_3
REMARK    3  A    between atoms: C_4  and  C_22
REMARK    4  A    between atoms: C_6  and  C_9
REMARK    5  A    between atoms: C_16  and  C_19
REMARK    6  A    between atoms: C_19  and  O_20
REMARK                            x       y       z     vdW  Elec       q    Type
REMARK                         _______ _______ _______ _____ _____    ______ ____
ROOT
ATOM      1  C   UNL     1       9.680  -0.269  23.387  0.00  0.00    +0.124 A 
ATOM      2  C   UNL     1      10.060  -1.619  23.349  0.00  0.00    +0.046 A 
ATOM      3  C   UNL     1       9.116  -2.640  23.382  0.00  0.00    +0.012 A 
ATOM      4  C   UNL     1       7.751  -2.357  23.462  0.00  0.00    -0.017 A 
ATOM      5  C   UNL     1       7.387  -0.993  23.503  0.00  0.00    +0.016 A 
ATOM      6  C   UNL     1       8.315   0.086  23.463  0.00  0.00    +0.001 A 
ENDROOT
BRANCH   4   7
ATOM      7  C   UNL     1       6.752  -3.450  23.545  0.00  0.00    -0.017 A 
ATOM      8  C   UNL     1       5.816  -3.681  22.524  0.00  0.00    +0.009 A 
ATOM      9  C   UNL     1       4.837  -4.675  22.638  0.00  0.00    +0.009 A 
ATOM     10  C   UNL     1       4.740  -5.460  23.795  0.00  0.00    -0.017 A 
ATOM     11  C   UNL     1       3.729  -6.424  23.951  0.00  0.00    +0.023 A 
ATOM     12  C   UNL     1       3.639  -7.171  25.133  0.00  0.00    +0.059 A 
ATOM     13  C   UNL     1       4.549  -6.945  26.172  0.00  0.00    +0.015 A 
ATOM     14  C   UNL     1       5.563  -6.001  26.017  0.00  0.00    +0.009 A 
ATOM     15  C   UNL     1       5.671  -5.253  24.836  0.00  0.00    -0.017 A 
ATOM     16  C   UNL     1       6.670  -4.276  24.685  0.00  0.00    +0.017 A 
BRANCH  12  17
ATOM     17  C   UNL     1       2.561  -8.166  25.360  0.00  0.00    +0.337 C 
ATOM     18  O   UNL     1       2.227  -8.983  24.519  0.00  0.00    -0.245 OA
BRANCH  17  19
ATOM     19  O   UNL     1       1.958  -8.052  26.561  0.00  0.00    -0.477 OA
ATOM     20  H   UNL     1       1.481  -7.217  26.707  0.00  0.00    +0.295 HD
ENDBRANCH  17  19
ENDBRANCH  12  17
ENDBRANCH   4   7
BRANCH   6  21
ATOM     21  C   UNL     1       7.778   1.546  23.573  0.00  0.00    -0.000 C 
ATOM     22  C   UNL     1       8.096   2.389  22.285  0.00  0.00    +0.015 C 
ATOM     23  C   UNL     1       7.491   3.802  22.348  0.00  0.00    -0.010 C 
ATOM     24  C   UNL     1       5.966   3.683  22.504  0.00  0.00    +0.007 C 
ATOM     25  C   UNL     1       5.629   2.920  23.794  0.00  0.00    -0.010 C 
ATOM     26  C   UNL     1       6.224   3.680  24.990  0.00  0.00    +0.007 C 
ATOM     27  C   UNL     1       7.749   3.794  24.831  0.00  0.00    -0.010 C 
ATOM     28  C   UNL     1       8.077   4.554  23.543  0.00  0.00    +0.007 C 
ATOM     29  C   UNL     1       6.231   1.501  23.730  0.00  0.00    +0.015 C 
ATOM     30  C   UNL     1       8.348   2.378  24.767  0.00  0.00    +0.015 C 
ENDBRANCH   6  21
BRANCH   1  32
ATOM     31  C   UNL     1      11.443   0.726  24.627  0.00  0.00    +0.277 C 
ATOM     32  O   UNL     1      10.636   0.710  23.452  0.00  0.00    -0.495 OA
ENDBRANCH   1  32
TORSDOF 5
ENDMDL
MODEL 5
REMARK VINA RESULT:      -7.4      2.410      9.075
REMARK  Name = 
REMARK  6 active torsions:
REMARK  status: ('A' for Active; 'I' for Inactive)
REMARK    1  A    between atoms: C_1  and  O_2
REMARK    2  A    between atoms: O_2  and  C_3
REMARK    3  A    between atoms: C_4  and  C_22
REMARK    4  A    between atoms: C_6  and  C_9
REMARK    5  A    between atoms: C_16  and  C_19
REMARK    6  A    between atoms: C_19  and  O_20
REMARK                            x       y       z     vdW  Elec       q    Type
REMARK                         _______ _______ _______ _____ _____    ______ ____
ROOT
ATOM      1  C   UNL     1       9.220   0.917  22.207  0.00  0.00    +0.124 A 
ATOM      2  C   UNL     1       9.777  -0.325  21.867  0.00  0.00    +0.046 A 
ATOM      3  C   UNL     1       9.090  -1.514  22.089  0.00  0.00    +0.012 A 
ATOM      4  C   UNL     1       7.819  -1.514  22.667  0.00  0.00    -0.017 A 
ATOM      5  C   UNL     1       7.275  -0.257  23.006  0.00  0.00    +0.016 A 
ATOM      6  C   UNL     1       7.935   0.987  22.791  0.00  0.00    +0.001 A 
ENDROOT
BRANCH   4   7
ATOM      7  C   UNL     1       7.111  -2.789  22.945  0.00  0.00    -0.017 A 
ATOM      8  C   UNL     1       7.643  -4.032  22.567  0.00  0.00    +0.009 A 
ATOM      9  C   UNL     1       6.940  -5.224  22.777  0.00  0.00    +0.009 A 
ATOM     10  C   UNL     1       5.662  -5.214  23.351  0.00  0.00    -0.017 A 
ATOM     11  C   UNL     1       4.919  -6.395  23.519  0.00  0.00    +0.023 A 
ATOM     12  C   UNL     1       3.630  -6.348  24.068  0.00  0.00    +0.059 A 
ATOM     13  C   UNL     1       3.072  -5.118  24.434  0.00  0.00    +0.015 A 
ATOM     14  C   UNL     1       3.810  -3.946  24.284  0.00  0.00    +0.009 A 
ATOM     15  C   UNL     1       5.105  -3.979  23.746  0.00  0.00    -0.017 A 
ATOM     16  C   UNL     1       5.844  -2.797  23.561  0.00  0.00    +0.017 A 
BRANCH  12  17
ATOM     17  C   UNL     1       2.791  -7.563  24.219  0.00  0.00    +0.337 C 
ATOM     18  O   UNL     1       1.841  -7.807  23.495  0.00  0.00    -0.245 OA
BRANCH  17  19
ATOM     19  O   UNL     1       3.149  -8.347  25.257  0.00  0.00    -0.477 OA
ATOM     20  H   UNL     1       2.532  -9.074  25.457  0.00  0.00    +0.295 HD
ENDBRANCH  17  19
ENDBRANCH  12  17
ENDBRANCH   4   7
BRANCH   6  21
ATOM     21  C   UNL     1       7.243   2.300  23.266  0.00  0.00    -0.000 C 
ATOM     22  C   UNL     1       7.313   3.431  22.176  0.00  0.00    +0.015 C 
ATOM     23  C   UNL     1       6.553   4.699  22.601  0.00  0.00    -0.010 C 
ATOM     24  C   UNL     1       5.080   4.336  22.849  0.00  0.00    +0.007 C 
ATOM     25  C   UNL     1       4.982   3.279  23.961  0.00  0.00    -0.010 C 
ATOM     26  C   UNL     1       5.609   3.848  25.243  0.00  0.00    +0.007 C 
ATOM     27  C   UNL     1       7.082   4.208  24.990  0.00  0.00    -0.010 C 
ATOM     28  C   UNL     1       7.172   5.259  23.881  0.00  0.00    +0.007 C 
ATOM     29  C   UNL     1       5.739   2.005  23.534  0.00  0.00    +0.015 C 
ATOM     30  C   UNL     1       7.836   2.935  24.565  0.00  0.00    +0.015 C 
ENDBRANCH   6  21
BRANCH   1  32
ATOM     31  C   UNL     1      10.852   2.369  23.136  0.00  0.00    +0.277 C 
ATOM     32  O   UNL     1       9.960   2.061  22.067  0.00  0.00    -0.495 OA
ENDBRANCH   1  32
TORSDOF 5
ENDMDL
MODEL 6
REMARK VINA RESULT:      -7.4      1.233      2.312
REMARK  Name = 
REMARK  6 active torsions:
REMARK  status: ('A' for Active; 'I' for Inactive)
REMARK    1  A    between atoms: C_1  and  O_2
REMARK    2  A    between atoms: O_2  and  C_3
REMARK    3  A    between atoms: C_4  and  C_22
REMARK    4  A    between atoms: C_6  and  C_9
REMARK    5  A    between atoms: C_16  and  C_19
REMARK    6  A    between atoms: C_19  and  O_20
REMARK                            x       y       z     vdW  Elec       q    Type
REMARK                         _______ _______ _______ _____ _____    ______ ____
ROOT
ATOM      1  C   UNL     1       6.876  -4.362  23.188  0.00  0.00    +0.124 A 
ATOM      2  C   UNL     1       7.648  -3.637  22.269  0.00  0.00    +0.046 A 
ATOM      3  C   UNL     1       7.985  -2.306  22.496  0.00  0.00    +0.012 A 
ATOM      4  C   UNL     1       7.561  -1.641  23.647  0.00  0.00    -0.017 A 
ATOM      5  C   UNL     1       6.782  -2.386  24.560  0.00  0.00    +0.016 A 
ATOM      6  C   UNL     1       6.418  -3.751  24.376  0.00  0.00    +0.001 A 
ENDROOT
BRANCH   4   7
ATOM      7  C   UNL     1       7.884  -0.209  23.861  0.00  0.00    -0.017 A 
ATOM      8  C   UNL     1       6.922   0.710  24.310  0.00  0.00    +0.009 A 
ATOM      9  C   UNL     1       7.219   2.072  24.449  0.00  0.00    +0.009 A 
ATOM     10  C   UNL     1       8.486   2.569  24.116  0.00  0.00    -0.017 A 
ATOM     11  C   UNL     1       8.784   3.941  24.196  0.00  0.00    +0.023 A 
ATOM     12  C   UNL     1      10.051   4.412  23.826  0.00  0.00    +0.059 A 
ATOM     13  C   UNL     1      11.019   3.517  23.357  0.00  0.00    +0.015 A 
ATOM     14  C   UNL     1      10.734   2.154  23.290  0.00  0.00    +0.009 A 
ATOM     15  C   UNL     1       9.473   1.667  23.667  0.00  0.00    -0.017 A 
ATOM     16  C   UNL     1       9.166   0.299  23.571  0.00  0.00    +0.017 A 
BRANCH  12  17
ATOM     17  C   UNL     1      10.396   5.856  23.850  0.00  0.00    +0.337 C 
ATOM     18  O   UNL     1       9.575   6.735  23.651  0.00  0.00    -0.245 OA
BRANCH  17  19
ATOM     19  O   UNL     1      11.704   6.101  24.067  0.00  0.00    -0.477 OA
ATOM     20  H   UNL     1      11.893   6.910  24.574  0.00  0.00    +0.295 HD
ENDBRANCH  17  19
ENDBRANCH  12  17
ENDBRANCH   4   7
BRANCH   6  21
ATOM     21  C   UNL     1       5.505  -4.437  25.438  0.00  0.00    -0.000 C 
ATOM     22  C   UNL     1       6.159  -5.741  26.023  0.00  0.00    +0.015 C 
ATOM     23  C   UNL     1       5.306  -6.373  27.136  0.00  0.00    -0.010 C 
ATOM     24  C   UNL     1       5.132  -5.350  28.270  0.00  0.00    +0.007 C 
ATOM     25  C   UNL     1       4.431  -4.091  27.736  0.00  0.00    -0.010 C 
ATOM     26  C   UNL     1       3.060  -4.488  27.168  0.00  0.00    +0.007 C 
ATOM     27  C   UNL     1       3.240  -5.510  26.033  0.00  0.00    -0.010 C 
ATOM     28  C   UNL     1       3.939  -6.760  26.572  0.00  0.00    +0.007 C 
ATOM     29  C   UNL     1       5.289  -3.452  26.623  0.00  0.00    +0.015 C 
ATOM     30  C   UNL     1       4.095  -4.872  24.923  0.00  0.00    +0.015 C 
ENDBRANCH   6  21
BRANCH   1  32
ATOM     31  C   UNL     1       6.381  -5.963  21.506  0.00  0.00    +0.277 C 
ATOM     32  O   UNL     1       6.477  -5.639  22.891  0.00  0.00    -0.495 OA
ENDBRANCH   1  32
TORSDOF 5
ENDMDL
MODEL 7
REMARK VINA RESULT:      -7.3      2.485      9.379
REMARK  Name = 
REMARK  6 active torsions:
REMARK  status: ('A' for Active; 'I' for Inactive)
REMARK    1  A    between atoms: C_1  and  O_2
REMARK    2  A    between atoms: O_2  and  C_3
REMARK    3  A    between atoms: C_4  and  C_22
REMARK    4  A    between atoms: C_6  and  C_9
REMARK    5  A    between atoms: C_16  and  C_19
REMARK    6  A    between atoms: C_19  and  O_20
REMARK                            x       y       z     vdW  Elec       q    Type
REMARK                         _______ _______ _______ _____ _____    ______ ____
ROOT
ATOM      1  C   UNL     1      10.017   3.011  23.699  0.00  0.00    +0.124 A 
ATOM      2  C   UNL     1      10.873   1.900  23.712  0.00  0.00    +0.046 A 
ATOM      3  C   UNL     1      10.380   0.606  23.848  0.00  0.00    +0.012 A 
ATOM      4  C   UNL     1       9.011   0.367  23.982  0.00  0.00    -0.017 A 
ATOM      5  C   UNL     1       8.165   1.497  23.970  0.00  0.00    +0.016 A 
ATOM      6  C   UNL     1       8.620   2.839  23.825  0.00  0.00    +0.001 A 
ENDROOT
BRANCH   4   7
ATOM      7  C   UNL     1       8.496  -1.011  24.175  0.00  0.00    -0.017 A 
ATOM      8  C   UNL     1       9.345  -2.129  24.174  0.00  0.00    +0.009 A 
ATOM      9  C   UNL     1       8.844  -3.431  24.293  0.00  0.00    +0.009 A 
ATOM     10  C   UNL     1       7.466  -3.664  24.392  0.00  0.00    -0.017 A 
ATOM     11  C   UNL     1       6.940  -4.967  24.456  0.00  0.00    +0.023 A 
ATOM     12  C   UNL     1       5.555  -5.169  24.521  0.00  0.00    +0.059 A 
ATOM     13  C   UNL     1       4.688  -4.070  24.504  0.00  0.00    +0.015 A 
ATOM     14  C   UNL     1       5.204  -2.776  24.456  0.00  0.00    +0.009 A 
ATOM     15  C   UNL     1       6.588  -2.559  24.400  0.00  0.00    -0.017 A 
ATOM     16  C   UNL     1       7.115  -1.258  24.317  0.00  0.00    +0.017 A 
BRANCH  12  17
ATOM     17  C   UNL     1       4.954  -6.526  24.544  0.00  0.00    +0.337 C 
ATOM     18  O   UNL     1       4.532  -7.046  25.562  0.00  0.00    -0.245 OA
BRANCH  17  19
ATOM     19  O   UNL     1       4.959  -7.144  23.345  0.00  0.00    -0.477 OA
ATOM     20  H   UNL     1       5.753  -7.676  23.158  0.00  0.00    +0.295 HD
ENDBRANCH  17  19
ENDBRANCH  12  17
ENDBRANCH   4   7
BRANCH   6  21
ATOM     21  C   UNL     1       7.581   3.999  23.884  0.00  0.00    -0.000 C 
ATOM     22  C   UNL     1       7.474   4.766  22.517  0.00  0.00    +0.015 C 
ATOM     23  C   UNL     1       6.386   5.852  22.540  0.00  0.00    -0.010 C 
ATOM     24  C   UNL     1       5.032   5.193  22.849  0.00  0.00    +0.007 C 
ATOM     25  C   UNL     1       5.091   4.493  24.215  0.00  0.00    -0.010 C 
ATOM     26  C   UNL     1       5.428   5.535  25.293  0.00  0.00    +0.007 C 
ATOM     27  C   UNL     1       6.784   6.190  24.981  0.00  0.00    -0.010 C 
ATOM     28  C   UNL     1       6.719   6.884  23.618  0.00  0.00    +0.007 C 
ATOM     29  C   UNL     1       6.178   3.399  24.192  0.00  0.00    +0.015 C 
ATOM     30  C   UNL     1       7.868   5.098  24.958  0.00  0.00    +0.015 C 
ENDBRANCH   6  21
BRANCH   1  32
ATOM     31  C   UNL     1      11.916   4.382  23.309  0.00  0.00    +0.277 C 
ATOM     32  O   UNL     1      10.539   4.277  23.663  0.00  0.00    -0.495 OA
ENDBRANCH   1  32
TORSDOF 5
ENDMDL
MODEL 8
REMARK VINA RESULT:      -7.2      1.305      2.577
REMARK  Name = 
REMARK  6 active torsions:
REMARK  status: ('A' for Active; 'I' for Inactive)
REMARK    1  A    between atoms: C_1  and  O_2
REMARK    2  A    between atoms: O_2  and  C_3
REMARK    3  A    between atoms: C_4  and  C_22
REMARK    4  A    between atoms: C_6  and  C_9
REMARK    5  A    between atoms: C_16  and  C_19
REMARK    6  A    between atoms: C_19  and  O_20
REMARK                            x       y       z     vdW  Elec       q    Type
REMARK                         _______ _______ _______ _____ _____    ______ ____
ROOT
ATOM      1  C   UNL     1       6.957  -4.438  23.132  0.00  0.00    +0.124 A 
ATOM      2  C   UNL     1       7.800  -3.717  22.274  0.00  0.00    +0.046 A 
ATOM      3  C   UNL     1       8.089  -2.375  22.499  0.00  0.00    +0.012 A 
ATOM      4  C   UNL     1       7.541  -1.693  23.588  0.00  0.00    -0.017 A 
ATOM      5  C   UNL     1       6.692  -2.433  24.439  0.00  0.00    +0.016 A 
ATOM      6  C   UNL     1       6.374  -3.809  24.255  0.00  0.00    +0.001 A 
ENDROOT
BRANCH   4   7
ATOM      7  C   UNL     1       7.814  -0.250  23.795  0.00  0.00    -0.017 A 
ATOM      8  C   UNL     1       6.799   0.657  24.140  0.00  0.00    +0.009 A 
ATOM      9  C   UNL     1       7.053   2.027  24.273  0.00  0.00    +0.009 A 
ATOM     10  C   UNL     1       8.333   2.546  24.039  0.00  0.00    -0.017 A 
ATOM     11  C   UNL     1       8.595   3.926  24.113  0.00  0.00    +0.023 A 
ATOM     12  C   UNL     1       9.879   4.419  23.841  0.00  0.00    +0.059 A 
ATOM     13  C   UNL     1      10.902   3.536  23.477  0.00  0.00    +0.015 A 
ATOM     14  C   UNL     1      10.652   2.166  23.416  0.00  0.00    +0.009 A 
ATOM     15  C   UNL     1       9.374   1.659  23.695  0.00  0.00    -0.017 A 
ATOM     16  C   UNL     1       9.106   0.281  23.604  0.00  0.00    +0.017 A 
BRANCH  12  17
ATOM     17  C   UNL     1      10.189   5.870  23.862  0.00  0.00    +0.337 C 
ATOM     18  O   UNL     1      11.280   6.309  24.183  0.00  0.00    -0.245 OA
BRANCH  17  19
ATOM     19  O   UNL     1       9.143   6.656  23.535  0.00  0.00    -0.477 OA
ATOM     20  H   UNL     1       9.229   7.589  23.799  0.00  0.00    +0.295 HD
ENDBRANCH  17  19
ENDBRANCH  12  17
ENDBRANCH   4   7
BRANCH   6  21
ATOM     21  C   UNL     1       5.376  -4.490  25.241  0.00  0.00    -0.000 C 
ATOM     22  C   UNL     1       4.117  -5.068  24.499  0.00  0.00    +0.015 C 
ATOM     23  C   UNL     1       3.173  -5.821  25.451  0.00  0.00    -0.010 C 
ATOM     24  C   UNL     1       3.944  -6.980  26.102  0.00  0.00    +0.007 C 
ATOM     25  C   UNL     1       5.143  -6.433  26.892  0.00  0.00    -0.010 C 
ATOM     26  C   UNL     1       4.628  -5.469  27.972  0.00  0.00    +0.007 C 
ATOM     27  C   UNL     1       3.859  -4.311  27.315  0.00  0.00    -0.010 C 
ATOM     28  C   UNL     1       2.668  -4.863  26.530  0.00  0.00    +0.007 C 
ATOM     29  C   UNL     1       6.095  -5.682  25.937  0.00  0.00    +0.015 C 
ATOM     30  C   UNL     1       4.809  -3.562  26.363  0.00  0.00    +0.015 C 
ENDBRANCH   6  21
BRANCH   1  32
ATOM     31  C   UNL     1       6.177  -5.969  21.494  0.00  0.00    +0.277 C 
ATOM     32  O   UNL     1       6.613  -5.729  22.830  0.00  0.00    -0.495 OA
ENDBRANCH   1  32
TORSDOF 5
ENDMDL
MODEL 9
REMARK VINA RESULT:      -7.2      2.146      4.006
REMARK  Name = 
REMARK  6 active torsions:
REMARK  status: ('A' for Active; 'I' for Inactive)
REMARK    1  A    between atoms: C_1  and  O_2
REMARK    2  A    between atoms: O_2  and  C_3
REMARK    3  A    between atoms: C_4  and  C_22
REMARK    4  A    between atoms: C_6  and  C_9
REMARK    5  A    between atoms: C_16  and  C_19
REMARK    6  A    between atoms: C_19  and  O_20
REMARK                            x       y       z     vdW  Elec       q    Type
REMARK                         _______ _______ _______ _____ _____    ______ ____
ROOT
ATOM      1  C   UNL     1       4.727  -1.138  25.939  0.00  0.00    +0.124 A 
ATOM      2  C   UNL     1       4.925   0.191  26.343  0.00  0.00    +0.046 A 
ATOM      3  C   UNL     1       5.982   0.950  25.850  0.00  0.00    +0.012 A 
ATOM      4  C   UNL     1       6.891   0.412  24.938  0.00  0.00    -0.017 A 
ATOM      5  C   UNL     1       6.679  -0.928  24.545  0.00  0.00    +0.016 A 
ATOM      6  C   UNL     1       5.609  -1.741  25.014  0.00  0.00    +0.001 A 
ENDROOT
BRANCH   4   7
ATOM      7  C   UNL     1       8.044   1.210  24.453  0.00  0.00    -0.017 A 
ATOM      8  C   UNL     1       9.180   0.608  23.890  0.00  0.00    +0.009 A 
ATOM      9  C   UNL     1      10.289   1.365  23.492  0.00  0.00    +0.009 A 
ATOM     10  C   UNL     1      10.312   2.755  23.669  0.00  0.00    -0.017 A 
ATOM     11  C   UNL     1      11.439   3.524  23.328  0.00  0.00    +0.023 A 
ATOM     12  C   UNL     1      11.444   4.908  23.547  0.00  0.00    +0.059 A 
ATOM     13  C   UNL     1      10.330   5.527  24.125  0.00  0.00    +0.015 A 
ATOM     14  C   UNL     1       9.205   4.772  24.452  0.00  0.00    +0.009 A 
ATOM     15  C   UNL     1       9.182   3.387  24.229  0.00  0.00    -0.017 A 
ATOM     16  C   UNL     1       8.064   2.614  24.586  0.00  0.00    +0.017 A 
BRANCH  12  17
ATOM     17  C   UNL     1      12.627   5.752  23.246  0.00  0.00    +0.337 C 
ATOM     18  O   UNL     1      13.288   5.626  22.229  0.00  0.00    -0.245 OA
BRANCH  17  19
ATOM     19  O   UNL     1      12.928   6.637  24.218  0.00  0.00    -0.477 OA
ATOM     20  H   UNL     1      12.561   7.530  24.091  0.00  0.00    +0.295 HD
ENDBRANCH  17  19
ENDBRANCH  12  17
ENDBRANCH   4   7
BRANCH   6  21
ATOM     21  C   UNL     1       5.525  -3.224  24.540  0.00  0.00    -0.000 C 
ATOM     22  C   UNL     1       6.450  -3.500  23.300  0.00  0.00    +0.015 C 
ATOM     23  C   UNL     1       6.443  -4.981  22.884  0.00  0.00    -0.010 C 
ATOM     24  C   UNL     1       6.929  -5.832  24.068  0.00  0.00    +0.007 C 
ATOM     25  C   UNL     1       5.998  -5.631  25.274  0.00  0.00    -0.010 C 
ATOM     26  C   UNL     1       4.573  -6.045  24.875  0.00  0.00    +0.007 C 
ATOM     27  C   UNL     1       4.091  -5.190  23.692  0.00  0.00    -0.010 C 
ATOM     28  C   UNL     1       5.024  -5.394  22.496  0.00  0.00    +0.007 C 
ATOM     29  C   UNL     1       6.009  -4.147  25.696  0.00  0.00    +0.015 C 
ATOM     30  C   UNL     1       4.101  -3.710  24.115  0.00  0.00    +0.015 C 
ENDBRANCH   6  21
BRANCH   1  32
ATOM     31  C   UNL     1       3.618  -1.795  27.932  0.00  0.00    +0.277 C 
ATOM     32  O   UNL     1       3.738  -1.889  26.515  0.00  0.00    -0.495 OA
ENDBRANCH   1  32
TORSDOF 5
ENDMDL
