MODEL 1
REMARK VINA RESULT:      -8.0      0.000      0.000
REMARK  Name = 
REMARK  14 active torsions:
REMARK  status: ('A' for Active; 'I' for Inactive)
REMARK    1  A    between atoms: C_1  and  C_2
REMARK    2  A    between atoms: C_2  and  C_3
REMARK    3  A    between atoms: C_2  and  C_4
REMARK    4  A    between atoms: C_2  and  C_5
REMARK    5  A    between atoms: C_8  and  C_11
REMARK    6  A    between atoms: C_11  and  O_12
REMARK    7  A    between atoms: C_11  and  C_13
REMARK    8  A    between atoms: C_13  and  C_14
REMARK    9  A    between atoms: C_14  and  C_15
REMARK   10  A    between atoms: C_15  and  N_16
REMARK   11  A    between atoms: C_19  and  C_22
REMARK   12  A    between atoms: C_22  and  O_23
REMARK   13  A    between atoms: C_22  and  C_24
REMARK   14  A    between atoms: C_22  and  C_30
REMARK                            x       y       z     vdW  Elec       q    Type
REMARK                         _______ _______ _______ _____ _____    ______ ____
ROOT
ATOM      1  N   UNL     1       8.770  -1.508  23.626  0.00  0.00    -0.302 NA
ATOM      2  C   UNL     1       8.801  -0.831  22.323  0.00  0.00    +0.085 C 
ATOM      3  C   UNL     1      10.028   0.052  22.117  0.00  0.00    +0.022 C 
ATOM      4  C   UNL     1      10.233   1.104  23.237  0.00  0.00    +0.032 C 
ATOM      5  C   UNL     1      10.162   0.360  24.587  0.00  0.00    +0.022 C 
ATOM      6  C   UNL     1       8.945  -0.556  24.730  0.00  0.00    +0.085 C 
ENDROOT
BRANCH   1   7
ATOM      7  C   UNL     1       9.697  -2.647  23.691  0.00  0.00    +0.084 C 
BRANCH   7   8
ATOM      8  C   UNL     1       9.415  -3.553  24.897  0.00  0.00    +0.018 C 
BRANCH   8   9
ATOM      9  C   UNL     1       8.405  -4.674  24.631  0.00  0.00    +0.037 C 
BRANCH   9  10
ATOM     10  C   UNL     1       7.510  -5.022  25.834  0.00  0.00    +0.145 C 
BRANCH  10  14
ATOM     11  C   UNL     1       3.611  -6.465  24.611  0.00  0.00    -0.042 A 
ATOM     12  C   UNL     1       4.477  -5.857  23.685  0.00  0.00    +0.004 A 
ATOM     13  C   UNL     1       5.750  -5.427  24.057  0.00  0.00    +0.006 A 
ATOM     14  C   UNL     1       6.198  -5.601  25.373  0.00  0.00    -0.019 A 
ATOM     15  C   UNL     1       5.381  -6.280  26.279  0.00  0.00    +0.006 A 
ATOM     16  C   UNL     1       4.108  -6.707  25.902  0.00  0.00    +0.004 A 
BRANCH  11  18
ATOM     17  C   UNL     1       1.953  -8.285  23.875  0.00  0.00    +0.015 C 
ATOM     18  C   UNL     1       2.168  -6.792  24.208  0.00  0.00    -0.013 C 
ATOM     19  C   UNL     1       1.225  -6.448  25.384  0.00  0.00    +0.015 C 
ATOM     20  C   UNL     1       1.761  -5.970  22.970  0.00  0.00    +0.015 C 
ENDBRANCH  11  18
ENDBRANCH  10  14
BRANCH  10  21
ATOM     21  O   UNL     1       8.102  -5.947  26.737  0.00  0.00    -0.387 OA
ATOM     22  H   UNL     1       8.927  -6.256  26.325  0.00  0.00    +0.210 HD
ENDBRANCH  10  21
ENDBRANCH   9  10
ENDBRANCH   8   9
ENDBRANCH   7   8
ENDBRANCH   1   7
BRANCH   4  23
ATOM     23  C   UNL     1       9.294   2.381  23.142  0.00  0.00    +0.119 C 
BRANCH  23  24
ATOM     24  C   UNL     1      10.121   3.639  23.474  0.00  0.00    -0.011 A 
ATOM     25  C   UNL     1      11.522   3.635  23.332  0.00  0.00    +0.007 A 
ATOM     26  C   UNL     1      12.263   4.812  23.460  0.00  0.00    +0.000 A 
ATOM     27  C   UNL     1      11.621   6.013  23.747  0.00  0.00    +0.000 A 
ATOM     28  C   UNL     1      10.243   6.034  23.937  0.00  0.00    +0.000 A 
ATOM     29  C   UNL     1       9.500   4.857  23.811  0.00  0.00    +0.007 A 
ENDBRANCH  23  24
BRANCH  23  30
ATOM     30  C   UNL     1       8.029   2.311  24.035  0.00  0.00    -0.011 A 
ATOM     31  C   UNL     1       6.788   1.927  23.484  0.00  0.00    +0.007 A 
ATOM     32  C   UNL     1       5.629   1.875  24.262  0.00  0.00    +0.000 A 
ATOM     33  C   UNL     1       5.674   2.234  25.605  0.00  0.00    +0.000 A 
ATOM     34  C   UNL     1       6.880   2.630  26.171  0.00  0.00    +0.000 A 
ATOM     35  C   UNL     1       8.044   2.668  25.397  0.00  0.00    +0.007 A 
ENDBRANCH  23  30
BRANCH  23  36
ATOM     36  O   UNL     1       8.851   2.485  21.780  0.00  0.00    -0.379 OA
ATOM     37  H   UNL     1       8.313   1.701  21.586  0.00  0.00    +0.211 HD
ENDBRANCH  23  36
ENDBRANCH   4  23
TORSDOF 11
ENDMDL
MODEL 2
REMARK VINA RESULT:      -7.7      2.217      8.124
REMARK  Name = 
REMARK  14 active torsions:
REMARK  status: ('A' for Active; 'I' for Inactive)
REMARK    1  A    between atoms: C_1  and  C_2
REMARK    2  A    between atoms: C_2  and  C_3
REMARK    3  A    between atoms: C_2  and  C_4
REMARK    4  A    between atoms: C_2  and  C_5
REMARK    5  A    between atoms: C_8  and  C_11
REMARK    6  A    between atoms: C_11  and  O_12
REMARK    7  A    between atoms: C_11  and  C_13
REMARK    8  A    between atoms: C_13  and  C_14
REMARK    9  A    between atoms: C_14  and  C_15
REMARK   10  A    between atoms: C_15  and  N_16
REMARK   11  A    between atoms: C_19  and  C_22
REMARK   12  A    between atoms: C_22  and  O_23
REMARK   13  A    between atoms: C_22  and  C_24
REMARK   14  A    between atoms: C_22  and  C_30
REMARK                            x       y       z     vdW  Elec       q    Type
REMARK                         _______ _______ _______ _____ _____    ______ ____
ROOT
ATOM      1  N   UNL     1       9.848  -0.974  22.923  0.00  0.00    -0.302 NA
ATOM      2  C   UNL     1       8.857  -1.830  22.258  0.00  0.00    +0.085 C 
ATOM      3  C   UNL     1       7.445  -1.684  22.816  0.00  0.00    +0.022 C 
ATOM      4  C   UNL     1       7.354  -1.904  24.348  0.00  0.00    +0.032 C 
ATOM      5  C   UNL     1       8.429  -1.014  25.006  0.00  0.00    +0.022 C 
ATOM      6  C   UNL     1       9.819  -1.151  24.380  0.00  0.00    +0.085 C 
ENDROOT
BRANCH   1   7
ATOM      7  C   UNL     1       9.745   0.433  22.508  0.00  0.00    +0.084 C 
BRANCH   7   8
ATOM      8  C   UNL     1      10.532   1.368  23.438  0.00  0.00    +0.018 C 
BRANCH   8   9
ATOM      9  C   UNL     1      10.045   2.821  23.442  0.00  0.00    +0.037 C 
BRANCH   9  10
ATOM     10  C   UNL     1       8.587   3.004  22.980  0.00  0.00    +0.145 C 
BRANCH  10  14
ATOM     11  C   UNL     1       5.952   1.871  26.228  0.00  0.00    -0.042 A 
ATOM     12  C   UNL     1       7.057   2.711  26.457  0.00  0.00    +0.004 A 
ATOM     13  C   UNL     1       7.887   3.116  25.412  0.00  0.00    +0.006 A 
ATOM     14  C   UNL     1       7.630   2.696  24.101  0.00  0.00    -0.019 A 
ATOM     15  C   UNL     1       6.488   1.933  23.849  0.00  0.00    +0.006 A 
ATOM     16  C   UNL     1       5.661   1.530  24.898  0.00  0.00    +0.004 A 
BRANCH  11  18
ATOM     17  C   UNL     1       4.505   2.436  28.275  0.00  0.00    +0.015 C 
ATOM     18  C   UNL     1       5.147   1.326  27.415  0.00  0.00    -0.013 C 
ATOM     19  C   UNL     1       3.996   0.442  26.881  0.00  0.00    +0.015 C 
ATOM     20  C   UNL     1       6.055   0.484  28.332  0.00  0.00    +0.015 C 
ENDBRANCH  11  18
ENDBRANCH  10  14
BRANCH  10  21
ATOM     21  O   UNL     1       8.300   4.314  22.508  0.00  0.00    -0.387 OA
ATOM     22  H   UNL     1       9.098   4.850  22.658  0.00  0.00    +0.210 HD
ENDBRANCH  10  21
ENDBRANCH   9  10
ENDBRANCH   8   9
ENDBRANCH   7   8
ENDBRANCH   1   7
BRANCH   4  23
ATOM     23  C   UNL     1       7.385  -3.421  24.813  0.00  0.00    +0.119 C 
BRANCH  23  24
ATOM     24  C   UNL     1       6.862  -4.310  23.666  0.00  0.00    -0.011 A 
ATOM     25  C   UNL     1       7.734  -5.166  22.966  0.00  0.00    +0.007 A 
ATOM     26  C   UNL     1       7.246  -6.099  22.049  0.00  0.00    +0.000 A 
ATOM     27  C   UNL     1       5.879  -6.185  21.801  0.00  0.00    +0.000 A 
ATOM     28  C   UNL     1       5.002  -5.319  22.446  0.00  0.00    +0.000 A 
ATOM     29  C   UNL     1       5.489  -4.384  23.363  0.00  0.00    +0.007 A 
ENDBRANCH  23  24
BRANCH  23  30
ATOM     30  C   UNL     1       6.603  -3.705  26.120  0.00  0.00    -0.011 A 
ATOM     31  C   UNL     1       6.844  -4.887  26.852  0.00  0.00    +0.007 A 
ATOM     32  C   UNL     1       6.138  -5.177  28.024  0.00  0.00    +0.000 A 
ATOM     33  C   UNL     1       5.154  -4.306  28.478  0.00  0.00    +0.000 A 
ATOM     34  C   UNL     1       4.886  -3.141  27.769  0.00  0.00    +0.000 A 
ATOM     35  C   UNL     1       5.601  -2.843  26.604  0.00  0.00    +0.007 A 
ENDBRANCH  23  30
BRANCH  23  36
ATOM     36  O   UNL     1       8.759  -3.767  25.052  0.00  0.00    -0.379 OA
ATOM     37  H   UNL     1       8.922  -3.677  26.005  0.00  0.00    +0.211 HD
ENDBRANCH  23  36
ENDBRANCH   4  23
TORSDOF 11
ENDMDL
MODEL 3
REMARK VINA RESULT:      -7.7      2.312      8.461
REMARK  Name = 
REMARK  14 active torsions:
REMARK  status: ('A' for Active; 'I' for Inactive)
REMARK    1  A    between atoms: C_1  and  C_2
REMARK    2  A    between atoms: C_2  and  C_3
REMARK    3  A    between atoms: C_2  and  C_4
REMARK    4  A    between atoms: C_2  and  C_5
REMARK    5  A    between atoms: C_8  and  C_11
REMARK    6  A    between atoms: C_11  and  O_12
REMARK    7  A    between atoms: C_11  and  C_13
REMARK    8  A    between atoms: C_13  and  C_14
REMARK    9  A    between atoms: C_14  and  C_15
REMARK   10  A    between atoms: C_15  and  N_16
REMARK   11  A    between atoms: C_19  and  C_22
REMARK   12  A    between atoms: C_22  and  O_23
REMARK   13  A    between atoms: C_22  and  C_24
REMARK   14  A    between atoms: C_22  and  C_30
REMARK                            x       y       z     vdW  Elec       q    Type
REMARK                         _______ _______ _______ _____ _____    ______ ____
ROOT
ATOM      1  N   UNL     1       9.187  -3.436  23.810  0.00  0.00    -0.302 NA
ATOM      2  C   UNL     1       7.852  -3.578  23.218  0.00  0.00    +0.085 C 
ATOM      3  C   UNL     1       6.761  -2.820  23.968  0.00  0.00    +0.022 C 
ATOM      4  C   UNL     1       6.684  -3.171  25.476  0.00  0.00    +0.032 C 
ATOM      5  C   UNL     1       8.109  -3.042  26.054  0.00  0.00    +0.022 C 
ATOM      6  C   UNL     1       9.180  -3.772  25.239  0.00  0.00    +0.085 C 
ENDROOT
BRANCH   1   7
ATOM      7  C   UNL     1       9.794  -2.128  23.526  0.00  0.00    +0.084 C 
BRANCH   7   8
ATOM      8  C   UNL     1       9.454  -1.627  22.115  0.00  0.00    +0.018 C 
BRANCH   8   9
ATOM      9  C   UNL     1      10.040  -0.255  21.766  0.00  0.00    +0.037 C 
BRANCH   9  10
ATOM     10  C   UNL     1       8.998   0.874  21.667  0.00  0.00    +0.145 C 
BRANCH  10  14
ATOM     11  C   UNL     1       6.755   0.943  25.375  0.00  0.00    -0.042 A 
ATOM     12  C   UNL     1       8.134   1.221  25.361  0.00  0.00    +0.004 A 
ATOM     13  C   UNL     1       8.857   1.244  24.170  0.00  0.00    +0.006 A 
ATOM     14  C   UNL     1       8.217   0.994  22.949  0.00  0.00    -0.019 A 
ATOM     15  C   UNL     1       6.834   0.801  22.941  0.00  0.00    +0.006 A 
ATOM     16  C   UNL     1       6.115   0.779  24.136  0.00  0.00    +0.004 A 
BRANCH  11  18
ATOM     17  C   UNL     1       5.425   2.104  27.242  0.00  0.00    +0.015 C 
ATOM     18  C   UNL     1       6.020   0.781  26.711  0.00  0.00    -0.013 C 
ATOM     19  C   UNL     1       4.843  -0.203  26.524  0.00  0.00    +0.015 C 
ATOM     20  C   UNL     1       6.980   0.232  27.784  0.00  0.00    +0.015 C 
ENDBRANCH  11  18
ENDBRANCH  10  14
BRANCH  10  21
ATOM     21  O   UNL     1       9.562   2.147  21.380  0.00  0.00    -0.387 OA
ATOM     22  H   UNL     1       9.443   2.300  20.427  0.00  0.00    +0.210 HD
ENDBRANCH  10  21
ENDBRANCH   9  10
ENDBRANCH   8   9
ENDBRANCH   7   8
ENDBRANCH   1   7
BRANCH   4  23
ATOM     23  C   UNL     1       5.964  -4.545  25.811  0.00  0.00    +0.119 C 
BRANCH  23  24
ATOM     24  C   UNL     1       4.750  -4.719  24.876  0.00  0.00    -0.011 A 
ATOM     25  C   UNL     1       4.755  -5.703  23.868  0.00  0.00    +0.007 A 
ATOM     26  C   UNL     1       3.603  -5.986  23.131  0.00  0.00    +0.000 A 
ATOM     27  C   UNL     1       2.428  -5.283  23.376  0.00  0.00    +0.000 A 
ATOM     28  C   UNL     1       2.410  -4.275  24.336  0.00  0.00    +0.000 A 
ATOM     29  C   UNL     1       3.562  -3.989  25.072  0.00  0.00    +0.007 A 
ENDBRANCH  23  24
BRANCH  23  30
ATOM     30  C   UNL     1       5.534  -4.697  27.292  0.00  0.00    -0.011 A 
ATOM     31  C   UNL     1       5.703  -5.928  27.961  0.00  0.00    +0.007 A 
ATOM     32  C   UNL     1       5.305  -6.097  29.290  0.00  0.00    +0.000 A 
ATOM     33  C   UNL     1       4.703  -5.048  29.976  0.00  0.00    +0.000 A 
ATOM     34  C   UNL     1       4.511  -3.829  29.338  0.00  0.00    +0.000 A 
ATOM     35  C   UNL     1       4.922  -3.654  28.013  0.00  0.00    +0.007 A 
ENDBRANCH  23  30
BRANCH  23  36
ATOM     36  O   UNL     1       6.898  -5.598  25.527  0.00  0.00    -0.379 OA
ATOM     37  H   UNL     1       6.408  -6.319  25.100  0.00  0.00    +0.211 HD
ENDBRANCH  23  36
ENDBRANCH   4  23
TORSDOF 11
ENDMDL
MODEL 4
REMARK VINA RESULT:      -7.6      2.461      4.762
REMARK  Name = 
REMARK  14 active torsions:
REMARK  status: ('A' for Active; 'I' for Inactive)
REMARK    1  A    between atoms: C_1  and  C_2
REMARK    2  A    between atoms: C_2  and  C_3
REMARK    3  A    between atoms: C_2  and  C_4
REMARK    4  A    between atoms: C_2  and  C_5
REMARK    5  A    between atoms: C_8  and  C_11
REMARK    6  A    between atoms: C_11  and  O_12
REMARK    7  A    between atoms: C_11  and  C_13
REMARK    8  A    between atoms: C_13  and  C_14
REMARK    9  A    between atoms: C_14  and  C_15
REMARK   10  A    between atoms: C_15  and  N_16
REMARK   11  A    between atoms: C_19  and  C_22
REMARK   12  A    between atoms: C_22  and  O_23
REMARK   13  A    between atoms: C_22  and  C_24
REMARK   14  A    between atoms: C_22  and  C_30
REMARK                            x       y       z     vdW  Elec       q    Type
REMARK                         _______ _______ _______ _____ _____    ______ ____
ROOT
ATOM      1  N   UNL     1       5.355  -0.876  27.170  0.00  0.00    -0.302 NA
ATOM      2  C   UNL     1       5.585   0.573  27.212  0.00  0.00    +0.085 C 
ATOM      3  C   UNL     1       5.333   1.275  25.881  0.00  0.00    +0.022 C 
ATOM      4  C   UNL     1       6.134   0.673  24.699  0.00  0.00    +0.032 C 
ATOM      5  C   UNL     1       5.894  -0.851  24.708  0.00  0.00    +0.022 C 
ATOM      6  C   UNL     1       6.103  -1.507  26.075  0.00  0.00    +0.085 C 
ENDROOT
BRANCH   1   7
ATOM      7  C   UNL     1       3.927  -1.221  27.169  0.00  0.00    +0.084 C 
BRANCH   7   8
ATOM      8  C   UNL     1       3.659  -2.580  27.830  0.00  0.00    +0.018 C 
BRANCH   8   9
ATOM      9  C   UNL     1       2.405  -3.300  27.324  0.00  0.00    +0.037 C 
BRANCH   9  10
ATOM     10  C   UNL     1       2.636  -4.766  26.912  0.00  0.00    +0.145 C 
BRANCH  10  14
ATOM     11  C   UNL     1       5.815  -4.793  23.967  0.00  0.00    -0.042 A 
ATOM     12  C   UNL     1       5.952  -5.488  25.181  0.00  0.00    +0.004 A 
ATOM     13  C   UNL     1       4.920  -5.522  26.118  0.00  0.00    +0.006 A 
ATOM     14  C   UNL     1       3.711  -4.862  25.862  0.00  0.00    -0.019 A 
ATOM     15  C   UNL     1       3.532  -4.240  24.625  0.00  0.00    +0.006 A 
ATOM     16  C   UNL     1       4.568  -4.209  23.691  0.00  0.00    +0.004 A 
BRANCH  11  18
ATOM     17  C   UNL     1       7.019  -3.324  22.235  0.00  0.00    +0.015 C 
ATOM     18  C   UNL     1       7.017  -4.652  23.025  0.00  0.00    -0.013 C 
ATOM     19  C   UNL     1       8.319  -4.685  23.859  0.00  0.00    +0.015 C 
ATOM     20  C   UNL     1       7.033  -5.807  22.006  0.00  0.00    +0.015 C 
ENDBRANCH  11  18
ENDBRANCH  10  14
BRANCH  10  21
ATOM     21  O   UNL     1       3.006  -5.610  27.995  0.00  0.00    -0.387 OA
ATOM     22  H   UNL     1       3.967  -5.514  28.113  0.00  0.00    +0.210 HD
ENDBRANCH  10  21
ENDBRANCH   9  10
ENDBRANCH   8   9
ENDBRANCH   7   8
ENDBRANCH   1   7
BRANCH   4  23
ATOM     23  C   UNL     1       7.663   1.094  24.637  0.00  0.00    +0.119 C 
BRANCH  23  24
ATOM     24  C   UNL     1       7.764   2.552  24.142  0.00  0.00    -0.011 A 
ATOM     25  C   UNL     1       8.872   3.351  24.485  0.00  0.00    +0.007 A 
ATOM     26  C   UNL     1       9.062   4.607  23.905  0.00  0.00    +0.000 A 
ATOM     27  C   UNL     1       8.141   5.096  22.984  0.00  0.00    +0.000 A 
ATOM     28  C   UNL     1       7.015   4.344  22.663  0.00  0.00    +0.000 A 
ATOM     29  C   UNL     1       6.823   3.088  23.243  0.00  0.00    +0.007 A 
ENDBRANCH  23  24
BRANCH  23  30
ATOM     30  C   UNL     1       8.548   0.164  23.768  0.00  0.00    -0.011 A 
ATOM     31  C   UNL     1       9.372  -0.807  24.376  0.00  0.00    +0.007 A 
ATOM     32  C   UNL     1      10.194  -1.645  23.618  0.00  0.00    +0.000 A 
ATOM     33  C   UNL     1      10.234  -1.515  22.234  0.00  0.00    +0.000 A 
ATOM     34  C   UNL     1       9.443  -0.559  21.609  0.00  0.00    +0.000 A 
ATOM     35  C   UNL     1       8.609   0.271  22.366  0.00  0.00    +0.007 A 
ENDBRANCH  23  30
BRANCH  23  36
ATOM     36  O   UNL     1       8.176   1.043  25.977  0.00  0.00    -0.379 OA
ATOM     37  H   UNL     1       7.526   0.571  26.522  0.00  0.00    +0.211 HD
ENDBRANCH  23  36
ENDBRANCH   4  23
TORSDOF 11
ENDMDL
MODEL 5
REMARK VINA RESULT:      -7.6      1.820      2.948
REMARK  Name = 
REMARK  14 active torsions:
REMARK  status: ('A' for Active; 'I' for Inactive)
REMARK    1  A    between atoms: C_1  and  C_2
REMARK    2  A    between atoms: C_2  and  C_3
REMARK    3  A    between atoms: C_2  and  C_4
REMARK    4  A    between atoms: C_2  and  C_5
REMARK    5  A    between atoms: C_8  and  C_11
REMARK    6  A    between atoms: C_11  and  O_12
REMARK    7  A    between atoms: C_11  and  C_13
REMARK    8  A    between atoms: C_13  and  C_14
REMARK    9  A    between atoms: C_14  and  C_15
REMARK   10  A    between atoms: C_15  and  N_16
REMARK   11  A    between atoms: C_19  and  C_22
REMARK   12  A    between atoms: C_22  and  O_23
REMARK   13  A    between atoms: C_22  and  C_24
REMARK   14  A    between atoms: C_22  and  C_30
REMARK                            x       y       z     vdW  Elec       q    Type
REMARK                         _______ _______ _______ _____ _____    ______ ____
ROOT
ATOM      1  N   UNL     1       8.253  -0.065  23.306  0.00  0.00    -0.302 NA
ATOM      2  C   UNL     1       9.531   0.638  23.476  0.00  0.00    +0.085 C 
ATOM      3  C   UNL     1       9.525   1.660  24.609  0.00  0.00    +0.022 C 
ATOM      4  C   UNL     1       8.387   2.706  24.497  0.00  0.00    +0.032 C 
ATOM      5  C   UNL     1       7.069   1.932  24.287  0.00  0.00    +0.022 C 
ATOM      6  C   UNL     1       7.135   0.878  23.179  0.00  0.00    +0.085 C 
ENDROOT
BRANCH   1   7
ATOM      7  C   UNL     1       8.032  -1.090  24.335  0.00  0.00    +0.084 C 
BRANCH   7   8
ATOM      8  C   UNL     1       9.335  -1.791  24.742  0.00  0.00    +0.018 C 
BRANCH   8   9
ATOM      9  C   UNL     1       9.501  -3.207  24.179  0.00  0.00    +0.037 C 
BRANCH   9  10
ATOM     10  C   UNL     1       9.439  -4.324  25.237  0.00  0.00    +0.145 C 
BRANCH  10  14
ATOM     11  C   UNL     1       5.382  -5.582  26.096  0.00  0.00    -0.042 A 
ATOM     12  C   UNL     1       6.320  -5.419  27.131  0.00  0.00    +0.004 A 
ATOM     13  C   UNL     1       7.615  -4.974  26.871  0.00  0.00    +0.006 A 
ATOM     14  C   UNL     1       8.010  -4.671  25.562  0.00  0.00    -0.019 A 
ATOM     15  C   UNL     1       7.063  -4.747  24.538  0.00  0.00    +0.006 A 
ATOM     16  C   UNL     1       5.769  -5.194  24.803  0.00  0.00    +0.004 A 
BRANCH  11  18
ATOM     17  C   UNL     1       2.846  -5.209  26.274  0.00  0.00    +0.015 C 
ATOM     18  C   UNL     1       4.015  -6.211  26.394  0.00  0.00    -0.013 C 
ATOM     19  C   UNL     1       3.748  -7.345  25.376  0.00  0.00    +0.015 C 
ATOM     20  C   UNL     1       3.996  -6.791  27.821  0.00  0.00    +0.015 C 
ENDBRANCH  11  18
ENDBRANCH  10  14
BRANCH  10  21
ATOM     21  O   UNL     1      10.101  -5.519  24.843  0.00  0.00    -0.387 OA
ATOM     22  H   UNL     1       9.456  -6.241  24.933  0.00  0.00    +0.210 HD
ENDBRANCH  10  21
ENDBRANCH   9  10
ENDBRANCH   8   9
ENDBRANCH   7   8
ENDBRANCH   1   7
BRANCH   4  23
ATOM     23  C   UNL     1       8.640   3.867  23.445  0.00  0.00    +0.119 C 
BRANCH  23  24
ATOM     24  C   UNL     1       9.996   4.536  23.749  0.00  0.00    -0.011 A 
ATOM     25  C   UNL     1      11.188   4.022  23.203  0.00  0.00    +0.007 A 
ATOM     26  C   UNL     1      12.394   4.714  23.327  0.00  0.00    +0.000 A 
ATOM     27  C   UNL     1      12.437   5.925  24.011  0.00  0.00    +0.000 A 
ATOM     28  C   UNL     1      11.281   6.430  24.598  0.00  0.00    +0.000 A 
ATOM     29  C   UNL     1      10.074   5.738  24.477  0.00  0.00    +0.007 A 
ENDBRANCH  23  24
BRANCH  23  30
ATOM     30  C   UNL     1       7.513   4.929  23.382  0.00  0.00    -0.011 A 
ATOM     31  C   UNL     1       6.694   5.166  24.507  0.00  0.00    +0.007 A 
ATOM     32  C   UNL     1       5.658   6.104  24.471  0.00  0.00    +0.000 A 
ATOM     33  C   UNL     1       5.396   6.808  23.302  0.00  0.00    +0.000 A 
ATOM     34  C   UNL     1       6.178   6.586  22.174  0.00  0.00    +0.000 A 
ATOM     35  C   UNL     1       7.224   5.658  22.213  0.00  0.00    +0.007 A 
ENDBRANCH  23  30
BRANCH  23  36
ATOM     36  O   UNL     1       8.725   3.257  22.148  0.00  0.00    -0.379 OA
ATOM     37  H   UNL     1       8.012   3.626  21.602  0.00  0.00    +0.211 HD
ENDBRANCH  23  36
ENDBRANCH   4  23
TORSDOF 11
ENDMDL
MODEL 6
REMARK VINA RESULT:      -7.6      2.674      4.644
REMARK  Name = 
REMARK  14 active torsions:
REMARK  status: ('A' for Active; 'I' for Inactive)
REMARK    1  A    between atoms: C_1  and  C_2
REMARK    2  A    between atoms: C_2  and  C_3
REMARK    3  A    between atoms: C_2  and  C_4
REMARK    4  A    between atoms: C_2  and  C_5
REMARK    5  A    between atoms: C_8  and  C_11
REMARK    6  A    between atoms: C_11  and  O_12
REMARK    7  A    between atoms: C_11  and  C_13
REMARK    8  A    between atoms: C_13  and  C_14
REMARK    9  A    between atoms: C_14  and  C_15
REMARK   10  A    between atoms: C_15  and  N_16
REMARK   11  A    between atoms: C_19  and  C_22
REMARK   12  A    between atoms: C_22  and  O_23
REMARK   13  A    between atoms: C_22  and  C_24
REMARK   14  A    between atoms: C_22  and  C_30
REMARK                            x       y       z     vdW  Elec       q    Type
REMARK                         _______ _______ _______ _____ _____    ______ ____
ROOT
ATOM      1  N   UNL     1       4.384  -1.794  27.026  0.00  0.00    -0.302 NA
ATOM      2  C   UNL     1       5.125  -2.312  25.869  0.00  0.00    +0.085 C 
ATOM      3  C   UNL     1       6.625  -2.040  25.927  0.00  0.00    +0.022 C 
ATOM      4  C   UNL     1       6.979  -0.543  26.123  0.00  0.00    +0.032 C 
ATOM      5  C   UNL     1       6.158  -0.028  27.324  0.00  0.00    +0.022 C 
ATOM      6  C   UNL     1       4.668  -0.371  27.253  0.00  0.00    +0.085 C 
ENDROOT
BRANCH   1   7
ATOM      7  C   UNL     1       4.566  -2.619  28.228  0.00  0.00    +0.084 C 
BRANCH   7   8
ATOM      8  C   UNL     1       3.841  -3.967  28.120  0.00  0.00    +0.018 C 
BRANCH   8   9
ATOM      9  C   UNL     1       4.641  -5.166  28.639  0.00  0.00    +0.037 C 
BRANCH   9  10
ATOM     10  C   UNL     1       4.631  -6.390  27.705  0.00  0.00    +0.145 C 
BRANCH  10  14
ATOM     11  C   UNL     1       6.322  -5.161  23.909  0.00  0.00    -0.042 A 
ATOM     12  C   UNL     1       7.127  -5.258  25.059  0.00  0.00    +0.004 A 
ATOM     13  C   UNL     1       6.603  -5.693  26.275  0.00  0.00    +0.006 A 
ATOM     14  C   UNL     1       5.252  -6.052  26.376  0.00  0.00    -0.019 A 
ATOM     15  C   UNL     1       4.465  -6.041  25.223  0.00  0.00    +0.006 A 
ATOM     16  C   UNL     1       4.993  -5.604  24.008  0.00  0.00    +0.004 A 
BRANCH  11  18
ATOM     17  C   UNL     1       5.936  -3.522  21.968  0.00  0.00    +0.015 C 
ATOM     18  C   UNL     1       6.892  -4.541  22.627  0.00  0.00    -0.013 C 
ATOM     19  C   UNL     1       8.197  -3.786  22.967  0.00  0.00    +0.015 C 
ATOM     20  C   UNL     1       7.193  -5.642  21.592  0.00  0.00    +0.015 C 
ENDBRANCH  11  18
ENDBRANCH  10  14
BRANCH  10  21
ATOM     21  O   UNL     1       5.318  -7.517  28.234  0.00  0.00    -0.387 OA
ATOM     22  H   UNL     1       5.009  -8.295  27.739  0.00  0.00    +0.210 HD
ENDBRANCH  10  21
ENDBRANCH   9  10
ENDBRANCH   8   9
ENDBRANCH   7   8
ENDBRANCH   1   7
BRANCH   4  23
ATOM     23  C   UNL     1       6.862   0.353  24.818  0.00  0.00    +0.119 C 
BRANCH  23  24
ATOM     24  C   UNL     1       8.085   0.090  23.916  0.00  0.00    -0.011 A 
ATOM     25  C   UNL     1       9.285  -0.408  24.461  0.00  0.00    +0.007 A 
ATOM     26  C   UNL     1      10.337  -0.814  23.637  0.00  0.00    +0.000 A 
ATOM     27  C   UNL     1      10.218  -0.716  22.254  0.00  0.00    +0.000 A 
ATOM     28  C   UNL     1       9.060  -0.184  21.694  0.00  0.00    +0.000 A 
ATOM     29  C   UNL     1       8.008   0.223  22.517  0.00  0.00    +0.007 A 
ENDBRANCH  23  24
BRANCH  23  30
ATOM     30  C   UNL     1       6.709   1.870  25.096  0.00  0.00    -0.011 A 
ATOM     31  C   UNL     1       5.487   2.523  24.831  0.00  0.00    +0.007 A 
ATOM     32  C   UNL     1       5.328   3.894  25.054  0.00  0.00    +0.000 A 
ATOM     33  C   UNL     1       6.396   4.652  25.520  0.00  0.00    +0.000 A 
ATOM     34  C   UNL     1       7.616   4.038  25.777  0.00  0.00    +0.000 A 
ATOM     35  C   UNL     1       7.772   2.663  25.568  0.00  0.00    +0.007 A 
ENDBRANCH  23  30
BRANCH  23  36
ATOM     36  O   UNL     1       5.687  -0.073  24.110  0.00  0.00    -0.379 OA
ATOM     37  H   UNL     1       5.110   0.700  24.008  0.00  0.00    +0.211 HD
ENDBRANCH  23  36
ENDBRANCH   4  23
TORSDOF 11
ENDMDL
MODEL 7
REMARK VINA RESULT:      -7.6      2.725      5.163
REMARK  Name = 
REMARK  14 active torsions:
REMARK  status: ('A' for Active; 'I' for Inactive)
REMARK    1  A    between atoms: C_1  and  C_2
REMARK    2  A    between atoms: C_2  and  C_3
REMARK    3  A    between atoms: C_2  and  C_4
REMARK    4  A    between atoms: C_2  and  C_5
REMARK    5  A    between atoms: C_8  and  C_11
REMARK    6  A    between atoms: C_11  and  O_12
REMARK    7  A    between atoms: C_11  and  C_13
REMARK    8  A    between atoms: C_13  and  C_14
REMARK    9  A    between atoms: C_14  and  C_15
REMARK   10  A    between atoms: C_15  and  N_16
REMARK   11  A    between atoms: C_19  and  C_22
REMARK   12  A    between atoms: C_22  and  O_23
REMARK   13  A    between atoms: C_22  and  C_24
REMARK   14  A    between atoms: C_22  and  C_30
REMARK                            x       y       z     vdW  Elec       q    Type
REMARK                         _______ _______ _______ _____ _____    ______ ____
ROOT
ATOM      1  N   UNL     1       9.055  -4.245  24.303  0.00  0.00    -0.302 NA
ATOM      2  C   UNL     1       9.058  -4.129  25.767  0.00  0.00    +0.085 C 
ATOM      3  C   UNL     1       7.735  -3.640  26.348  0.00  0.00    +0.022 C 
ATOM      4  C   UNL     1       7.244  -2.302  25.738  0.00  0.00    +0.032 C 
ATOM      5  C   UNL     1       7.286  -2.453  24.203  0.00  0.00    +0.022 C 
ATOM      6  C   UNL     1       8.611  -2.999  23.667  0.00  0.00    +0.085 C 
ENDROOT
BRANCH   1   7
ATOM      7  C   UNL     1       8.322  -5.429  23.833  0.00  0.00    +0.084 C 
BRANCH   7   8
ATOM      8  C   UNL     1       7.546  -5.152  22.538  0.00  0.00    +0.018 C 
BRANCH   8   9
ATOM      9  C   UNL     1       6.296  -6.017  22.345  0.00  0.00    +0.037 C 
BRANCH   9  10
ATOM     10  C   UNL     1       4.969  -5.289  22.628  0.00  0.00    +0.145 C 
BRANCH  10  14
ATOM     11  C   UNL     1       4.391  -5.168  26.921  0.00  0.00    -0.042 A 
ATOM     12  C   UNL     1       4.005  -4.085  26.111  0.00  0.00    +0.004 A 
ATOM     13  C   UNL     1       4.147  -4.130  24.725  0.00  0.00    +0.006 A 
ATOM     14  C   UNL     1       4.676  -5.269  24.104  0.00  0.00    -0.019 A 
ATOM     15  C   UNL     1       4.983  -6.382  24.890  0.00  0.00    +0.006 A 
ATOM     16  C   UNL     1       4.840  -6.332  26.276  0.00  0.00    +0.004 A 
BRANCH  11  18
ATOM     17  C   UNL     1       4.155  -3.576  28.924  0.00  0.00    +0.015 C 
ATOM     18  C   UNL     1       4.359  -5.031  28.448  0.00  0.00    -0.013 C 
ATOM     19  C   UNL     1       3.178  -5.860  29.005  0.00  0.00    +0.015 C 
ATOM     20  C   UNL     1       5.677  -5.546  29.056  0.00  0.00    +0.015 C 
ENDBRANCH  11  18
ENDBRANCH  10  14
BRANCH  10  21
ATOM     21  O   UNL     1       4.944  -3.948  22.158  0.00  0.00    -0.387 OA
ATOM     22  H   UNL     1       5.839  -3.588  22.283  0.00  0.00    +0.210 HD
ENDBRANCH  10  21
ENDBRANCH   9  10
ENDBRANCH   8   9
ENDBRANCH   7   8
ENDBRANCH   1   7
BRANCH   4  23
ATOM     23  C   UNL     1       7.970  -1.003  26.289  0.00  0.00    +0.119 C 
BRANCH  23  24
ATOM     24  C   UNL     1       6.976  -0.198  27.150  0.00  0.00    -0.011 A 
ATOM     25  C   UNL     1       5.605  -0.520  27.154  0.00  0.00    +0.007 A 
ATOM     26  C   UNL     1       4.726   0.083  28.056  0.00  0.00    +0.000 A 
ATOM     27  C   UNL     1       5.195   1.031  28.960  0.00  0.00    +0.000 A 
ATOM     28  C   UNL     1       6.537   1.399  28.944  0.00  0.00    +0.000 A 
ATOM     29  C   UNL     1       7.418   0.798  28.042  0.00  0.00    +0.007 A 
ENDBRANCH  23  24
BRANCH  23  30
ATOM     30  C   UNL     1       8.589  -0.103  25.190  0.00  0.00    -0.011 A 
ATOM     31  C   UNL     1       9.990  -0.014  25.047  0.00  0.00    +0.007 A 
ATOM     32  C   UNL     1      10.575   0.805  24.078  0.00  0.00    +0.000 A 
ATOM     33  C   UNL     1       9.775   1.578  23.244  0.00  0.00    +0.000 A 
ATOM     34  C   UNL     1       8.392   1.521  23.371  0.00  0.00    +0.000 A 
ATOM     35  C   UNL     1       7.805   0.690  24.331  0.00  0.00    +0.007 A 
ENDBRANCH  23  30
BRANCH  23  36
ATOM     36  O   UNL     1       9.042  -1.441  27.138  0.00  0.00    -0.379 OA
ATOM     37  H   UNL     1       9.180  -2.387  26.972  0.00  0.00    +0.211 HD
ENDBRANCH  23  36
ENDBRANCH   4  23
TORSDOF 11
ENDMDL
MODEL 8
REMARK VINA RESULT:      -7.5      1.513      1.885
REMARK  Name = 
REMARK  14 active torsions:
REMARK  status: ('A' for Active; 'I' for Inactive)
REMARK    1  A    between atoms: C_1  and  C_2
REMARK    2  A    between atoms: C_2  and  C_3
REMARK    3  A    between atoms: C_2  and  C_4
REMARK    4  A    between atoms: C_2  and  C_5
REMARK    5  A    between atoms: C_8  and  C_11
REMARK    6  A    between atoms: C_11  and  O_12
REMARK    7  A    between atoms: C_11  and  C_13
REMARK    8  A    between atoms: C_13  and  C_14
REMARK    9  A    between atoms: C_14  and  C_15
REMARK   10  A    between atoms: C_15  and  N_16
REMARK   11  A    between atoms: C_19  and  C_22
REMARK   12  A    between atoms: C_22  and  O_23
REMARK   13  A    between atoms: C_22  and  C_24
REMARK   14  A    between atoms: C_22  and  C_30
REMARK                            x       y       z     vdW  Elec       q    Type
REMARK                         _______ _______ _______ _____ _____    ______ ____
ROOT
ATOM      1  N   UNL     1       9.218  -0.951  23.455  0.00  0.00    -0.302 NA
ATOM      2  C   UNL     1      10.362  -0.194  22.932  0.00  0.00    +0.085 C 
ATOM      3  C   UNL     1      10.896   0.860  23.897  0.00  0.00    +0.022 C 
ATOM      4  C   UNL     1       9.816   1.856  24.390  0.00  0.00    +0.032 C 
ATOM      5  C   UNL     1       8.620   1.025  24.900  0.00  0.00    +0.022 C 
ATOM      6  C   UNL     1       8.152  -0.057  23.925  0.00  0.00    +0.085 C 
ENDROOT
BRANCH   1   7
ATOM      7  C   UNL     1       9.614  -1.954  24.453  0.00  0.00    +0.084 C 
BRANCH   7   8
ATOM      8  C   UNL     1       8.419  -2.781  24.948  0.00  0.00    +0.018 C 
BRANCH   8   9
ATOM      9  C   UNL     1       8.396  -4.230  24.450  0.00  0.00    +0.037 C 
BRANCH   9  10
ATOM     10  C   UNL     1       7.543  -4.456  23.189  0.00  0.00    +0.145 C 
BRANCH  10  14
ATOM     11  C   UNL     1       3.794  -6.343  24.268  0.00  0.00    -0.042 A 
ATOM     12  C   UNL     1       4.051  -5.959  22.940  0.00  0.00    +0.004 A 
ATOM     13  C   UNL     1       5.270  -5.390  22.573  0.00  0.00    +0.006 A 
ATOM     14  C   UNL     1       6.275  -5.193  23.529  0.00  0.00    -0.019 A 
ATOM     15  C   UNL     1       6.063  -5.648  24.832  0.00  0.00    +0.006 A 
ATOM     16  C   UNL     1       4.842  -6.217  25.194  0.00  0.00    +0.004 A 
BRANCH  11  18
ATOM     17  C   UNL     1       2.001  -8.164  23.997  0.00  0.00    +0.015 C 
ATOM     18  C   UNL     1       2.395  -6.829  24.667  0.00  0.00    -0.013 C 
ATOM     19  C   UNL     1       2.357  -7.060  26.195  0.00  0.00    +0.015 C 
ATOM     20  C   UNL     1       1.336  -5.778  24.282  0.00  0.00    +0.015 C 
ENDBRANCH  11  18
ENDBRANCH  10  14
BRANCH  10  21
ATOM     21  O   UNL     1       7.183  -3.253  22.521  0.00  0.00    -0.387 OA
ATOM     22  H   UNL     1       7.360  -2.523  23.139  0.00  0.00    +0.210 HD
ENDBRANCH  10  21
ENDBRANCH   9  10
ENDBRANCH   8   9
ENDBRANCH   7   8
ENDBRANCH   1   7
BRANCH   4  23
ATOM     23  C   UNL     1       9.428   2.995  23.355  0.00  0.00    +0.119 C 
BRANCH  23  24
ATOM     24  C   UNL     1      10.353   4.210  23.574  0.00  0.00    -0.011 A 
ATOM     25  C   UNL     1       9.890   5.351  24.258  0.00  0.00    +0.007 A 
ATOM     26  C   UNL     1      10.762   6.382  24.613  0.00  0.00    +0.000 A 
ATOM     27  C   UNL     1      12.111   6.301  24.280  0.00  0.00    +0.000 A 
ATOM     28  C   UNL     1      12.583   5.205  23.564  0.00  0.00    +0.000 A 
ATOM     29  C   UNL     1      11.712   4.174  23.206  0.00  0.00    +0.007 A 
ENDBRANCH  23  24
BRANCH  23  30
ATOM     30  C   UNL     1       7.941   3.429  23.410  0.00  0.00    -0.011 A 
ATOM     31  C   UNL     1       7.135   3.355  22.254  0.00  0.00    +0.007 A 
ATOM     32  C   UNL     1       5.797   3.758  22.270  0.00  0.00    +0.000 A 
ATOM     33  C   UNL     1       5.238   4.271  23.435  0.00  0.00    +0.000 A 
ATOM     34  C   UNL     1       6.012   4.368  24.585  0.00  0.00    +0.000 A 
ATOM     35  C   UNL     1       7.348   3.952  24.574  0.00  0.00    +0.007 A 
ENDBRANCH  23  30
BRANCH  23  36
ATOM     36  O   UNL     1       9.676   2.479  22.038  0.00  0.00    -0.379 OA
ATOM     37  H   UNL     1       8.855   2.571  21.528  0.00  0.00    +0.211 HD
ENDBRANCH  23  36
ENDBRANCH   4  23
TORSDOF 11
ENDMDL
MODEL 9
REMARK VINA RESULT:      -7.5      2.110      9.943
REMARK  Name = 
REMARK  14 active torsions:
REMARK  status: ('A' for Active; 'I' for Inactive)
REMARK    1  A    between atoms: C_1  and  C_2
REMARK    2  A    between atoms: C_2  and  C_3
REMARK    3  A    between atoms: C_2  and  C_4
REMARK    4  A    between atoms: C_2  and  C_5
REMARK    5  A    between atoms: C_8  and  C_11
REMARK    6  A    between atoms: C_11  and  O_12
REMARK    7  A    between atoms: C_11  and  C_13
REMARK    8  A    between atoms: C_13  and  C_14
REMARK    9  A    between atoms: C_14  and  C_15
REMARK   10  A    between atoms: C_15  and  N_16
REMARK   11  A    between atoms: C_19  and  C_22
REMARK   12  A    between atoms: C_22  and  O_23
REMARK   13  A    between atoms: C_22  and  C_24
REMARK   14  A    between atoms: C_22  and  C_30
REMARK                            x       y       z     vdW  Elec       q    Type
REMARK                         _______ _______ _______ _____ _____    ______ ____
ROOT
ATOM      1  N   UNL     1       7.781  -2.940  23.541  0.00  0.00    -0.302 NA
ATOM      2  C   UNL     1       7.896  -4.399  23.656  0.00  0.00    +0.085 C 
ATOM      3  C   UNL     1       6.842  -5.164  22.862  0.00  0.00    +0.022 C 
ATOM      4  C   UNL     1       5.387  -4.746  23.194  0.00  0.00    +0.032 C 
ATOM      5  C   UNL     1       5.315  -3.208  23.094  0.00  0.00    +0.022 C 
ATOM      6  C   UNL     1       6.424  -2.481  23.860  0.00  0.00    +0.085 C 
ENDROOT
BRANCH   1   7
ATOM      7  C   UNL     1       8.275  -2.436  22.251  0.00  0.00    +0.084 C 
BRANCH   7   8
ATOM      8  C   UNL     1       8.795  -0.996  22.354  0.00  0.00    +0.018 C 
BRANCH   8   9
ATOM      9  C   UNL     1      10.189  -0.864  22.978  0.00  0.00    +0.037 C 
BRANCH   9  10
ATOM     10  C   UNL     1      10.195  -0.289  24.406  0.00  0.00    +0.145 C 
BRANCH  10  14
ATOM     11  C   UNL     1       9.034   3.877  24.121  0.00  0.00    -0.042 A 
ATOM     12  C   UNL     1       8.266   2.964  24.866  0.00  0.00    +0.004 A 
ATOM     13  C   UNL     1       8.653   1.631  25.000  0.00  0.00    +0.006 A 
ATOM     14  C   UNL     1       9.829   1.172  24.394  0.00  0.00    -0.019 A 
ATOM     15  C   UNL     1      10.643   2.087  23.724  0.00  0.00    +0.006 A 
ATOM     16  C   UNL     1      10.252   3.420  23.592  0.00  0.00    +0.004 A 
BRANCH  11  18
ATOM     17  C   UNL     1       9.621   6.302  23.508  0.00  0.00    +0.015 C 
ATOM     18  C   UNL     1       8.507   5.295  23.872  0.00  0.00    -0.013 C 
ATOM     19  C   UNL     1       7.517   5.265  22.684  0.00  0.00    +0.015 C 
ATOM     20  C   UNL     1       7.785   5.823  25.126  0.00  0.00    +0.015 C 
ENDBRANCH  11  18
ENDBRANCH  10  14
BRANCH  10  21
ATOM     21  O   UNL     1       9.306  -0.955  25.293  0.00  0.00    -0.387 OA
ATOM     22  H   UNL     1       9.679  -0.864  26.186  0.00  0.00    +0.210 HD
ENDBRANCH  10  21
ENDBRANCH   9  10
ENDBRANCH   8   9
ENDBRANCH   7   8
ENDBRANCH   1   7
BRANCH   4  23
ATOM     23  C   UNL     1       4.807  -5.342  24.546  0.00  0.00    +0.119 C 
BRANCH  23  24
ATOM     24  C   UNL     1       3.706  -6.369  24.212  0.00  0.00    -0.011 A 
ATOM     25  C   UNL     1       3.379  -7.392  25.123  0.00  0.00    +0.007 A 
ATOM     26  C   UNL     1       2.273  -8.218  24.911  0.00  0.00    +0.000 A 
ATOM     27  C   UNL     1       1.481  -8.049  23.780  0.00  0.00    +0.000 A 
ATOM     28  C   UNL     1       1.811  -7.074  22.843  0.00  0.00    +0.000 A 
ATOM     29  C   UNL     1       2.918  -6.248  23.051  0.00  0.00    +0.007 A 
ENDBRANCH  23  24
BRANCH  23  30
ATOM     30  C   UNL     1       4.272  -4.276  25.536  0.00  0.00    -0.011 A 
ATOM     31  C   UNL     1       5.018  -3.932  26.684  0.00  0.00    +0.007 A 
ATOM     32  C   UNL     1       4.550  -2.989  27.604  0.00  0.00    +0.000 A 
ATOM     33  C   UNL     1       3.311  -2.387  27.414  0.00  0.00    +0.000 A 
ATOM     34  C   UNL     1       2.549  -2.716  26.300  0.00  0.00    +0.000 A 
ATOM     35  C   UNL     1       3.023  -3.649  25.371  0.00  0.00    +0.007 A 
ENDBRANCH  23  30
BRANCH  23  36
ATOM     36  O   UNL     1       5.879  -6.036  25.202  0.00  0.00    -0.379 OA
ATOM     37  H   UNL     1       6.708  -5.596  24.955  0.00  0.00    +0.211 HD
ENDBRANCH  23  36
ENDBRANCH   4  23
TORSDOF 11
ENDMDL
