MODEL 1
REMARK VINA RESULT:      -7.0      0.000      0.000
REMARK  Name = 
REMARK  5 active torsions:
REMARK  status: ('A' for Active; 'I' for Inactive)
REMARK    1  A    between atoms: C_4  and  C_5
REMARK    2  A    between atoms: C_5  and  C_6
REMARK    3  A    between atoms: C_6  and  N_7
REMARK    4  A    between atoms: N_10  and  C_13
REMARK    5  A    between atoms: C_21  and  C_22
REMARK                            x       y       z     vdW  Elec       q    Type
REMARK                         _______ _______ _______ _____ _____    ______ ____
ROOT
ATOM      1  N   UNL     1       8.568  -0.754  22.567  0.00  0.00    -0.299 NA
ATOM      2  C   UNL     1      10.014  -0.407  22.477  0.00  0.00    +0.103 C 
ATOM      3  C   UNL     1      10.584   0.636  23.492  0.00  0.00    +0.120 C 
ATOM      4  N   UNL     1       9.670   1.782  23.627  0.00  0.00    -0.327 N 
ATOM      5  C   UNL     1       8.280   1.389  23.895  0.00  0.00    +0.120 C 
ATOM      6  C   UNL     1       7.793   0.499  22.734  0.00  0.00    +0.103 C 
ENDROOT
BRANCH   4   7
ATOM      7  C   UNL     1      10.069   3.102  23.690  0.00  0.00    +0.031 A 
ATOM      8  C   UNL     1       9.190   4.104  24.149  0.00  0.00    +0.023 A 
ATOM      9  C   UNL     1       9.564   5.449  24.248  0.00  0.00    +0.003 A 
ATOM     10  C   UNL     1      10.839   5.839  23.868  0.00  0.00    +0.020 A 
ATOM     11  C   UNL     1      11.722   4.880  23.382  0.00  0.00    +0.043 A 
ATOM     12 CL   UNL     1      13.301   5.359  22.895  0.00  0.00    -0.083 Cl
ATOM     13  C   UNL     1      11.342   3.532  23.290  0.00  0.00    +0.043 A 
ENDBRANCH   4   7
BRANCH   1  14
ATOM     14  C   UNL     1       8.313  -1.735  23.642  0.00  0.00    +0.090 C 
BRANCH  14  15
ATOM     15  C   UNL     1       9.454  -2.752  23.849  0.00  0.00    +0.072 C 
BRANCH  15  21
ATOM     16  H   UNL     1       9.574  -6.496  26.215  0.00  0.00    +0.189 HD
ATOM     17  N   UNL     1       9.185  -5.602  25.937  0.00  0.00    -0.282 N 
ATOM     18  C   UNL     1       8.062  -4.988  26.416  0.00  0.00    +0.033 A 
ATOM     19  C   UNL     1       7.207  -5.593  27.457  0.00  0.00    +0.065 C 
ATOM     20  C   UNL     1       7.974  -3.798  25.727  0.00  0.00    +0.047 A 
ATOM     21  C   UNL     1       9.079  -3.796  24.848  0.00  0.00    +0.064 A 
ATOM     22  N   UNL     1       9.816  -4.904  24.980  0.00  0.00    -0.179 NA
ENDBRANCH  15  21
ENDBRANCH  14  15
ENDBRANCH   1  14
TORSDOF 4
ENDMDL
MODEL 2
REMARK VINA RESULT:      -6.8      1.348      2.042
REMARK  Name = 
REMARK  5 active torsions:
REMARK  status: ('A' for Active; 'I' for Inactive)
REMARK    1  A    between atoms: C_4  and  C_5
REMARK    2  A    between atoms: C_5  and  C_6
REMARK    3  A    between atoms: C_6  and  N_7
REMARK    4  A    between atoms: N_10  and  C_13
REMARK    5  A    between atoms: C_21  and  C_22
REMARK                            x       y       z     vdW  Elec       q    Type
REMARK                         _______ _______ _______ _____ _____    ______ ____
ROOT
ATOM      1  N   UNL     1       8.844  -0.575  24.857  0.00  0.00    -0.299 NA
ATOM      2  C   UNL     1       7.888   0.552  24.668  0.00  0.00    +0.103 C 
ATOM      3  C   UNL     1       8.252   1.657  23.625  0.00  0.00    +0.120 C 
ATOM      4  N   UNL     1       9.665   2.049  23.755  0.00  0.00    -0.327 N 
ATOM      5  C   UNL     1      10.587   0.904  23.756  0.00  0.00    +0.120 C 
ATOM      6  C   UNL     1      10.217  -0.018  24.934  0.00  0.00    +0.103 C 
ENDROOT
BRANCH   4   7
ATOM      7  C   UNL     1      10.130   3.347  23.695  0.00  0.00    +0.031 A 
ATOM      8  C   UNL     1      11.489   3.620  23.442  0.00  0.00    +0.023 A 
ATOM      9  C   UNL     1      11.995   4.921  23.351  0.00  0.00    +0.003 A 
ATOM     10  C   UNL     1      11.146   6.003  23.532  0.00  0.00    +0.020 A 
ATOM     11  C   UNL     1       9.804   5.770  23.814  0.00  0.00    +0.043 A 
ATOM     12 CL   UNL     1       8.749   7.107  24.055  0.00  0.00    -0.083 Cl
ATOM     13  C   UNL     1       9.303   4.461  23.898  0.00  0.00    +0.043 A 
ENDBRANCH   4   7
BRANCH   1  14
ATOM     14  C   UNL     1       8.696  -1.595  23.798  0.00  0.00    +0.090 C 
BRANCH  14  15
ATOM     15  C   UNL     1       9.701  -2.760  23.902  0.00  0.00    +0.072 C 
BRANCH  15  21
ATOM     16  H   UNL     1       9.560  -6.519  26.244  0.00  0.00    +0.189 HD
ATOM     17  N   UNL     1       9.219  -5.610  25.952  0.00  0.00    -0.282 N 
ATOM     18  C   UNL     1       8.095  -4.957  26.377  0.00  0.00    +0.033 A 
ATOM     19  C   UNL     1       7.166  -5.537  27.367  0.00  0.00    +0.065 C 
ATOM     20  C   UNL     1       8.087  -3.761  25.693  0.00  0.00    +0.047 A 
ATOM     21  C   UNL     1       9.236  -3.795  24.872  0.00  0.00    +0.064 A 
ATOM     22  N   UNL     1       9.925  -4.930  25.035  0.00  0.00    -0.179 NA
ENDBRANCH  15  21
ENDBRANCH  14  15
ENDBRANCH   1  14
TORSDOF 4
ENDMDL
MODEL 3
REMARK VINA RESULT:      -6.7      4.163      8.917
REMARK  Name = 
REMARK  5 active torsions:
REMARK  status: ('A' for Active; 'I' for Inactive)
REMARK    1  A    between atoms: C_4  and  C_5
REMARK    2  A    between atoms: C_5  and  C_6
REMARK    3  A    between atoms: C_6  and  N_7
REMARK    4  A    between atoms: N_10  and  C_13
REMARK    5  A    between atoms: C_21  and  C_22
REMARK                            x       y       z     vdW  Elec       q    Type
REMARK                         _______ _______ _______ _____ _____    ______ ____
ROOT
ATOM      1  N   UNL     1       7.898  -1.765  23.242  0.00  0.00    -0.299 NA
ATOM      2  C   UNL     1       8.275  -2.476  24.496  0.00  0.00    +0.103 C 
ATOM      3  C   UNL     1       8.045  -4.020  24.562  0.00  0.00    +0.120 C 
ATOM      4  N   UNL     1       6.726  -4.373  24.013  0.00  0.00    -0.327 N 
ATOM      5  C   UNL     1       6.474  -3.790  22.687  0.00  0.00    +0.120 C 
ATOM      6  C   UNL     1       6.569  -2.256  22.804  0.00  0.00    +0.103 C 
ENDROOT
BRANCH   4   7
ATOM      7  C   UNL     1       5.867  -5.301  24.565  0.00  0.00    +0.031 A 
ATOM      8  C   UNL     1       4.890  -5.944  23.779  0.00  0.00    +0.023 A 
ATOM      9  C   UNL     1       4.016  -6.906  24.297  0.00  0.00    +0.003 A 
ATOM     10  C   UNL     1       4.083  -7.245  25.639  0.00  0.00    +0.020 A 
ATOM     11  C   UNL     1       5.016  -6.608  26.451  0.00  0.00    +0.043 A 
ATOM     12 CL   UNL     1       5.094  -7.012  28.122  0.00  0.00    -0.083 Cl
ATOM     13  C   UNL     1       5.892  -5.647  25.924  0.00  0.00    +0.043 A 
ENDBRANCH   4   7
BRANCH   1  14
ATOM     14  C   UNL     1       8.937  -1.914  22.202  0.00  0.00    +0.090 C 
BRANCH  14  15
ATOM     15  C   UNL     1      10.258  -1.186  22.525  0.00  0.00    +0.072 C 
BRANCH  15  21
ATOM     16  H   UNL     1       9.216   2.895  21.147  0.00  0.00    +0.189 HD
ATOM     17  N   UNL     1       9.569   2.217  21.814  0.00  0.00    -0.282 N 
ATOM     18  C   UNL     1      10.067   2.447  23.066  0.00  0.00    +0.033 A 
ATOM     19  C   UNL     1      10.174   3.803  23.641  0.00  0.00    +0.065 C 
ATOM     20  C   UNL     1      10.398   1.205  23.562  0.00  0.00    +0.047 A 
ATOM     21  C   UNL     1      10.077   0.296  22.530  0.00  0.00    +0.064 A 
ATOM     22  N   UNL     1       9.571   0.921  21.462  0.00  0.00    -0.179 NA
ENDBRANCH  15  21
ENDBRANCH  14  15
ENDBRANCH   1  14
TORSDOF 4
ENDMDL
MODEL 4
REMARK VINA RESULT:      -6.6      1.765      2.162
REMARK  Name = 
REMARK  5 active torsions:
REMARK  status: ('A' for Active; 'I' for Inactive)
REMARK    1  A    between atoms: C_4  and  C_5
REMARK    2  A    between atoms: C_5  and  C_6
REMARK    3  A    between atoms: C_6  and  N_7
REMARK    4  A    between atoms: N_10  and  C_13
REMARK    5  A    between atoms: C_21  and  C_22
REMARK                            x       y       z     vdW  Elec       q    Type
REMARK                         _______ _______ _______ _____ _____    ______ ____
ROOT
ATOM      1  N   UNL     1       8.846  -0.952  24.465  0.00  0.00    -0.299 NA
ATOM      2  C   UNL     1       8.120  -0.025  23.551  0.00  0.00    +0.103 C 
ATOM      3  C   UNL     1       8.952   1.050  22.782  0.00  0.00    +0.120 C 
ATOM      4  N   UNL     1       9.929   1.689  23.678  0.00  0.00    -0.327 N 
ATOM      5  C   UNL     1      10.748   0.726  24.427  0.00  0.00    +0.120 C 
ATOM      6  C   UNL     1       9.809  -0.161  25.268  0.00  0.00    +0.103 C 
ENDROOT
BRANCH   4   7
ATOM      7  C   UNL     1      10.208   3.041  23.701  0.00  0.00    +0.031 A 
ATOM      8  C   UNL     1       9.238   3.975  24.116  0.00  0.00    +0.023 A 
ATOM      9  C   UNL     1       9.489   5.350  24.174  0.00  0.00    +0.003 A 
ATOM     10  C   UNL     1      10.730   5.840  23.796  0.00  0.00    +0.020 A 
ATOM     11  C   UNL     1      11.701   4.948  23.353  0.00  0.00    +0.043 A 
ATOM     12 CL   UNL     1      13.239   5.550  22.869  0.00  0.00    -0.083 Cl
ATOM     13  C   UNL     1      11.444   3.570  23.302  0.00  0.00    +0.043 A 
ENDBRANCH   4   7
BRANCH   1  14
ATOM     14  C   UNL     1       9.487  -2.054  23.720  0.00  0.00    +0.090 C 
BRANCH  14  15
ATOM     15  C   UNL     1       9.465  -3.409  24.458  0.00  0.00    +0.072 C 
BRANCH  15  21
ATOM     16  H   UNL     1       5.842  -5.867  25.143  0.00  0.00    +0.189 HD
ATOM     17  N   UNL     1       6.496  -5.339  24.574  0.00  0.00    -0.282 N 
ATOM     18  C   UNL     1       6.453  -5.122  23.225  0.00  0.00    +0.033 A 
ATOM     19  C   UNL     1       5.388  -5.676  22.365  0.00  0.00    +0.065 C 
ATOM     20  C   UNL     1       7.553  -4.342  22.945  0.00  0.00    +0.047 A 
ATOM     21  C   UNL     1       8.203  -4.157  24.186  0.00  0.00    +0.064 A 
ATOM     22  N   UNL     1       7.551  -4.771  25.179  0.00  0.00    -0.179 NA
ENDBRANCH  15  21
ENDBRANCH  14  15
ENDBRANCH   1  14
TORSDOF 4
ENDMDL
MODEL 5
REMARK VINA RESULT:      -6.4      1.443      2.069
REMARK  Name = 
REMARK  5 active torsions:
REMARK  status: ('A' for Active; 'I' for Inactive)
REMARK    1  A    between atoms: C_4  and  C_5
REMARK    2  A    between atoms: C_5  and  C_6
REMARK    3  A    between atoms: C_6  and  N_7
REMARK    4  A    between atoms: N_10  and  C_13
REMARK    5  A    between atoms: C_21  and  C_22
REMARK                            x       y       z     vdW  Elec       q    Type
REMARK                         _______ _______ _______ _____ _____    ______ ____
ROOT
ATOM      1  N   UNL     1       8.692  -2.619  23.125  0.00  0.00    -0.299 NA
ATOM      2  C   UNL     1      10.024  -1.965  22.991  0.00  0.00    +0.103 C 
ATOM      3  C   UNL     1      10.355  -0.771  23.943  0.00  0.00    +0.120 C 
ATOM      4  N   UNL     1       9.211   0.150  24.038  0.00  0.00    -0.327 N 
ATOM      5  C   UNL     1       7.944  -0.527  24.350  0.00  0.00    +0.120 C 
ATOM      6  C   UNL     1       7.659  -1.561  23.244  0.00  0.00    +0.103 C 
ENDROOT
BRANCH   4   7
ATOM      7  C   UNL     1       9.306   1.527  24.029  0.00  0.00    +0.031 A 
ATOM      8  C   UNL     1       8.207   2.333  24.387  0.00  0.00    +0.023 A 
ATOM      9  C   UNL     1       8.271   3.731  24.411  0.00  0.00    +0.003 A 
ATOM     10  C   UNL     1       9.448   4.372  24.056  0.00  0.00    +0.020 A 
ATOM     11  C   UNL     1      10.544   3.608  23.669  0.00  0.00    +0.043 A 
ATOM     12 CL   UNL     1      12.003   4.397  23.213  0.00  0.00    -0.083 Cl
ATOM     13  C   UNL     1      10.474   2.206  23.651  0.00  0.00    +0.043 A 
ENDBRANCH   4   7
BRANCH   1  14
ATOM     14  C   UNL     1       8.668  -3.575  24.250  0.00  0.00    +0.090 C 
BRANCH  14  15
ATOM     15  C   UNL     1       7.559  -4.642  24.146  0.00  0.00    +0.072 C 
BRANCH  15  21
ATOM     16  H   UNL     1       8.004  -6.364  28.205  0.00  0.00    +0.189 HD
ATOM     17  N   UNL     1       7.476  -6.016  27.411  0.00  0.00    -0.282 N 
ATOM     18  C   UNL     1       6.119  -5.932  27.275  0.00  0.00    +0.033 A 
ATOM     19  C   UNL     1       5.185  -6.380  28.328  0.00  0.00    +0.065 C 
ATOM     20  C   UNL     1       5.910  -5.384  26.028  0.00  0.00    +0.047 A 
ATOM     21  C   UNL     1       7.201  -5.188  25.488  0.00  0.00    +0.064 A 
ATOM     22  N   UNL     1       8.155  -5.578  26.339  0.00  0.00    -0.179 NA
ENDBRANCH  15  21
ENDBRANCH  14  15
ENDBRANCH   1  14
TORSDOF 4
ENDMDL
MODEL 6
REMARK VINA RESULT:      -6.4      1.626      1.939
REMARK  Name = 
REMARK  5 active torsions:
REMARK  status: ('A' for Active; 'I' for Inactive)
REMARK    1  A    between atoms: C_4  and  C_5
REMARK    2  A    between atoms: C_5  and  C_6
REMARK    3  A    between atoms: C_6  and  N_7
REMARK    4  A    between atoms: N_10  and  C_13
REMARK    5  A    between atoms: C_21  and  C_22
REMARK                            x       y       z     vdW  Elec       q    Type
REMARK                         _______ _______ _______ _____ _____    ______ ____
ROOT
ATOM      1  N   UNL     1       9.581  -1.019  23.363  0.00  0.00    -0.299 NA
ATOM      2  C   UNL     1      10.518   0.035  23.843  0.00  0.00    +0.103 C 
ATOM      3  C   UNL     1       9.910   1.320  24.492  0.00  0.00    +0.120 C 
ATOM      4  N   UNL     1       8.766   1.808  23.704  0.00  0.00    -0.327 N 
ATOM      5  C   UNL     1       7.776   0.764  23.409  0.00  0.00    +0.120 C 
ATOM      6  C   UNL     1       8.475  -0.363  22.623  0.00  0.00    +0.103 C 
ENDROOT
BRANCH   4   7
ATOM      7  C   UNL     1       8.520   3.135  23.416  0.00  0.00    +0.031 A 
ATOM      8  C   UNL     1       7.523   3.504  22.490  0.00  0.00    +0.023 A 
ATOM      9  C   UNL     1       7.229   4.838  22.188  0.00  0.00    +0.003 A 
ATOM     10  C   UNL     1       7.945   5.856  22.799  0.00  0.00    +0.020 A 
ATOM     11  C   UNL     1       8.955   5.527  23.696  0.00  0.00    +0.043 A 
ATOM     12 CL   UNL     1       9.858   6.785  24.446  0.00  0.00    -0.083 Cl
ATOM     13  C   UNL     1       9.242   4.187  23.998  0.00  0.00    +0.043 A 
ENDBRANCH   4   7
BRANCH   1  14
ATOM     14  C   UNL     1       9.105  -1.867  24.474  0.00  0.00    +0.090 C 
BRANCH  14  15
ATOM     15  C   UNL     1       9.549  -3.341  24.375  0.00  0.00    +0.072 C 
BRANCH  15  21
ATOM     16  H   UNL     1       8.330  -6.167  27.564  0.00  0.00    +0.189 HD
ATOM     17  N   UNL     1       8.172  -5.580  26.751  0.00  0.00    -0.282 N 
ATOM     18  C   UNL     1       7.004  -5.390  26.066  0.00  0.00    +0.033 A 
ATOM     19  C   UNL     1       5.746  -6.069  26.435  0.00  0.00    +0.065 C 
ATOM     20  C   UNL     1       7.312  -4.500  25.060  0.00  0.00    +0.047 A 
ATOM     21  C   UNL     1       8.689  -4.226  25.216  0.00  0.00    +0.064 A 
ATOM     22  N   UNL     1       9.210  -4.891  26.252  0.00  0.00    -0.179 NA
ENDBRANCH  15  21
ENDBRANCH  14  15
ENDBRANCH   1  14
TORSDOF 4
ENDMDL
MODEL 7
REMARK VINA RESULT:      -6.4      4.151      8.612
REMARK  Name = 
REMARK  5 active torsions:
REMARK  status: ('A' for Active; 'I' for Inactive)
REMARK    1  A    between atoms: C_4  and  C_5
REMARK    2  A    between atoms: C_5  and  C_6
REMARK    3  A    between atoms: C_6  and  N_7
REMARK    4  A    between atoms: N_10  and  C_13
REMARK    5  A    between atoms: C_21  and  C_22
REMARK                            x       y       z     vdW  Elec       q    Type
REMARK                         _______ _______ _______ _____ _____    ______ ____
ROOT
ATOM      1  N   UNL     1       8.545  -1.113  23.633  0.00  0.00    -0.299 NA
ATOM      2  C   UNL     1       8.992  -1.544  24.988  0.00  0.00    +0.103 C 
ATOM      3  C   UNL     1       8.932  -3.066  25.333  0.00  0.00    +0.120 C 
ATOM      4  N   UNL     1       7.661  -3.652  24.877  0.00  0.00    -0.327 N 
ATOM      5  C   UNL     1       7.351  -3.347  23.473  0.00  0.00    +0.120 C 
ATOM      6  C   UNL     1       7.279  -1.816  23.312  0.00  0.00    +0.103 C 
ENDROOT
BRANCH   4   7
ATOM      7  C   UNL     1       6.907  -4.553  25.600  0.00  0.00    +0.031 A 
ATOM      8  C   UNL     1       7.069  -4.682  26.994  0.00  0.00    +0.023 A 
ATOM      9  C   UNL     1       6.308  -5.568  27.765  0.00  0.00    +0.003 A 
ATOM     10  C   UNL     1       5.362  -6.375  27.152  0.00  0.00    +0.020 A 
ATOM     11  C   UNL     1       5.196  -6.295  25.773  0.00  0.00    +0.043 A 
ATOM     12 CL   UNL     1       4.034  -7.305  25.004  0.00  0.00    -0.083 Cl
ATOM     13  C   UNL     1       5.960  -5.401  25.007  0.00  0.00    +0.043 A 
ENDBRANCH   4   7
BRANCH   1  14
ATOM     14  C   UNL     1       9.597  -1.334  22.620  0.00  0.00    +0.090 C 
BRANCH  14  15
ATOM     15  C   UNL     1       9.458  -0.447  21.366  0.00  0.00    +0.072 C 
BRANCH  15  21
ATOM     16  H   UNL     1      10.031   3.698  22.825  0.00  0.00    +0.189 HD
ATOM     17  N   UNL     1       9.490   2.928  22.447  0.00  0.00    -0.282 N 
ATOM     18  C   UNL     1       8.162   2.912  22.121  0.00  0.00    +0.033 A 
ATOM     19  C   UNL     1       7.285   4.086  22.304  0.00  0.00    +0.065 C 
ATOM     20  C   UNL     1       7.919   1.644  21.640  0.00  0.00    +0.047 A 
ATOM     21  C   UNL     1       9.157   0.969  21.731  0.00  0.00    +0.064 A 
ATOM     22  N   UNL     1      10.114   1.760  22.226  0.00  0.00    -0.179 NA
ENDBRANCH  15  21
ENDBRANCH  14  15
ENDBRANCH   1  14
TORSDOF 4
ENDMDL
MODEL 8
REMARK VINA RESULT:      -6.4      3.932      8.617
REMARK  Name = 
REMARK  5 active torsions:
REMARK  status: ('A' for Active; 'I' for Inactive)
REMARK    1  A    between atoms: C_4  and  C_5
REMARK    2  A    between atoms: C_5  and  C_6
REMARK    3  A    between atoms: C_6  and  N_7
REMARK    4  A    between atoms: N_10  and  C_13
REMARK    5  A    between atoms: C_21  and  C_22
REMARK                            x       y       z     vdW  Elec       q    Type
REMARK                         _______ _______ _______ _____ _____    ______ ____
ROOT
ATOM      1  N   UNL     1       8.871  -0.193  24.014  0.00  0.00    -0.299 NA
ATOM      2  C   UNL     1       8.973  -1.308  24.998  0.00  0.00    +0.103 C 
ATOM      3  C   UNL     1       9.016  -2.771  24.449  0.00  0.00    +0.120 C 
ATOM      4  N   UNL     1       8.011  -2.958  23.391  0.00  0.00    -0.327 N 
ATOM      5  C   UNL     1       8.069  -1.928  22.344  0.00  0.00    +0.120 C 
ATOM      6  C   UNL     1       7.847  -0.552  23.002  0.00  0.00    +0.103 C 
ENDROOT
BRANCH   4   7
ATOM      7  C   UNL     1       7.207  -4.072  23.258  0.00  0.00    +0.031 A 
ATOM      8  C   UNL     1       6.996  -4.670  21.999  0.00  0.00    +0.023 A 
ATOM      9  C   UNL     1       6.206  -5.812  21.827  0.00  0.00    +0.003 A 
ATOM     10  C   UNL     1       5.582  -6.388  22.923  0.00  0.00    +0.020 A 
ATOM     11  C   UNL     1       5.745  -5.807  24.176  0.00  0.00    +0.043 A 
ATOM     12 CL   UNL     1       4.960  -6.507  25.538  0.00  0.00    -0.083 Cl
ATOM     13  C   UNL     1       6.542  -4.664  24.342  0.00  0.00    +0.043 A 
ENDBRANCH   4   7
BRANCH   1  14
ATOM     14  C   UNL     1      10.184   0.123  23.416  0.00  0.00    +0.090 C 
BRANCH  14  15
ATOM     15  C   UNL     1      10.120   1.148  22.265  0.00  0.00    +0.072 C 
BRANCH  15  21
ATOM     16  H   UNL     1       7.996   4.907  23.264  0.00  0.00    +0.189 HD
ATOM     17  N   UNL     1       8.805   4.297  23.221  0.00  0.00    -0.282 N 
ATOM     18  C   UNL     1      10.078   4.558  23.646  0.00  0.00    +0.033 A 
ATOM     19  C   UNL     1      10.467   5.849  24.247  0.00  0.00    +0.065 C 
ATOM     20  C   UNL     1      10.795   3.412  23.377  0.00  0.00    +0.047 A 
ATOM     21  C   UNL     1       9.870   2.527  22.779  0.00  0.00    +0.064 A 
ATOM     22  N   UNL     1       8.653   3.076  22.685  0.00  0.00    -0.179 NA
ENDBRANCH  15  21
ENDBRANCH  14  15
ENDBRANCH   1  14
TORSDOF 4
ENDMDL
MODEL 9
REMARK VINA RESULT:      -6.4      4.021      8.661
REMARK  Name = 
REMARK  5 active torsions:
REMARK  status: ('A' for Active; 'I' for Inactive)
REMARK    1  A    between atoms: C_4  and  C_5
REMARK    2  A    between atoms: C_5  and  C_6
REMARK    3  A    between atoms: C_6  and  N_7
REMARK    4  A    between atoms: N_10  and  C_13
REMARK    5  A    between atoms: C_21  and  C_22
REMARK                            x       y       z     vdW  Elec       q    Type
REMARK                         _______ _______ _______ _____ _____    ______ ____
ROOT
ATOM      1  N   UNL     1       8.384   0.558  22.973  0.00  0.00    -0.299 NA
ATOM      2  C   UNL     1       6.950   0.323  23.304  0.00  0.00    +0.103 C 
ATOM      3  C   UNL     1       6.560  -1.041  23.957  0.00  0.00    +0.120 C 
ATOM      4  N   UNL     1       7.237  -2.156  23.275  0.00  0.00    -0.327 N 
ATOM      5  C   UNL     1       8.686  -1.956  23.132  0.00  0.00    +0.120 C 
ATOM      6  C   UNL     1       8.922  -0.663  22.327  0.00  0.00    +0.103 C 
ENDROOT
BRANCH   4   7
ATOM      7  C   UNL     1       6.642  -3.360  22.956  0.00  0.00    +0.031 A 
ATOM      8  C   UNL     1       7.373  -4.385  22.322  0.00  0.00    +0.023 A 
ATOM      9  C   UNL     1       6.813  -5.627  22.003  0.00  0.00    +0.003 A 
ATOM     10  C   UNL     1       5.481  -5.876  22.297  0.00  0.00    +0.020 A 
ATOM     11  C   UNL     1       4.722  -4.877  22.897  0.00  0.00    +0.043 A 
ATOM     12 CL   UNL     1       3.065  -5.174  23.251  0.00  0.00    -0.083 Cl
ATOM     13  C   UNL     1       5.293  -3.635  23.218  0.00  0.00    +0.043 A 
ENDBRANCH   4   7
BRANCH   1  14
ATOM     14  C   UNL     1       9.154   0.965  24.166  0.00  0.00    +0.090 C 
BRANCH  14  15
ATOM     15  C   UNL     1      10.546   1.548  23.846  0.00  0.00    +0.072 C 
BRANCH  15  21
ATOM     16  H   UNL     1      11.843   5.710  23.050  0.00  0.00    +0.189 HD
ATOM     17  N   UNL     1      11.175   4.996  23.320  0.00  0.00    -0.282 N 
ATOM     18  C   UNL     1       9.873   5.162  23.702  0.00  0.00    +0.033 A 
ATOM     19  C   UNL     1       9.234   6.490  23.790  0.00  0.00    +0.065 C 
ATOM     20  C   UNL     1       9.401   3.892  23.951  0.00  0.00    +0.047 A 
ATOM     21  C   UNL     1      10.496   3.033  23.705  0.00  0.00    +0.064 A 
ATOM     22  N   UNL     1      11.580   3.716  23.320  0.00  0.00    -0.179 NA
ENDBRANCH  15  21
ENDBRANCH  14  15
ENDBRANCH   1  14
TORSDOF 4
ENDMDL
