MODEL 1
REMARK VINA RESULT:      -5.0      0.000      0.000
REMARK  Name = 
REMARK  4 active torsions:
REMARK  status: ('A' for Active; 'I' for Inactive)
REMARK    1  A    between atoms: O_1  and  C_2
REMARK    2  A    between atoms: C_2  and  C_4
REMARK    3  A    between atoms: CA_9  and  C_10
REMARK    4  A    between atoms: C_10  and  O_11
REMARK                            x       y       z     vdW  Elec       q    Type
REMARK                         _______ _______ _______ _____ _____    ______ ____
ROOT
ATOM      1  C   UNL     1       8.051  -5.081  24.596  0.00  0.00    +0.091 A 
ATOM      2  CA  UNL     1       7.031  -5.254  25.522  0.00  0.00    +0.161 A 
ATOM      3  N   UNL     1       5.735  -5.598  25.192  0.00  0.00    -0.248 NA
ATOM      4  C   UNL     1       5.461  -5.774  23.883  0.00  0.00    +0.112 A 
ATOM      5  C   UNL     1       6.401  -5.624  22.884  0.00  0.00    +0.021 A 
ATOM      6  C   UNL     1       7.701  -5.271  23.247  0.00  0.00    +0.019 A 
ENDROOT
BRANCH   1   7
ATOM      7  C   UNL     1       9.460  -4.683  24.843  0.00  0.00    +0.339 C 
ATOM      8  O   UNL     1       9.899  -3.652  24.354  0.00  0.00    -0.245 OA
BRANCH   7   9
ATOM      9  O   UNL     1      10.270  -5.577  25.434  0.00  0.00    -0.477 OA
ATOM     10  H   UNL     1      10.558  -5.368  26.354  0.00  0.00    +0.295 HD
ENDBRANCH   7   9
ENDBRANCH   1   7
BRANCH   2  11
ATOM     11  C   UNL     1       7.199  -5.075  26.991  0.00  0.00    +0.356 C 
ATOM     12  OXT UNL     1       6.718  -4.166  27.645  0.00  0.00    -0.243 OA
BRANCH  11  13
ATOM     13  O   UNL     1       7.996  -6.038  27.511  0.00  0.00    -0.476 OA
ATOM     14  H   UNL     1       8.798  -5.614  27.905  0.00  0.00    +0.295 HD
ENDBRANCH  11  13
ENDBRANCH   2  11
TORSDOF 4
ENDMDL
MODEL 2
REMARK VINA RESULT:      -4.9      0.908      2.927
REMARK  Name = 
REMARK  4 active torsions:
REMARK  status: ('A' for Active; 'I' for Inactive)
REMARK    1  A    between atoms: O_1  and  C_2
REMARK    2  A    between atoms: C_2  and  C_4
REMARK    3  A    between atoms: CA_9  and  C_10
REMARK    4  A    between atoms: C_10  and  O_11
REMARK                            x       y       z     vdW  Elec       q    Type
REMARK                         _______ _______ _______ _____ _____    ______ ____
ROOT
ATOM      1  C   UNL     1       6.989  -5.253  25.496  0.00  0.00    +0.091 A 
ATOM      2  CA  UNL     1       7.933  -5.114  24.489  0.00  0.00    +0.161 A 
ATOM      3  N   UNL     1       7.669  -5.299  23.147  0.00  0.00    -0.248 NA
ATOM      4  C   UNL     1       6.407  -5.636  22.811  0.00  0.00    +0.112 A 
ATOM      5  C   UNL     1       5.394  -5.802  23.734  0.00  0.00    +0.021 A 
ATOM      6  C   UNL     1       5.692  -5.612  25.084  0.00  0.00    +0.019 A 
ENDROOT
BRANCH   1   7
ATOM      7  C   UNL     1       7.177  -5.108  26.962  0.00  0.00    +0.339 C 
ATOM      8  O   UNL     1       6.826  -4.081  27.525  0.00  0.00    -0.245 OA
BRANCH   7   9
ATOM      9  O   UNL     1       7.915  -6.035  27.594  0.00  0.00    -0.477 OA
ATOM     10  H   UNL     1       8.601  -5.699  28.219  0.00  0.00    +0.295 HD
ENDBRANCH   7   9
ENDBRANCH   1   7
BRANCH   2  11
ATOM     11  C   UNL     1       9.361  -4.761  24.728  0.00  0.00    +0.356 C 
ATOM     12  OXT UNL     1       9.883  -3.706  24.415  0.00  0.00    -0.243 OA
BRANCH  11  13
ATOM     13  O   UNL     1      10.026  -5.788  25.310  0.00  0.00    -0.476 OA
ATOM     14  H   UNL     1       9.387  -6.324  25.840  0.00  0.00    +0.295 HD
ENDBRANCH  11  13
ENDBRANCH   2  11
TORSDOF 4
ENDMDL
MODEL 3
REMARK VINA RESULT:      -4.7      2.130      3.484
REMARK  Name = 
REMARK  4 active torsions:
REMARK  status: ('A' for Active; 'I' for Inactive)
REMARK    1  A    between atoms: O_1  and  C_2
REMARK    2  A    between atoms: C_2  and  C_4
REMARK    3  A    between atoms: CA_9  and  C_10
REMARK    4  A    between atoms: C_10  and  O_11
REMARK                            x       y       z     vdW  Elec       q    Type
REMARK                         _______ _______ _______ _____ _____    ______ ____
ROOT
ATOM      1  C   UNL     1       8.489  -4.275  24.297  0.00  0.00    +0.091 A 
ATOM      2  CA  UNL     1       8.640  -3.135  23.519  0.00  0.00    +0.161 A 
ATOM      3  N   UNL     1       7.809  -2.797  22.471  0.00  0.00    -0.248 NA
ATOM      4  C   UNL     1       6.789  -3.639  22.199  0.00  0.00    +0.112 A 
ATOM      5  C   UNL     1       6.553  -4.798  22.910  0.00  0.00    +0.021 A 
ATOM      6  C   UNL     1       7.413  -5.116  23.962  0.00  0.00    +0.019 A 
ENDROOT
BRANCH   1   7
ATOM      7  C   UNL     1       9.342  -4.742  25.420  0.00  0.00    +0.339 C 
ATOM      8  O   UNL     1       9.085  -4.403  26.566  0.00  0.00    -0.245 OA
BRANCH   7   9
ATOM      9  O   UNL     1      10.493  -5.364  25.116  0.00  0.00    -0.477 OA
ATOM     10  H   UNL     1      10.736  -6.139  25.676  0.00  0.00    +0.295 HD
ENDBRANCH   7   9
ENDBRANCH   1   7
BRANCH   2  11
ATOM     11  C   UNL     1       9.730  -2.137  23.705  0.00  0.00    +0.356 C 
ATOM     12  OXT UNL     1       9.763  -1.292  24.583  0.00  0.00    -0.243 OA
BRANCH  11  13
ATOM     13  O   UNL     1      10.674  -2.260  22.742  0.00  0.00    -0.476 OA
ATOM     14  H   UNL     1      10.863  -1.368  22.362  0.00  0.00    +0.295 HD
ENDBRANCH  11  13
ENDBRANCH   2  11
TORSDOF 4
ENDMDL
MODEL 4
REMARK VINA RESULT:      -4.7      1.895      3.231
REMARK  Name = 
REMARK  4 active torsions:
REMARK  status: ('A' for Active; 'I' for Inactive)
REMARK    1  A    between atoms: O_1  and  C_2
REMARK    2  A    between atoms: C_2  and  C_4
REMARK    3  A    between atoms: CA_9  and  C_10
REMARK    4  A    between atoms: C_10  and  O_11
REMARK                            x       y       z     vdW  Elec       q    Type
REMARK                         _______ _______ _______ _____ _____    ______ ____
ROOT
ATOM      1  C   UNL     1       7.198  -5.203  24.261  0.00  0.00    +0.091 A 
ATOM      2  CA  UNL     1       8.166  -5.002  25.235  0.00  0.00    +0.161 A 
ATOM      3  N   UNL     1       7.939  -5.125  26.591  0.00  0.00    -0.248 NA
ATOM      4  C   UNL     1       6.691  -5.465  26.977  0.00  0.00    +0.112 A 
ATOM      5  C   UNL     1       5.657  -5.683  26.089  0.00  0.00    +0.021 A 
ATOM      6  C   UNL     1       5.915  -5.547  24.725  0.00  0.00    +0.019 A 
ENDROOT
BRANCH   1   7
ATOM      7  C   UNL     1       7.331  -5.065  22.789  0.00  0.00    +0.339 C 
ATOM      8  O   UNL     1       7.428  -6.061  22.087  0.00  0.00    -0.245 OA
BRANCH   7   9
ATOM      9  O   UNL     1       7.543  -3.835  22.291  0.00  0.00    -0.477 OA
ATOM     10  H   UNL     1       8.354  -3.369  22.604  0.00  0.00    +0.295 HD
ENDBRANCH   7   9
ENDBRANCH   1   7
BRANCH   2  11
ATOM     11  C   UNL     1       9.574  -4.611  24.943  0.00  0.00    +0.356 C 
ATOM     12  OXT UNL     1       9.909  -3.624  24.313  0.00  0.00    -0.243 OA
BRANCH  11  13
ATOM     13  O   UNL     1      10.445  -5.522  25.438  0.00  0.00    -0.476 OA
ATOM     14  H   UNL     1      10.300  -5.609  26.412  0.00  0.00    +0.295 HD
ENDBRANCH  11  13
ENDBRANCH   2  11
TORSDOF 4
ENDMDL
MODEL 5
REMARK VINA RESULT:      -4.7      2.705      3.594
REMARK  Name = 
REMARK  4 active torsions:
REMARK  status: ('A' for Active; 'I' for Inactive)
REMARK    1  A    between atoms: O_1  and  C_2
REMARK    2  A    between atoms: C_2  and  C_4
REMARK    3  A    between atoms: CA_9  and  C_10
REMARK    4  A    between atoms: C_10  and  O_11
REMARK                            x       y       z     vdW  Elec       q    Type
REMARK                         _______ _______ _______ _____ _____    ______ ____
ROOT
ATOM      1  C   UNL     1       7.757  -4.355  23.289  0.00  0.00    +0.091 A 
ATOM      2  CA  UNL     1       8.704  -4.240  24.297  0.00  0.00    +0.161 A 
ATOM      3  N   UNL     1       9.536  -3.151  24.458  0.00  0.00    -0.248 NA
ATOM      4  C   UNL     1       9.406  -2.142  23.572  0.00  0.00    +0.112 A 
ATOM      5  C   UNL     1       8.498  -2.158  22.532  0.00  0.00    +0.021 A 
ATOM      6  C   UNL     1       7.673  -3.274  22.391  0.00  0.00    +0.019 A 
ENDROOT
BRANCH   1   7
ATOM      7  C   UNL     1       6.841  -5.490  23.010  0.00  0.00    +0.339 C 
ATOM      8  O   UNL     1       6.882  -6.058  21.929  0.00  0.00    -0.245 OA
BRANCH   7   9
ATOM      9  O   UNL     1       5.853  -5.729  23.889  0.00  0.00    -0.477 OA
ATOM     10  H   UNL     1       6.055  -6.368  24.613  0.00  0.00    +0.295 HD
ENDBRANCH   7   9
ENDBRANCH   1   7
BRANCH   2  11
ATOM     11  C   UNL     1       8.956  -5.287  25.326  0.00  0.00    +0.356 C 
ATOM     12  OXT UNL     1       8.127  -5.710  26.112  0.00  0.00    -0.243 OA
BRANCH  11  13
ATOM     13  O   UNL     1      10.250  -5.687  25.307  0.00  0.00    -0.476 OA
ATOM     14  H   UNL     1      10.468  -6.026  24.405  0.00  0.00    +0.295 HD
ENDBRANCH  11  13
ENDBRANCH   2  11
TORSDOF 4
ENDMDL
MODEL 6
REMARK VINA RESULT:      -4.7      1.810      3.129
REMARK  Name = 
REMARK  4 active torsions:
REMARK  status: ('A' for Active; 'I' for Inactive)
REMARK    1  A    between atoms: O_1  and  C_2
REMARK    2  A    between atoms: C_2  and  C_4
REMARK    3  A    between atoms: CA_9  and  C_10
REMARK    4  A    between atoms: C_10  and  O_11
REMARK                            x       y       z     vdW  Elec       q    Type
REMARK                         _______ _______ _______ _____ _____    ______ ____
ROOT
ATOM      1  C   UNL     1       8.137  -4.986  25.262  0.00  0.00    +0.091 A 
ATOM      2  CA  UNL     1       7.146  -5.207  24.317  0.00  0.00    +0.161 A 
ATOM      3  N   UNL     1       5.844  -5.547  24.624  0.00  0.00    -0.248 NA
ATOM      4  C   UNL     1       5.532  -5.667  25.931  0.00  0.00    +0.112 A 
ATOM      5  C   UNL     1       6.444  -5.472  26.949  0.00  0.00    +0.021 A 
ATOM      6  C   UNL     1       7.754  -5.133  26.608  0.00  0.00    +0.019 A 
ENDROOT
BRANCH   1   7
ATOM      7  C   UNL     1       9.566  -4.649  25.037  0.00  0.00    +0.339 C 
ATOM      8  O   UNL     1       9.866  -3.681  24.354  0.00  0.00    -0.245 OA
BRANCH   7   9
ATOM      9  O   UNL     1      10.490  -5.542  25.428  0.00  0.00    -0.477 OA
ATOM     10  H   UNL     1      11.432  -5.298  25.268  0.00  0.00    +0.295 HD
ENDBRANCH   7   9
ENDBRANCH   1   7
BRANCH   2  11
ATOM     11  C   UNL     1       7.363  -5.121  22.845  0.00  0.00    +0.356 C 
ATOM     12  OXT UNL     1       7.463  -6.076  22.096  0.00  0.00    -0.243 OA
BRANCH  11  13
ATOM     13  O   UNL     1       7.476  -3.832  22.444  0.00  0.00    -0.476 OA
ATOM     14  H   UNL     1       7.062  -3.246  23.124  0.00  0.00    +0.295 HD
ENDBRANCH  11  13
ENDBRANCH   2  11
TORSDOF 4
ENDMDL
MODEL 7
REMARK VINA RESULT:      -4.6      2.599      3.612
REMARK  Name = 
REMARK  4 active torsions:
REMARK  status: ('A' for Active; 'I' for Inactive)
REMARK    1  A    between atoms: O_1  and  C_2
REMARK    2  A    between atoms: C_2  and  C_4
REMARK    3  A    between atoms: CA_9  and  C_10
REMARK    4  A    between atoms: C_10  and  O_11
REMARK                            x       y       z     vdW  Elec       q    Type
REMARK                         _______ _______ _______ _____ _____    ______ ____
ROOT
ATOM      1  C   UNL     1       8.729  -4.238  24.242  0.00  0.00    +0.091 A 
ATOM      2  CA  UNL     1       7.772  -4.307  23.239  0.00  0.00    +0.161 A 
ATOM      3  N   UNL     1       7.542  -3.307  22.316  0.00  0.00    -0.248 NA
ATOM      4  C   UNL     1       8.306  -2.199  22.408  0.00  0.00    +0.112 A 
ATOM      5  C   UNL     1       9.282  -2.028  23.369  0.00  0.00    +0.021 A 
ATOM      6  C   UNL     1       9.489  -3.055  24.291  0.00  0.00    +0.019 A 
ENDROOT
BRANCH   1   7
ATOM      7  C   UNL     1       9.032  -5.238  25.296  0.00  0.00    +0.339 C 
ATOM      8  O   UNL     1       8.198  -5.496  26.152  0.00  0.00    -0.245 OA
BRANCH   7   9
ATOM      9  O   UNL     1      10.295  -5.682  25.395  0.00  0.00    -0.477 OA
ATOM     10  H   UNL     1      10.594  -5.962  26.293  0.00  0.00    +0.295 HD
ENDBRANCH   7   9
ENDBRANCH   1   7
BRANCH   2  11
ATOM     11  C   UNL     1       6.856  -5.466  23.039  0.00  0.00    +0.356 C 
ATOM     12  OXT UNL     1       6.920  -6.256  22.114  0.00  0.00    -0.243 OA
BRANCH  11  13
ATOM     13  O   UNL     1       5.908  -5.509  24.004  0.00  0.00    -0.476 OA
ATOM     14  H   UNL     1       6.319  -5.270  24.870  0.00  0.00    +0.295 HD
ENDBRANCH  11  13
ENDBRANCH   2  11
TORSDOF 4
ENDMDL
MODEL 8
REMARK VINA RESULT:      -4.6      1.810      2.502
REMARK  Name = 
REMARK  4 active torsions:
REMARK  status: ('A' for Active; 'I' for Inactive)
REMARK    1  A    between atoms: O_1  and  C_2
REMARK    2  A    between atoms: C_2  and  C_4
REMARK    3  A    between atoms: CA_9  and  C_10
REMARK    4  A    between atoms: C_10  and  O_11
REMARK                            x       y       z     vdW  Elec       q    Type
REMARK                         _______ _______ _______ _____ _____    ______ ____
ROOT
ATOM      1  C   UNL     1       8.646  -3.301  23.628  0.00  0.00    +0.091 A 
ATOM      2  CA  UNL     1       8.390  -4.401  24.435  0.00  0.00    +0.161 A 
ATOM      3  N   UNL     1       7.320  -5.255  24.264  0.00  0.00    -0.248 NA
ATOM      4  C   UNL     1       6.480  -4.991  23.242  0.00  0.00    +0.112 A 
ATOM      5  C   UNL     1       6.643  -3.922  22.384  0.00  0.00    +0.021 A 
ATOM      6  C   UNL     1       7.731  -3.073  22.584  0.00  0.00    +0.019 A 
ENDROOT
BRANCH   1   7
ATOM      7  C   UNL     1       9.744  -2.308  23.747  0.00  0.00    +0.339 C 
ATOM      8  O   UNL     1       9.689  -1.433  24.599  0.00  0.00    -0.245 OA
BRANCH   7   9
ATOM      9  O   UNL     1      10.672  -2.281  22.776  0.00  0.00    -0.477 OA
ATOM     10  H   UNL     1      11.613  -2.343  23.067  0.00  0.00    +0.295 HD
ENDBRANCH   7   9
ENDBRANCH   1   7
BRANCH   2  11
ATOM     11  C   UNL     1       9.230  -4.792  25.602  0.00  0.00    +0.356 C 
ATOM     12  OXT UNL     1       9.095  -4.366  26.735  0.00  0.00    -0.243 OA
BRANCH  11  13
ATOM     13  O   UNL     1      10.199  -5.663  25.235  0.00  0.00    -0.476 OA
ATOM     14  H   UNL     1      10.859  -5.190  24.672  0.00  0.00    +0.295 HD
ENDBRANCH  11  13
ENDBRANCH   2  11
TORSDOF 4
ENDMDL
MODEL 9
REMARK VINA RESULT:      -4.4      5.033      6.541
REMARK  Name = 
REMARK  4 active torsions:
REMARK  status: ('A' for Active; 'I' for Inactive)
REMARK    1  A    between atoms: O_1  and  C_2
REMARK    2  A    between atoms: C_2  and  C_4
REMARK    3  A    between atoms: CA_9  and  C_10
REMARK    4  A    between atoms: C_10  and  O_11
REMARK                            x       y       z     vdW  Elec       q    Type
REMARK                         _______ _______ _______ _____ _____    ______ ____
ROOT
ATOM      1  C   UNL     1       8.397  -0.150  24.005  0.00  0.00    +0.091 A 
ATOM      2  CA  UNL     1       9.682  -0.473  23.591  0.00  0.00    +0.161 A 
ATOM      3  N   UNL     1      10.756   0.392  23.654  0.00  0.00    -0.248 NA
ATOM      4  C   UNL     1      10.524   1.624  24.151  0.00  0.00    +0.112 A 
ATOM      5  C   UNL     1       9.284   2.046  24.586  0.00  0.00    +0.021 A 
ATOM      6  C   UNL     1       8.216   1.152  24.508  0.00  0.00    +0.019 A 
ENDROOT
BRANCH   1   7
ATOM      7  C   UNL     1       7.174  -0.991  23.951  0.00  0.00    +0.339 C 
ATOM      8  O   UNL     1       7.010  -1.885  24.768  0.00  0.00    -0.245 OA
BRANCH   7   9
ATOM      9  O   UNL     1       6.377  -0.871  22.876  0.00  0.00    -0.477 OA
ATOM     10  H   UNL     1       6.812  -0.585  22.037  0.00  0.00    +0.295 HD
ENDBRANCH   7   9
ENDBRANCH   1   7
BRANCH   2  11
ATOM     11  C   UNL     1      10.065  -1.791  23.012  0.00  0.00    +0.356 C 
ATOM     12  OXT UNL     1      10.230  -2.815  23.650  0.00  0.00    -0.243 OA
BRANCH  11  13
ATOM     13  O   UNL     1      10.248  -1.699  21.673  0.00  0.00    -0.476 OA
ATOM     14  H   UNL     1      10.135  -2.595  21.271  0.00  0.00    +0.295 HD
ENDBRANCH  11  13
ENDBRANCH   2  11
TORSDOF 4
ENDMDL
