MODEL 1
REMARK VINA RESULT:      -6.1      0.000      0.000
REMARK  Name = 
REMARK  13 active torsions:
REMARK  status: ('A' for Active; 'I' for Inactive)
REMARK    1  A    between atoms: C_2  and  O_3
REMARK    2  A    between atoms: C_2  and  C_4
REMARK    3  A    between atoms: C_2  and  N_22
REMARK    4  A    between atoms: C_4  and  C_5
REMARK    5  A    between atoms: C_5  and  C_6
REMARK    6  A    between atoms: C_6  and  C_7
REMARK    7  A    between atoms: C_7  and  C_8
REMARK    8  A    between atoms: C_8  and  C_9
REMARK    9  A    between atoms: C_9  and  N_10
REMARK   10  A    between atoms: C_11  and  C_13
REMARK   11  A    between atoms: C_16  and  N_19
REMARK   12  A    between atoms: N_19  and  C_20
REMARK   13  A    between atoms: N_19  and  C_21
REMARK                            x       y       z     vdW  Elec       q    Type
REMARK                         _______ _______ _______ _____ _____    ______ ____
ROOT
ATOM      1  N   UNL     1       8.217  -2.109  22.580  0.00  0.00    -0.311 N 
ATOM      2  H   UNL     1       7.486  -1.412  22.608  0.00  0.00    +0.149 HD
ATOM      3  C   UNL     1       9.509  -1.756  22.910  0.00  0.00    +0.244 C 
ATOM      4  O   UNL     1      10.400  -2.577  23.100  0.00  0.00    -0.270 OA
ENDROOT
BRANCH   3   5
ATOM      5  C   UNL     1       9.799  -0.304  23.073  0.00  0.00    +0.037 A 
ATOM      6  C   UNL     1      10.144   0.276  24.294  0.00  0.00    +0.015 A 
ATOM      7  C   UNL     1      10.408   1.655  24.370  0.00  0.00    +0.024 A 
ATOM      8  C   UNL     1      10.328   2.508  23.252  0.00  0.00    +0.029 A 
ATOM      9  C   UNL     1       9.954   1.895  22.046  0.00  0.00    +0.024 A 
ATOM     10  C   UNL     1       9.694   0.520  21.952  0.00  0.00    +0.015 A 
BRANCH   8  11
ATOM     11  N   UNL     1      10.666   3.854  23.336  0.00  0.00    -0.336 N 
ATOM     12  C   UNL     1       9.751   4.837  23.914  0.00  0.00    +0.129 C 
ATOM     13  C   UNL     1      12.064   4.281  23.314  0.00  0.00    +0.129 C 
ENDBRANCH   8  11
ENDBRANCH   3   5
BRANCH   1  14
ATOM     14  C   UNL     1       7.837  -3.503  22.444  0.00  0.00    +0.104 C 
BRANCH  14  15
ATOM     15  C   UNL     1       6.328  -3.675  22.249  0.00  0.00    +0.019 C 
BRANCH  15  16
ATOM     16  C   UNL     1       5.606  -3.783  23.593  0.00  0.00    +0.002 C 
BRANCH  16  17
ATOM     17  C   UNL     1       5.643  -5.207  24.154  0.00  0.00    +0.000 C 
BRANCH  17  18
ATOM     18  C   UNL     1       6.093  -5.211  25.619  0.00  0.00    +0.005 C 
BRANCH  18  19
ATOM     19  C   UNL     1       7.239  -4.216  25.861  0.00  0.00    +0.059 C 
BRANCH  19  20
ATOM     20  C   UNL     1       8.419  -4.811  26.647  0.00  0.00    +0.276 C 
BRANCH  20  21
ATOM     21  N   UNL     1       9.633  -4.866  25.770  0.00  0.00    -0.037 NA
ATOM     22  O   UNL     1       9.445  -5.531  24.744  0.00  0.00    -0.146 OA
ENDBRANCH  20  21
BRANCH  20  23
ATOM     23  O   UNL     1       8.025  -6.052  27.230  0.00  0.00    -0.368 OA
ATOM     24  H   UNL     1       8.828  -6.594  27.304  0.00  0.00    +0.212 HD
ENDBRANCH  20  23
ENDBRANCH  19  20
ENDBRANCH  18  19
ENDBRANCH  17  18
ENDBRANCH  16  17
ENDBRANCH  15  16
ENDBRANCH  14  15
ENDBRANCH   1  14
TORSDOF 11
ENDMDL
MODEL 2
REMARK VINA RESULT:      -6.0      1.474      2.143
REMARK  Name = 
REMARK  13 active torsions:
REMARK  status: ('A' for Active; 'I' for Inactive)
REMARK    1  A    between atoms: C_2  and  O_3
REMARK    2  A    between atoms: C_2  and  C_4
REMARK    3  A    between atoms: C_2  and  N_22
REMARK    4  A    between atoms: C_4  and  C_5
REMARK    5  A    between atoms: C_5  and  C_6
REMARK    6  A    between atoms: C_6  and  C_7
REMARK    7  A    between atoms: C_7  and  C_8
REMARK    8  A    between atoms: C_8  and  C_9
REMARK    9  A    between atoms: C_9  and  N_10
REMARK   10  A    between atoms: C_11  and  C_13
REMARK   11  A    between atoms: C_16  and  N_19
REMARK   12  A    between atoms: N_19  and  C_20
REMARK   13  A    between atoms: N_19  and  C_21
REMARK                            x       y       z     vdW  Elec       q    Type
REMARK                         _______ _______ _______ _____ _____    ______ ____
ROOT
ATOM      1  N   UNL     1       8.191  -2.170  22.585  0.00  0.00    -0.311 N 
ATOM      2  H   UNL     1       7.473  -1.461  22.645  0.00  0.00    +0.149 HD
ATOM      3  C   UNL     1       9.503  -1.837  22.855  0.00  0.00    +0.244 C 
ATOM      4  O   UNL     1      10.387  -2.671  23.008  0.00  0.00    -0.270 OA
ENDROOT
BRANCH   3   5
ATOM      5  C   UNL     1       9.822  -0.389  23.001  0.00  0.00    +0.037 A 
ATOM      6  C   UNL     1       9.777   0.515  21.939  0.00  0.00    +0.015 A 
ATOM      7  C   UNL     1      10.088   1.870  22.154  0.00  0.00    +0.024 A 
ATOM      8  C   UNL     1      10.463   2.374  23.414  0.00  0.00    +0.029 A 
ATOM      9  C   UNL     1      10.521   1.432  24.453  0.00  0.00    +0.024 A 
ATOM     10  C   UNL     1      10.209   0.079  24.257  0.00  0.00    +0.015 A 
BRANCH   8  11
ATOM     11  N   UNL     1      10.693   3.730  23.618  0.00  0.00    -0.336 N 
ATOM     12  C   UNL     1      11.953   4.359  23.228  0.00  0.00    +0.129 C 
ATOM     13  C   UNL     1       9.580   4.667  23.769  0.00  0.00    +0.129 C 
ENDBRANCH   8  11
ENDBRANCH   3   5
BRANCH   1  14
ATOM     14  C   UNL     1       7.783  -3.558  22.471  0.00  0.00    +0.104 C 
BRANCH  14  15
ATOM     15  C   UNL     1       6.261  -3.712  22.430  0.00  0.00    +0.019 C 
BRANCH  15  16
ATOM     16  C   UNL     1       5.859  -5.169  22.189  0.00  0.00    +0.002 C 
BRANCH  16  17
ATOM     17  C   UNL     1       4.604  -5.558  22.975  0.00  0.00    +0.000 C 
BRANCH  17  18
ATOM     18  C   UNL     1       4.760  -5.226  24.463  0.00  0.00    +0.005 C 
BRANCH  18  19
ATOM     19  C   UNL     1       4.983  -6.492  25.305  0.00  0.00    +0.059 C 
BRANCH  19  20
ATOM     20  C   UNL     1       5.396  -6.204  26.758  0.00  0.00    +0.276 C 
BRANCH  20  21
ATOM     21  N   UNL     1       6.825  -5.756  26.796  0.00  0.00    -0.037 NA
ATOM     22  O   UNL     1       7.370  -6.006  27.878  0.00  0.00    -0.146 OA
ENDBRANCH  20  21
BRANCH  20  23
ATOM     23  O   UNL     1       5.083  -7.331  27.574  0.00  0.00    -0.368 OA
ATOM     24  H   UNL     1       5.693  -8.041  27.315  0.00  0.00    +0.212 HD
ENDBRANCH  20  23
ENDBRANCH  19  20
ENDBRANCH  18  19
ENDBRANCH  17  18
ENDBRANCH  16  17
ENDBRANCH  15  16
ENDBRANCH  14  15
ENDBRANCH   1  14
TORSDOF 11
ENDMDL
MODEL 3
REMARK VINA RESULT:      -5.9      2.017      3.116
REMARK  Name = 
REMARK  13 active torsions:
REMARK  status: ('A' for Active; 'I' for Inactive)
REMARK    1  A    between atoms: C_2  and  O_3
REMARK    2  A    between atoms: C_2  and  C_4
REMARK    3  A    between atoms: C_2  and  N_22
REMARK    4  A    between atoms: C_4  and  C_5
REMARK    5  A    between atoms: C_5  and  C_6
REMARK    6  A    between atoms: C_6  and  C_7
REMARK    7  A    between atoms: C_7  and  C_8
REMARK    8  A    between atoms: C_8  and  C_9
REMARK    9  A    between atoms: C_9  and  N_10
REMARK   10  A    between atoms: C_11  and  C_13
REMARK   11  A    between atoms: C_16  and  N_19
REMARK   12  A    between atoms: N_19  and  C_20
REMARK   13  A    between atoms: N_19  and  C_21
REMARK                            x       y       z     vdW  Elec       q    Type
REMARK                         _______ _______ _______ _____ _____    ______ ____
ROOT
ATOM      1  N   UNL     1       6.804  -4.666  22.555  0.00  0.00    -0.311 N 
ATOM      2  H   UNL     1       6.215  -3.916  22.218  0.00  0.00    +0.149 HD
ATOM      3  C   UNL     1       7.964  -4.367  23.239  0.00  0.00    +0.244 C 
ATOM      4  O   UNL     1       8.614  -5.206  23.853  0.00  0.00    -0.270 OA
ENDROOT
BRANCH   3   5
ATOM      5  C   UNL     1       8.404  -2.944  23.247  0.00  0.00    +0.037 A 
ATOM      6  C   UNL     1       7.882  -1.977  22.387  0.00  0.00    +0.015 A 
ATOM      7  C   UNL     1       8.343  -0.650  22.456  0.00  0.00    +0.024 A 
ATOM      8  C   UNL     1       9.340  -0.236  23.362  0.00  0.00    +0.029 A 
ATOM      9  C   UNL     1       9.859  -1.241  24.193  0.00  0.00    +0.024 A 
ATOM     10  C   UNL     1       9.406  -2.567  24.141  0.00  0.00    +0.015 A 
BRANCH   8  11
ATOM     11  N   UNL     1       9.727   1.095  23.463  0.00  0.00    -0.336 N 
ATOM     12  C   UNL     1      10.128   1.866  22.287  0.00  0.00    +0.129 C 
ATOM     13  C   UNL     1       9.311   1.915  24.600  0.00  0.00    +0.129 C 
ENDBRANCH   8  11
ENDBRANCH   3   5
BRANCH   1  14
ATOM     14  C   UNL     1       6.279  -6.018  22.532  0.00  0.00    +0.104 C 
BRANCH  14  15
ATOM     15  C   UNL     1       5.098  -6.197  23.489  0.00  0.00    +0.019 C 
BRANCH  15  16
ATOM     16  C   UNL     1       4.658  -4.856  24.081  0.00  0.00    +0.002 C 
BRANCH  16  17
ATOM     17  C   UNL     1       4.906  -4.785  25.590  0.00  0.00    +0.000 C 
BRANCH  17  18
ATOM     18  C   UNL     1       5.864  -3.640  25.938  0.00  0.00    +0.005 C 
BRANCH  18  19
ATOM     19  C   UNL     1       6.860  -4.049  27.035  0.00  0.00    +0.059 C 
BRANCH  19  20
ATOM     20  C   UNL     1       7.147  -5.559  27.078  0.00  0.00    +0.276 C 
BRANCH  20  21
ATOM     21  N   UNL     1       6.859  -6.088  28.449  0.00  0.00    -0.037 NA
ATOM     22  O   UNL     1       6.166  -5.314  29.119  0.00  0.00    -0.146 OA
ENDBRANCH  20  21
BRANCH  20  23
ATOM     23  O   UNL     1       8.464  -5.807  26.587  0.00  0.00    -0.368 OA
ATOM     24  H   UNL     1       8.467  -6.714  26.241  0.00  0.00    +0.212 HD
ENDBRANCH  20  23
ENDBRANCH  19  20
ENDBRANCH  18  19
ENDBRANCH  17  18
ENDBRANCH  16  17
ENDBRANCH  15  16
ENDBRANCH  14  15
ENDBRANCH   1  14
TORSDOF 11
ENDMDL
MODEL 4
REMARK VINA RESULT:      -5.9      2.651      6.962
REMARK  Name = 
REMARK  13 active torsions:
REMARK  status: ('A' for Active; 'I' for Inactive)
REMARK    1  A    between atoms: C_2  and  O_3
REMARK    2  A    between atoms: C_2  and  C_4
REMARK    3  A    between atoms: C_2  and  N_22
REMARK    4  A    between atoms: C_4  and  C_5
REMARK    5  A    between atoms: C_5  and  C_6
REMARK    6  A    between atoms: C_6  and  C_7
REMARK    7  A    between atoms: C_7  and  C_8
REMARK    8  A    between atoms: C_8  and  C_9
REMARK    9  A    between atoms: C_9  and  N_10
REMARK   10  A    between atoms: C_11  and  C_13
REMARK   11  A    between atoms: C_16  and  N_19
REMARK   12  A    between atoms: N_19  and  C_20
REMARK   13  A    between atoms: N_19  and  C_21
REMARK                            x       y       z     vdW  Elec       q    Type
REMARK                         _______ _______ _______ _____ _____    ______ ____
ROOT
ATOM      1  N   UNL     1       9.982  -0.682  24.331  0.00  0.00    -0.311 N 
ATOM      2  H   UNL     1       9.250  -0.581  25.021  0.00  0.00    +0.149 HD
ATOM      3  C   UNL     1       9.933  -1.728  23.432  0.00  0.00    +0.244 C 
ATOM      4  O   UNL     1      10.658  -1.798  22.447  0.00  0.00    -0.270 OA
ENDROOT
BRANCH   3   5
ATOM      5  C   UNL     1       8.915  -2.788  23.676  0.00  0.00    +0.037 A 
ATOM      6  C   UNL     1       8.925  -3.616  24.799  0.00  0.00    +0.015 A 
ATOM      7  C   UNL     1       7.927  -4.593  24.964  0.00  0.00    +0.024 A 
ATOM      8  C   UNL     1       6.898  -4.795  24.024  0.00  0.00    +0.029 A 
ATOM      9  C   UNL     1       6.934  -3.962  22.895  0.00  0.00    +0.024 A 
ATOM     10  C   UNL     1       7.918  -2.978  22.719  0.00  0.00    +0.015 A 
BRANCH   8  11
ATOM     11  N   UNL     1       5.880  -5.716  24.244  0.00  0.00    -0.336 N 
ATOM     12  C   UNL     1       5.408  -6.026  25.592  0.00  0.00    +0.129 C 
ATOM     13  C   UNL     1       4.927  -6.050  23.187  0.00  0.00    +0.129 C 
ENDBRANCH   8  11
ENDBRANCH   3   5
BRANCH   1  14
ATOM     14  C   UNL     1      10.912   0.416  24.146  0.00  0.00    +0.104 C 
BRANCH  14  15
ATOM     15  C   UNL     1      10.212   1.696  23.683  0.00  0.00    +0.019 C 
BRANCH  15  16
ATOM     16  C   UNL     1      10.167   1.780  22.155  0.00  0.00    +0.002 C 
BRANCH  16  17
ATOM     17  C   UNL     1       8.820   1.318  21.593  0.00  0.00    +0.000 C 
BRANCH  17  18
ATOM     18  C   UNL     1       7.674   1.680  22.543  0.00  0.00    +0.005 C 
BRANCH  18  19
ATOM     19  C   UNL     1       6.842   0.445  22.923  0.00  0.00    +0.059 C 
BRANCH  19  20
ATOM     20  C   UNL     1       6.184   0.545  24.309  0.00  0.00    +0.276 C 
BRANCH  20  21
ATOM     21  N   UNL     1       5.945  -0.829  24.855  0.00  0.00    -0.037 NA
ATOM     22  O   UNL     1       6.685  -1.094  25.810  0.00  0.00    -0.146 OA
ENDBRANCH  20  21
BRANCH  20  23
ATOM     23  O   UNL     1       5.032   1.384  24.229  0.00  0.00    -0.368 OA
ATOM     24  H   UNL     1       4.375   1.015  24.842  0.00  0.00    +0.212 HD
ENDBRANCH  20  23
ENDBRANCH  19  20
ENDBRANCH  18  19
ENDBRANCH  17  18
ENDBRANCH  16  17
ENDBRANCH  15  16
ENDBRANCH  14  15
ENDBRANCH   1  14
TORSDOF 11
ENDMDL
MODEL 5
REMARK VINA RESULT:      -5.8      2.154      3.757
REMARK  Name = 
REMARK  13 active torsions:
REMARK  status: ('A' for Active; 'I' for Inactive)
REMARK    1  A    between atoms: C_2  and  O_3
REMARK    2  A    between atoms: C_2  and  C_4
REMARK    3  A    between atoms: C_2  and  N_22
REMARK    4  A    between atoms: C_4  and  C_5
REMARK    5  A    between atoms: C_5  and  C_6
REMARK    6  A    between atoms: C_6  and  C_7
REMARK    7  A    between atoms: C_7  and  C_8
REMARK    8  A    between atoms: C_8  and  C_9
REMARK    9  A    between atoms: C_9  and  N_10
REMARK   10  A    between atoms: C_11  and  C_13
REMARK   11  A    between atoms: C_16  and  N_19
REMARK   12  A    between atoms: N_19  and  C_20
REMARK   13  A    between atoms: N_19  and  C_21
REMARK                            x       y       z     vdW  Elec       q    Type
REMARK                         _______ _______ _______ _____ _____    ______ ____
ROOT
ATOM      1  N   UNL     1       8.354  -3.717  25.963  0.00  0.00    -0.311 N 
ATOM      2  H   UNL     1       7.895  -2.900  26.344  0.00  0.00    +0.149 HD
ATOM      3  C   UNL     1       9.317  -3.565  24.987  0.00  0.00    +0.244 C 
ATOM      4  O   UNL     1      10.058  -4.474  24.630  0.00  0.00    -0.270 OA
ENDROOT
BRANCH   3   5
ATOM      5  C   UNL     1       9.468  -2.211  24.383  0.00  0.00    +0.037 A 
ATOM      6  C   UNL     1       9.910  -2.001  23.077  0.00  0.00    +0.015 A 
ATOM      7  C   UNL     1      10.023  -0.692  22.573  0.00  0.00    +0.024 A 
ATOM      8  C   UNL     1       9.717   0.448  23.341  0.00  0.00    +0.029 A 
ATOM      9  C   UNL     1       9.300   0.199  24.658  0.00  0.00    +0.024 A 
ATOM     10  C   UNL     1       9.176  -1.099  25.174  0.00  0.00    +0.015 A 
BRANCH   8  11
ATOM     11  N   UNL     1       9.765   1.727  22.799  0.00  0.00    -0.336 N 
ATOM     12  C   UNL     1       8.702   2.228  21.928  0.00  0.00    +0.129 C 
ATOM     13  C   UNL     1      10.574   2.776  23.417  0.00  0.00    +0.129 C 
ENDBRANCH   8  11
ENDBRANCH   3   5
BRANCH   1  14
ATOM     14  C   UNL     1       8.168  -4.989  26.636  0.00  0.00    +0.104 C 
BRANCH  14  15
ATOM     15  C   UNL     1       6.786  -5.105  27.284  0.00  0.00    +0.019 C 
BRANCH  15  16
ATOM     16  C   UNL     1       5.876  -6.040  26.484  0.00  0.00    +0.002 C 
BRANCH  16  17
ATOM     17  C   UNL     1       5.020  -5.278  25.468  0.00  0.00    +0.000 C 
BRANCH  17  18
ATOM     18  C   UNL     1       5.223  -5.831  24.053  0.00  0.00    +0.005 C 
BRANCH  18  19
ATOM     19  C   UNL     1       6.274  -5.023  23.276  0.00  0.00    +0.059 C 
BRANCH  19  20
ATOM     20  C   UNL     1       6.264  -5.290  21.761  0.00  0.00    +0.276 C 
BRANCH  20  21
ATOM     21  N   UNL     1       5.756  -4.080  21.039  0.00  0.00    -0.037 NA
ATOM     22  O   UNL     1       5.357  -3.201  21.812  0.00  0.00    -0.146 OA
ENDBRANCH  20  21
BRANCH  20  23
ATOM     23  O   UNL     1       5.561  -6.504  21.497  0.00  0.00    -0.368 OA
ATOM     24  H   UNL     1       6.010  -7.202  22.002  0.00  0.00    +0.212 HD
ENDBRANCH  20  23
ENDBRANCH  19  20
ENDBRANCH  18  19
ENDBRANCH  17  18
ENDBRANCH  16  17
ENDBRANCH  15  16
ENDBRANCH  14  15
ENDBRANCH   1  14
TORSDOF 11
ENDMDL
MODEL 6
REMARK VINA RESULT:      -5.8      2.654      7.960
REMARK  Name = 
REMARK  13 active torsions:
REMARK  status: ('A' for Active; 'I' for Inactive)
REMARK    1  A    between atoms: C_2  and  O_3
REMARK    2  A    between atoms: C_2  and  C_4
REMARK    3  A    between atoms: C_2  and  N_22
REMARK    4  A    between atoms: C_4  and  C_5
REMARK    5  A    between atoms: C_5  and  C_6
REMARK    6  A    between atoms: C_6  and  C_7
REMARK    7  A    between atoms: C_7  and  C_8
REMARK    8  A    between atoms: C_8  and  C_9
REMARK    9  A    between atoms: C_9  and  N_10
REMARK   10  A    between atoms: C_11  and  C_13
REMARK   11  A    between atoms: C_16  and  N_19
REMARK   12  A    between atoms: N_19  and  C_20
REMARK   13  A    between atoms: N_19  and  C_21
REMARK                            x       y       z     vdW  Elec       q    Type
REMARK                         _______ _______ _______ _____ _____    ______ ____
ROOT
ATOM      1  N   UNL     1       8.823  -2.180  23.719  0.00  0.00    -0.311 N 
ATOM      2  H   UNL     1       8.042  -1.734  23.258  0.00  0.00    +0.149 HD
ATOM      3  C   UNL     1       8.752  -3.520  24.039  0.00  0.00    +0.244 C 
ATOM      4  O   UNL     1       9.723  -4.174  24.403  0.00  0.00    -0.270 OA
ENDROOT
BRANCH   3   5
ATOM      5  C   UNL     1       7.428  -4.187  23.889  0.00  0.00    +0.037 A 
ATOM      6  C   UNL     1       7.227  -5.319  23.099  0.00  0.00    +0.015 A 
ATOM      7  C   UNL     1       5.948  -5.898  23.009  0.00  0.00    +0.024 A 
ATOM      8  C   UNL     1       4.827  -5.375  23.683  0.00  0.00    +0.029 A 
ATOM      9  C   UNL     1       5.062  -4.222  24.448  0.00  0.00    +0.024 A 
ATOM     10  C   UNL     1       6.332  -3.636  24.552  0.00  0.00    +0.015 A 
BRANCH   8  11
ATOM     11  N   UNL     1       3.590  -6.006  23.639  0.00  0.00    -0.336 N 
ATOM     12  C   UNL     1       3.353  -7.272  24.332  0.00  0.00    +0.129 C 
ATOM     13  C   UNL     1       2.372  -5.255  23.336  0.00  0.00    +0.129 C 
ENDBRANCH   8  11
ENDBRANCH   3   5
BRANCH   1  14
ATOM     14  C   UNL     1      10.082  -1.462  23.794  0.00  0.00    +0.104 C 
BRANCH  14  15
ATOM     15  C   UNL     1      10.032  -0.310  24.801  0.00  0.00    +0.019 C 
BRANCH  15  16
ATOM     16  C   UNL     1      10.897   0.866  24.340  0.00  0.00    +0.002 C 
BRANCH  16  17
ATOM     17  C   UNL     1      10.064   1.971  23.686  0.00  0.00    +0.000 C 
BRANCH  17  18
ATOM     18  C   UNL     1      10.084   1.846  22.159  0.00  0.00    +0.005 C 
BRANCH  18  19
ATOM     19  C   UNL     1       8.786   1.218  21.626  0.00  0.00    +0.059 C 
BRANCH  19  20
ATOM     20  C   UNL     1       7.582   1.393  22.566  0.00  0.00    +0.276 C 
BRANCH  20  21
ATOM     21  N   UNL     1       6.930   0.066  22.805  0.00  0.00    -0.037 NA
ATOM     22  O   UNL     1       6.620  -0.102  23.990  0.00  0.00    -0.146 OA
ENDBRANCH  20  21
BRANCH  20  23
ATOM     23  O   UNL     1       6.727   2.416  22.058  0.00  0.00    -0.368 OA
ATOM     24  H   UNL     1       6.153   2.691  22.792  0.00  0.00    +0.212 HD
ENDBRANCH  20  23
ENDBRANCH  19  20
ENDBRANCH  18  19
ENDBRANCH  17  18
ENDBRANCH  16  17
ENDBRANCH  15  16
ENDBRANCH  14  15
ENDBRANCH   1  14
TORSDOF 11
ENDMDL
MODEL 7
REMARK VINA RESULT:      -5.7      2.688      7.717
REMARK  Name = 
REMARK  13 active torsions:
REMARK  status: ('A' for Active; 'I' for Inactive)
REMARK    1  A    between atoms: C_2  and  O_3
REMARK    2  A    between atoms: C_2  and  C_4
REMARK    3  A    between atoms: C_2  and  N_22
REMARK    4  A    between atoms: C_4  and  C_5
REMARK    5  A    between atoms: C_5  and  C_6
REMARK    6  A    between atoms: C_6  and  C_7
REMARK    7  A    between atoms: C_7  and  C_8
REMARK    8  A    between atoms: C_8  and  C_9
REMARK    9  A    between atoms: C_9  and  N_10
REMARK   10  A    between atoms: C_11  and  C_13
REMARK   11  A    between atoms: C_16  and  N_19
REMARK   12  A    between atoms: N_19  and  C_20
REMARK   13  A    between atoms: N_19  and  C_21
REMARK                            x       y       z     vdW  Elec       q    Type
REMARK                         _______ _______ _______ _____ _____    ______ ____
ROOT
ATOM      1  N   UNL     1       8.993  -1.846  24.214  0.00  0.00    -0.311 N 
ATOM      2  H   UNL     1       8.046  -1.497  24.267  0.00  0.00    +0.149 HD
ATOM      3  C   UNL     1       9.244  -3.179  24.472  0.00  0.00    +0.244 C 
ATOM      4  O   UNL     1      10.318  -3.717  24.227  0.00  0.00    -0.270 OA
ENDROOT
BRANCH   3   5
ATOM      5  C   UNL     1       8.127  -3.986  25.038  0.00  0.00    +0.037 A 
ATOM      6  C   UNL     1       6.980  -4.317  24.317  0.00  0.00    +0.015 A 
ATOM      7  C   UNL     1       5.968  -5.088  24.918  0.00  0.00    +0.024 A 
ATOM      8  C   UNL     1       6.047  -5.544  26.248  0.00  0.00    +0.029 A 
ATOM      9  C   UNL     1       7.204  -5.170  26.950  0.00  0.00    +0.024 A 
ATOM     10  C   UNL     1       8.225  -4.408  26.364  0.00  0.00    +0.015 A 
BRANCH   8  11
ATOM     11  N   UNL     1       5.070  -6.366  26.796  0.00  0.00    -0.336 N 
ATOM     12  C   UNL     1       4.157  -7.136  25.953  0.00  0.00    +0.129 C 
ATOM     13  C   UNL     1       5.197  -6.879  28.160  0.00  0.00    +0.129 C 
ENDBRANCH   8  11
ENDBRANCH   3   5
BRANCH   1  14
ATOM     14  C   UNL     1      10.010  -0.997  23.622  0.00  0.00    +0.104 C 
BRANCH  14  15
ATOM     15  C   UNL     1      10.032  -1.101  22.095  0.00  0.00    +0.019 C 
BRANCH  15  16
ATOM     16  C   UNL     1       9.365   0.115  21.448  0.00  0.00    +0.002 C 
BRANCH  16  17
ATOM     17  C   UNL     1       9.708   1.416  22.179  0.00  0.00    +0.000 C 
BRANCH  17  18
ATOM     18  C   UNL     1       8.445   2.232  22.474  0.00  0.00    +0.005 C 
BRANCH  18  19
ATOM     19  C   UNL     1       7.176   1.375  22.350  0.00  0.00    +0.059 C 
BRANCH  19  20
ATOM     20  C   UNL     1       6.436   1.170  23.683  0.00  0.00    +0.276 C 
BRANCH  20  21
ATOM     21  N   UNL     1       6.504  -0.272  24.081  0.00  0.00    -0.037 NA
ATOM     22  O   UNL     1       6.447  -1.035  23.108  0.00  0.00    -0.146 OA
ENDBRANCH  20  21
BRANCH  20  23
ATOM     23  O   UNL     1       5.123   1.720  23.587  0.00  0.00    -0.368 OA
ATOM     24  H   UNL     1       5.035   2.361  24.312  0.00  0.00    +0.212 HD
ENDBRANCH  20  23
ENDBRANCH  19  20
ENDBRANCH  18  19
ENDBRANCH  17  18
ENDBRANCH  16  17
ENDBRANCH  15  16
ENDBRANCH  14  15
ENDBRANCH   1  14
TORSDOF 11
ENDMDL
MODEL 8
REMARK VINA RESULT:      -5.7      2.471      6.952
REMARK  Name = 
REMARK  13 active torsions:
REMARK  status: ('A' for Active; 'I' for Inactive)
REMARK    1  A    between atoms: C_2  and  O_3
REMARK    2  A    between atoms: C_2  and  C_4
REMARK    3  A    between atoms: C_2  and  N_22
REMARK    4  A    between atoms: C_4  and  C_5
REMARK    5  A    between atoms: C_5  and  C_6
REMARK    6  A    between atoms: C_6  and  C_7
REMARK    7  A    between atoms: C_7  and  C_8
REMARK    8  A    between atoms: C_8  and  C_9
REMARK    9  A    between atoms: C_9  and  N_10
REMARK   10  A    between atoms: C_11  and  C_13
REMARK   11  A    between atoms: C_16  and  N_19
REMARK   12  A    between atoms: N_19  and  C_20
REMARK   13  A    between atoms: N_19  and  C_21
REMARK                            x       y       z     vdW  Elec       q    Type
REMARK                         _______ _______ _______ _____ _____    ______ ____
ROOT
ATOM      1  N   UNL     1       8.716  -1.899  22.351  0.00  0.00    -0.311 N 
ATOM      2  H   UNL     1       7.779  -2.003  21.985  0.00  0.00    +0.149 HD
ATOM      3  C   UNL     1       9.167  -2.764  23.327  0.00  0.00    +0.244 C 
ATOM      4  O   UNL     1      10.343  -2.835  23.667  0.00  0.00    -0.270 OA
ENDROOT
BRANCH   3   5
ATOM      5  C   UNL     1       8.163  -3.668  23.953  0.00  0.00    +0.037 A 
ATOM      6  C   UNL     1       8.467  -4.546  24.994  0.00  0.00    +0.015 A 
ATOM      7  C   UNL     1       7.464  -5.368  25.539  0.00  0.00    +0.024 A 
ATOM      8  C   UNL     1       6.136  -5.360  25.070  0.00  0.00    +0.029 A 
ATOM      9  C   UNL     1       5.872  -4.483  24.007  0.00  0.00    +0.024 A 
ATOM     10  C   UNL     1       6.860  -3.653  23.456  0.00  0.00    +0.015 A 
BRANCH   8  11
ATOM     11  N   UNL     1       5.145  -6.126  25.674  0.00  0.00    -0.336 N 
ATOM     12  C   UNL     1       4.286  -7.017  24.895  0.00  0.00    +0.129 C 
ATOM     13  C   UNL     1       5.212  -6.456  27.097  0.00  0.00    +0.129 C 
ENDBRANCH   8  11
ENDBRANCH   3   5
BRANCH   1  14
ATOM     14  C   UNL     1       9.633  -1.014  21.657  0.00  0.00    +0.104 C 
BRANCH  14  15
ATOM     15  C   UNL     1       9.109   0.423  21.588  0.00  0.00    +0.019 C 
BRANCH  15  16
ATOM     16  C   UNL     1       9.466   1.204  22.855  0.00  0.00    +0.002 C 
BRANCH  16  17
ATOM     17  C   UNL     1      10.737   0.670  23.521  0.00  0.00    +0.000 C 
BRANCH  17  18
ATOM     18  C   UNL     1      10.518   0.436  25.019  0.00  0.00    +0.005 C 
BRANCH  18  19
ATOM     19  C   UNL     1       9.023   0.369  25.368  0.00  0.00    +0.059 C 
BRANCH  19  20
ATOM     20  C   UNL     1       8.665  -0.766  26.342  0.00  0.00    +0.276 C 
BRANCH  20  21
ATOM     21  N   UNL     1       7.205  -1.083  26.232  0.00  0.00    -0.037 NA
ATOM     22  O   UNL     1       6.888  -2.085  26.886  0.00  0.00    -0.146 OA
ENDBRANCH  20  21
BRANCH  20  23
ATOM     23  O   UNL     1       9.125  -0.434  27.651  0.00  0.00    -0.368 OA
ATOM     24  H   UNL     1       9.085   0.534  27.723  0.00  0.00    +0.212 HD
ENDBRANCH  20  23
ENDBRANCH  19  20
ENDBRANCH  18  19
ENDBRANCH  17  18
ENDBRANCH  16  17
ENDBRANCH  15  16
ENDBRANCH  14  15
ENDBRANCH   1  14
TORSDOF 11
ENDMDL
MODEL 9
REMARK VINA RESULT:      -5.6      2.601      7.093
REMARK  Name = 
REMARK  13 active torsions:
REMARK  status: ('A' for Active; 'I' for Inactive)
REMARK    1  A    between atoms: C_2  and  O_3
REMARK    2  A    between atoms: C_2  and  C_4
REMARK    3  A    between atoms: C_2  and  N_22
REMARK    4  A    between atoms: C_4  and  C_5
REMARK    5  A    between atoms: C_5  and  C_6
REMARK    6  A    between atoms: C_6  and  C_7
REMARK    7  A    between atoms: C_7  and  C_8
REMARK    8  A    between atoms: C_8  and  C_9
REMARK    9  A    between atoms: C_9  and  N_10
REMARK   10  A    between atoms: C_11  and  C_13
REMARK   11  A    between atoms: C_16  and  N_19
REMARK   12  A    between atoms: N_19  and  C_20
REMARK   13  A    between atoms: N_19  and  C_21
REMARK                            x       y       z     vdW  Elec       q    Type
REMARK                         _______ _______ _______ _____ _____    ______ ____
ROOT
ATOM      1  N   UNL     1       7.551   0.647  24.824  0.00  0.00    -0.311 N 
ATOM      2  H   UNL     1       8.279  -0.046  24.931  0.00  0.00    +0.149 HD
ATOM      3  C   UNL     1       6.274   0.248  24.484  0.00  0.00    +0.244 C 
ATOM      4  O   UNL     1       5.303   0.993  24.539  0.00  0.00    -0.270 OA
ENDROOT
BRANCH   3   5
ATOM      5  C   UNL     1       6.092  -1.172  24.071  0.00  0.00    +0.037 A 
ATOM      6  C   UNL     1       5.332  -2.089  24.797  0.00  0.00    +0.015 A 
ATOM      7  C   UNL     1       5.200  -3.413  24.342  0.00  0.00    +0.024 A 
ATOM      8  C   UNL     1       5.821  -3.879  23.167  0.00  0.00    +0.029 A 
ATOM      9  C   UNL     1       6.598  -2.936  22.475  0.00  0.00    +0.024 A 
ATOM     10  C   UNL     1       6.734  -1.610  22.912  0.00  0.00    +0.015 A 
BRANCH   8  11
ATOM     11  N   UNL     1       5.617  -5.171  22.697  0.00  0.00    -0.336 N 
ATOM     12  C   UNL     1       6.321  -5.677  21.519  0.00  0.00    +0.129 C 
ATOM     13  C   UNL     1       5.097  -6.218  23.576  0.00  0.00    +0.129 C 
ENDBRANCH   8  11
ENDBRANCH   3   5
BRANCH   1  14
ATOM     14  C   UNL     1       7.812   1.999  25.279  0.00  0.00    +0.104 C 
BRANCH  14  15
ATOM     15  C   UNL     1       8.793   2.739  24.365  0.00  0.00    +0.019 C 
BRANCH  15  16
ATOM     16  C   UNL     1       8.112   3.184  23.069  0.00  0.00    +0.002 C 
BRANCH  16  17
ATOM     17  C   UNL     1       8.393   2.223  21.911  0.00  0.00    +0.000 C 
BRANCH  17  18
ATOM     18  C   UNL     1       9.775   1.577  22.055  0.00  0.00    +0.005 C 
BRANCH  18  19
ATOM     19  C   UNL     1       9.710   0.053  21.864  0.00  0.00    +0.059 C 
BRANCH  19  20
ATOM     20  C   UNL     1      10.550  -0.735  22.883  0.00  0.00    +0.276 C 
BRANCH  20  21
ATOM     21  N   UNL     1      10.403  -2.204  22.630  0.00  0.00    -0.037 NA
ATOM     22  O   UNL     1      10.149  -2.839  23.661  0.00  0.00    -0.146 OA
ENDBRANCH  20  21
BRANCH  20  23
ATOM     23  O   UNL     1      10.223  -0.303  24.204  0.00  0.00    -0.368 OA
ATOM     24  H   UNL     1      10.071  -1.105  24.730  0.00  0.00    +0.212 HD
ENDBRANCH  20  23
ENDBRANCH  19  20
ENDBRANCH  18  19
ENDBRANCH  17  18
ENDBRANCH  16  17
ENDBRANCH  15  16
ENDBRANCH  14  15
ENDBRANCH   1  14
TORSDOF 11
ENDMDL
