MODEL 1
REMARK VINA RESULT:      -7.0      0.000      0.000
REMARK  Name = 
REMARK  5 active torsions:
REMARK  status: ('A' for Active; 'I' for Inactive)
REMARK    1  A    between atoms: O_1  and  C_2
REMARK    2  A    between atoms: C_4  and  O_5
REMARK    3  A    between atoms: C_13  and  C_14
REMARK    4  A    between atoms: C_15  and  O_16
REMARK    5  A    between atoms: C_19  and  O_20
REMARK                            x       y       z     vdW  Elec       q    Type
REMARK                         _______ _______ _______ _____ _____    ______ ____
ROOT
ATOM      1  C   UNL     1       6.788   2.783  22.311  0.00  0.00    +0.124 A 
ATOM      2  C   UNL     1       6.531   1.490  22.737  0.00  0.00    +0.092 A 
ATOM      3  C   UNL     1       7.603   0.755  23.191  0.00  0.00    +0.147 A 
ATOM      4  C   UNL     1       8.908   1.242  23.209  0.00  0.00    +0.109 A 
ATOM      5  C   UNL     1       9.759   0.115  23.644  0.00  0.00    +0.235 C 
ATOM      6  C   UNL     1       8.773  -1.006  23.813  0.00  0.00    +0.176 C 
ATOM      7  C   UNL     1       9.040  -2.305  24.018  0.00  0.00    +0.061 C 
ATOM      8  O   UNL     1      10.958   0.059  23.784  0.00  0.00    -0.283 OA
ATOM      9  C   UNL     1       9.160   2.537  22.802  0.00  0.00    +0.135 A 
ATOM     10  O   UNL     1       7.486  -0.537  23.615  0.00  0.00    -0.451 OA
ATOM     11  C   UNL     1       8.085   3.322  22.351  0.00  0.00    +0.091 A 
ENDROOT
BRANCH   7  12
ATOM     12  C   UNL     1       8.013  -3.383  24.107  0.00  0.00    +0.022 A 
ATOM     13  C   UNL     1       7.624  -3.989  22.899  0.00  0.00    +0.030 A 
ATOM     14  C   UNL     1       6.684  -5.032  22.875  0.00  0.00    +0.061 A 
ATOM     15 BR   UNL     1       6.181  -5.755  21.194  0.00  0.00    -0.046 Br
ATOM     16  C   UNL     1       6.132  -5.515  24.061  0.00  0.00    +0.148 A 
ATOM     17  C   UNL     1       6.482  -4.918  25.271  0.00  0.00    +0.102 A 
ATOM     18 BR   UNL     1       5.734  -5.590  26.892  0.00  0.00    -0.043 Br
ATOM     19  C   UNL     1       7.374  -3.831  25.288  0.00  0.00    +0.142 A 
BRANCH  16  20
ATOM     20  O   UNL     1       5.238  -6.555  24.026  0.00  0.00    -0.504 OA
ATOM     21  H   UNL     1       5.206  -6.888  23.110  0.00  0.00    +0.292 HD
ENDBRANCH  16  20
BRANCH  19  22
ATOM     22  O   UNL     1       7.538  -3.214  26.504  0.00  0.00    -0.505 OA
ATOM     23  H   UNL     1       7.752  -3.878  27.176  0.00  0.00    +0.292 HD
ENDBRANCH  19  22
ENDBRANCH   7  12
BRANCH   1  24
ATOM     24  O   UNL     1       5.722   3.496  21.850  0.00  0.00    -0.507 OA
ATOM     25  H   UNL     1       5.505   3.220  20.944  0.00  0.00    +0.292 HD
ENDBRANCH   1  24
BRANCH   9  26
ATOM     26  O   UNL     1      10.423   3.052  22.823  0.00  0.00    -0.506 OA
ATOM     27  H   UNL     1      10.391   4.019  22.891  0.00  0.00    +0.292 HD
ENDBRANCH   9  26
TORSDOF 5
ENDMDL
MODEL 2
REMARK VINA RESULT:      -7.0      2.056      2.842
REMARK  Name = 
REMARK  5 active torsions:
REMARK  status: ('A' for Active; 'I' for Inactive)
REMARK    1  A    between atoms: O_1  and  C_2
REMARK    2  A    between atoms: C_4  and  O_5
REMARK    3  A    between atoms: C_13  and  C_14
REMARK    4  A    between atoms: C_15  and  O_16
REMARK    5  A    between atoms: C_19  and  O_20
REMARK                            x       y       z     vdW  Elec       q    Type
REMARK                         _______ _______ _______ _____ _____    ______ ____
ROOT
ATOM      1  C   UNL     1       8.584   2.402  24.862  0.00  0.00    +0.124 A 
ATOM      2  C   UNL     1       8.135   1.101  25.019  0.00  0.00    +0.092 A 
ATOM      3  C   UNL     1       8.425   0.213  24.008  0.00  0.00    +0.147 A 
ATOM      4  C   UNL     1       9.110   0.573  22.850  0.00  0.00    +0.109 A 
ATOM      5  C   UNL     1       9.103  -0.624  21.982  0.00  0.00    +0.235 C 
ATOM      6  C   UNL     1       8.321  -1.620  22.789  0.00  0.00    +0.176 C 
ATOM      7  C   UNL     1       7.860  -2.816  22.388  0.00  0.00    +0.061 C 
ATOM      8  O   UNL     1       9.556  -0.778  20.872  0.00  0.00    -0.283 OA
ATOM      9  C   UNL     1       9.573   1.865  22.703  0.00  0.00    +0.135 A 
ATOM     10  O   UNL     1       8.020  -1.091  24.032  0.00  0.00    -0.451 OA
ATOM     11  C   UNL     1       9.311   2.794  23.725  0.00  0.00    +0.091 A 
ENDROOT
BRANCH   7  12
ATOM     12  C   UNL     1       7.025  -3.731  23.218  0.00  0.00    +0.022 A 
ATOM     13  C   UNL     1       7.518  -4.054  24.495  0.00  0.00    +0.030 A 
ATOM     14  C   UNL     1       6.797  -4.886  25.367  0.00  0.00    +0.061 A 
ATOM     15 BR   UNL     1       7.564  -5.311  27.050  0.00  0.00    -0.046 Br
ATOM     16  C   UNL     1       5.552  -5.392  24.995  0.00  0.00    +0.148 A 
ATOM     17  C   UNL     1       5.049  -5.105  23.726  0.00  0.00    +0.102 A 
ATOM     18 BR   UNL     1       3.339  -5.788  23.226  0.00  0.00    -0.043 Br
ATOM     19  C   UNL     1       5.801  -4.325  22.830  0.00  0.00    +0.142 A 
BRANCH  16  20
ATOM     20  O   UNL     1       4.844  -6.178  25.868  0.00  0.00    -0.504 OA
ATOM     21  H   UNL     1       5.029  -5.861  26.771  0.00  0.00    +0.292 HD
ENDBRANCH  16  20
BRANCH  19  22
ATOM     22  O   UNL     1       5.295  -4.227  21.557  0.00  0.00    -0.505 OA
ATOM     23  H   UNL     1       5.954  -4.548  20.923  0.00  0.00    +0.292 HD
ENDBRANCH  19  22
ENDBRANCH   7  12
BRANCH   1  24
ATOM     24  O   UNL     1       8.278   3.277  25.862  0.00  0.00    -0.507 OA
ATOM     25  H   UNL     1       7.899   2.798  26.617  0.00  0.00    +0.292 HD
ENDBRANCH   1  24
BRANCH   9  26
ATOM     26  O   UNL     1      10.261   2.247  21.590  0.00  0.00    -0.506 OA
ATOM     27  H   UNL     1      10.255   3.214  21.505  0.00  0.00    +0.292 HD
ENDBRANCH   9  26
TORSDOF 5
ENDMDL
MODEL 3
REMARK VINA RESULT:      -6.9      3.518      7.261
REMARK  Name = 
REMARK  5 active torsions:
REMARK  status: ('A' for Active; 'I' for Inactive)
REMARK    1  A    between atoms: O_1  and  C_2
REMARK    2  A    between atoms: C_4  and  O_5
REMARK    3  A    between atoms: C_13  and  C_14
REMARK    4  A    between atoms: C_15  and  O_16
REMARK    5  A    between atoms: C_19  and  O_20
REMARK                            x       y       z     vdW  Elec       q    Type
REMARK                         _______ _______ _______ _____ _____    ______ ____
ROOT
ATOM      1  C   UNL     1       7.344  -3.889  26.756  0.00  0.00    +0.124 A 
ATOM      2  C   UNL     1       7.126  -2.639  26.199  0.00  0.00    +0.092 A 
ATOM      3  C   UNL     1       7.956  -2.259  25.170  0.00  0.00    +0.147 A 
ATOM      4  C   UNL     1       9.000  -3.052  24.700  0.00  0.00    +0.109 A 
ATOM      5  C   UNL     1       9.711  -2.238  23.692  0.00  0.00    +0.235 C 
ATOM      6  C   UNL     1       8.956  -0.939  23.715  0.00  0.00    +0.176 C 
ATOM      7  C   UNL     1       9.297   0.216  23.122  0.00  0.00    +0.061 C 
ATOM      8  O   UNL     1      10.693  -2.499  23.037  0.00  0.00    -0.283 OA
ATOM      9  C   UNL     1       9.205  -4.305  25.243  0.00  0.00    +0.135 A 
ATOM     10  O   UNL     1       7.860  -1.044  24.553  0.00  0.00    -0.451 OA
ATOM     11  C   UNL     1       8.362  -4.733  26.283  0.00  0.00    +0.091 A 
ENDROOT
BRANCH   7  12
ATOM     12  C   UNL     1       8.538   1.494  23.241  0.00  0.00    +0.022 A 
ATOM     13  C   UNL     1       9.270   2.632  23.622  0.00  0.00    +0.030 A 
ATOM     14  C   UNL     1       8.656   3.890  23.738  0.00  0.00    +0.061 A 
ATOM     15 BR   UNL     1       9.711   5.361  24.308  0.00  0.00    -0.046 Br
ATOM     16  C   UNL     1       7.301   4.046  23.448  0.00  0.00    +0.148 A 
ATOM     17  C   UNL     1       6.546   2.929  23.090  0.00  0.00    +0.102 A 
ATOM     18 BR   UNL     1       4.695   3.148  22.682  0.00  0.00    -0.043 Br
ATOM     19  C   UNL     1       7.147   1.659  23.037  0.00  0.00    +0.142 A 
BRANCH  16  20
ATOM     20  O   UNL     1       6.720   5.285  23.535  0.00  0.00    -0.504 OA
ATOM     21  H   UNL     1       6.803   5.587  24.458  0.00  0.00    +0.292 HD
ENDBRANCH  16  20
BRANCH  19  22
ATOM     22  O   UNL     1       6.294   0.604  22.827  0.00  0.00    -0.505 OA
ATOM     23  H   UNL     1       6.632  -0.180  23.286  0.00  0.00    +0.292 HD
ENDBRANCH  19  22
ENDBRANCH   7  12
BRANCH   1  24
ATOM     24  O   UNL     1       6.525  -4.249  27.785  0.00  0.00    -0.507 OA
ATOM     25  H   UNL     1       6.959  -4.920  28.335  0.00  0.00    +0.292 HD
ENDBRANCH   1  24
BRANCH   9  26
ATOM     26  O   UNL     1      10.207  -5.114  24.794  0.00  0.00    -0.506 OA
ATOM     27  H   UNL     1      11.071  -4.747  25.038  0.00  0.00    +0.292 HD
ENDBRANCH   9  26
TORSDOF 5
ENDMDL
MODEL 4
REMARK VINA RESULT:      -6.8      1.119      2.301
REMARK  Name = 
REMARK  5 active torsions:
REMARK  status: ('A' for Active; 'I' for Inactive)
REMARK    1  A    between atoms: O_1  and  C_2
REMARK    2  A    between atoms: C_4  and  O_5
REMARK    3  A    between atoms: C_13  and  C_14
REMARK    4  A    between atoms: C_15  and  O_16
REMARK    5  A    between atoms: C_19  and  O_20
REMARK                            x       y       z     vdW  Elec       q    Type
REMARK                         _______ _______ _______ _____ _____    ______ ____
ROOT
ATOM      1  C   UNL     1       7.069   3.199  22.468  0.00  0.00    +0.124 A 
ATOM      2  C   UNL     1       6.843   1.892  22.868  0.00  0.00    +0.092 A 
ATOM      3  C   UNL     1       7.890   1.231  23.468  0.00  0.00    +0.147 A 
ATOM      4  C   UNL     1       9.145   1.804  23.657  0.00  0.00    +0.109 A 
ATOM      5  C   UNL     1      10.003   0.737  24.213  0.00  0.00    +0.235 C 
ATOM      6  C   UNL     1       9.079  -0.447  24.259  0.00  0.00    +0.176 C 
ATOM      7  C   UNL     1       9.400  -1.726  24.511  0.00  0.00    +0.061 C 
ATOM      8  O   UNL     1      11.173   0.761  24.514  0.00  0.00    -0.283 OA
ATOM      9  C   UNL     1       9.364   3.113  23.275  0.00  0.00    +0.135 A 
ATOM     10  O   UNL     1       7.802  -0.065  23.886  0.00  0.00    -0.451 OA
ATOM     11  C   UNL     1       8.310   3.824  22.676  0.00  0.00    +0.091 A 
ENDROOT
BRANCH   7  12
ATOM     12  C   UNL     1       8.445  -2.870  24.472  0.00  0.00    +0.022 A 
ATOM     13  C   UNL     1       8.099  -3.449  25.706  0.00  0.00    +0.030 A 
ATOM     14  C   UNL     1       7.186  -4.514  25.782  0.00  0.00    +0.061 A 
ATOM     15 BR   UNL     1       6.819  -5.267  27.485  0.00  0.00    -0.046 Br
ATOM     16  C   UNL     1       6.575  -5.006  24.630  0.00  0.00    +0.148 A 
ATOM     17  C   UNL     1       6.916  -4.466  23.391  0.00  0.00    +0.102 A 
ATOM     18 BR   UNL     1       6.068  -5.134  21.818  0.00  0.00    -0.043 Br
ATOM     19  C   UNL     1       7.878  -3.444  23.308  0.00  0.00    +0.142 A 
BRANCH  16  20
ATOM     20  O   UNL     1       5.663  -6.026  24.722  0.00  0.00    -0.504 OA
ATOM     21  H   UNL     1       5.090  -5.985  23.934  0.00  0.00    +0.292 HD
ENDBRANCH  16  20
BRANCH  19  22
ATOM     22  O   UNL     1       8.259  -3.084  22.039  0.00  0.00    -0.505 OA
ATOM     23  H   UNL     1       7.863  -2.229  21.814  0.00  0.00    +0.292 HD
ENDBRANCH  19  22
ENDBRANCH   7  12
BRANCH   1  24
ATOM     24  O   UNL     1       6.030   3.840  21.860  0.00  0.00    -0.507 OA
ATOM     25  H   UNL     1       6.004   3.609  20.917  0.00  0.00    +0.292 HD
ENDBRANCH   1  24
BRANCH   9  26
ATOM     26  O   UNL     1      10.576   3.710  23.461  0.00  0.00    -0.506 OA
ATOM     27  H   UNL     1      10.642   4.513  22.918  0.00  0.00    +0.292 HD
ENDBRANCH   9  26
TORSDOF 5
ENDMDL
MODEL 5
REMARK VINA RESULT:      -6.8      3.659      6.992
REMARK  Name = 
REMARK  5 active torsions:
REMARK  status: ('A' for Active; 'I' for Inactive)
REMARK    1  A    between atoms: O_1  and  C_2
REMARK    2  A    between atoms: C_4  and  O_5
REMARK    3  A    between atoms: C_13  and  C_14
REMARK    4  A    between atoms: C_15  and  O_16
REMARK    5  A    between atoms: C_19  and  O_20
REMARK                            x       y       z     vdW  Elec       q    Type
REMARK                         _______ _______ _______ _____ _____    ______ ____
ROOT
ATOM      1  C   UNL     1       5.513  -3.857  23.013  0.00  0.00    +0.124 A 
ATOM      2  C   UNL     1       5.999  -2.564  23.113  0.00  0.00    +0.092 A 
ATOM      3  C   UNL     1       7.342  -2.419  23.377  0.00  0.00    +0.147 A 
ATOM      4  C   UNL     1       8.201  -3.497  23.571  0.00  0.00    +0.109 A 
ATOM      5  C   UNL     1       9.508  -2.917  23.946  0.00  0.00    +0.235 C 
ATOM      6  C   UNL     1       9.229  -1.441  23.960  0.00  0.00    +0.176 C 
ATOM      7  C   UNL     1      10.027  -0.463  24.417  0.00  0.00    +0.061 C 
ATOM      8  O   UNL     1      10.546  -3.467  24.232  0.00  0.00    -0.283 OA
ATOM      9  C   UNL     1       7.719  -4.786  23.453  0.00  0.00    +0.135 A 
ATOM     10  O   UNL     1       7.939  -1.200  23.522  0.00  0.00    -0.451 OA
ATOM     11  C   UNL     1       6.356  -4.970  23.164  0.00  0.00    +0.091 A 
ENDROOT
BRANCH   7  12
ATOM     12  C   UNL     1       9.661   0.982  24.469  0.00  0.00    +0.022 A 
ATOM     13  C   UNL     1      10.583   1.889  23.917  0.00  0.00    +0.030 A 
ATOM     14  C   UNL     1      10.323   3.268  23.890  0.00  0.00    +0.061 A 
ATOM     15 BR   UNL     1      11.648   4.423  23.172  0.00  0.00    -0.046 Br
ATOM     16  C   UNL     1       9.123   3.773  24.388  0.00  0.00    +0.148 A 
ATOM     17  C   UNL     1       8.200   2.899  24.962  0.00  0.00    +0.102 A 
ATOM     18 BR   UNL     1       6.553   3.591  25.631  0.00  0.00    -0.043 Br
ATOM     19  C   UNL     1       8.489   1.525  25.047  0.00  0.00    +0.142 A 
BRANCH  16  20
ATOM     20  O   UNL     1       8.868   5.119  24.328  0.00  0.00    -0.504 OA
ATOM     21  H   UNL     1       7.980   5.270  24.699  0.00  0.00    +0.292 HD
ENDBRANCH  16  20
BRANCH  19  22
ATOM     22  O   UNL     1       7.593   0.771  25.763  0.00  0.00    -0.505 OA
ATOM     23  H   UNL     1       6.922   1.352  26.154  0.00  0.00    +0.292 HD
ENDBRANCH  19  22
ENDBRANCH   7  12
BRANCH   1  24
ATOM     24  O   UNL     1       4.178  -3.988  22.766  0.00  0.00    -0.507 OA
ATOM     25  H   UNL     1       4.031  -4.170  21.824  0.00  0.00    +0.292 HD
ENDBRANCH   1  24
BRANCH   9  26
ATOM     26  O   UNL     1       8.537  -5.865  23.620  0.00  0.00    -0.506 OA
ATOM     27  H   UNL     1       8.583  -6.382  22.800  0.00  0.00    +0.292 HD
ENDBRANCH   9  26
TORSDOF 5
ENDMDL
MODEL 6
REMARK VINA RESULT:      -6.8      1.972      2.102
REMARK  Name = 
REMARK  5 active torsions:
REMARK  status: ('A' for Active; 'I' for Inactive)
REMARK    1  A    between atoms: O_1  and  C_2
REMARK    2  A    between atoms: C_4  and  O_5
REMARK    3  A    between atoms: C_13  and  C_14
REMARK    4  A    between atoms: C_15  and  O_16
REMARK    5  A    between atoms: C_19  and  O_20
REMARK                            x       y       z     vdW  Elec       q    Type
REMARK                         _______ _______ _______ _____ _____    ______ ____
ROOT
ATOM      1  C   UNL     1       8.594   2.626  24.860  0.00  0.00    +0.124 A 
ATOM      2  C   UNL     1       8.156   1.338  25.124  0.00  0.00    +0.092 A 
ATOM      3  C   UNL     1       8.426   0.378  24.176  0.00  0.00    +0.147 A 
ATOM      4  C   UNL     1       9.080   0.653  22.977  0.00  0.00    +0.109 A 
ATOM      5  C   UNL     1       9.059  -0.604  22.201  0.00  0.00    +0.235 C 
ATOM      6  C   UNL     1       8.301  -1.541  23.099  0.00  0.00    +0.176 C 
ATOM      7  C   UNL     1       7.836  -2.764  22.799  0.00  0.00    +0.061 C 
ATOM      8  O   UNL     1       9.485  -0.840  21.095  0.00  0.00    -0.283 OA
ATOM      9  C   UNL     1       9.533   1.933  22.723  0.00  0.00    +0.135 A 
ATOM     10  O   UNL     1       8.027  -0.921  24.305  0.00  0.00    -0.451 OA
ATOM     11  C   UNL     1       9.292   2.934  23.680  0.00  0.00    +0.091 A 
ENDROOT
BRANCH   7  12
ATOM     12  C   UNL     1       7.026  -3.617  23.715  0.00  0.00    +0.022 A 
ATOM     13  C   UNL     1       5.755  -4.008  23.259  0.00  0.00    +0.030 A 
ATOM     14  C   UNL     1       4.924  -4.833  24.033  0.00  0.00    +0.061 A 
ATOM     15 BR   UNL     1       3.203  -5.267  23.360  0.00  0.00    -0.046 Br
ATOM     16  C   UNL     1       5.354  -5.313  25.270  0.00  0.00    +0.148 A 
ATOM     17  C   UNL     1       6.602  -4.923  25.756  0.00  0.00    +0.102 A 
ATOM     18 BR   UNL     1       7.193  -5.591  27.443  0.00  0.00    -0.043 Br
ATOM     19  C   UNL     1       7.407  -4.044  25.010  0.00  0.00    +0.142 A 
BRANCH  16  20
ATOM     20  O   UNL     1       4.545  -6.143  26.001  0.00  0.00    -0.504 OA
ATOM     21  H   UNL     1       4.949  -6.252  26.882  0.00  0.00    +0.292 HD
ENDBRANCH  16  20
BRANCH  19  22
ATOM     22  O   UNL     1       8.543  -3.599  25.638  0.00  0.00    -0.505 OA
ATOM     23  H   UNL     1       9.105  -4.356  25.863  0.00  0.00    +0.292 HD
ENDBRANCH  19  22
ENDBRANCH   7  12
BRANCH   1  24
ATOM     24  O   UNL     1       8.308   3.572  25.799  0.00  0.00    -0.507 OA
ATOM     25  H   UNL     1       7.693   4.227  25.433  0.00  0.00    +0.292 HD
ENDBRANCH   1  24
BRANCH   9  26
ATOM     26  O   UNL     1      10.193   2.233  21.568  0.00  0.00    -0.506 OA
ATOM     27  H   UNL     1       9.823   1.726  20.827  0.00  0.00    +0.292 HD
ENDBRANCH   9  26
TORSDOF 5
ENDMDL
MODEL 7
REMARK VINA RESULT:      -6.7      2.422      3.010
REMARK  Name = 
REMARK  5 active torsions:
REMARK  status: ('A' for Active; 'I' for Inactive)
REMARK    1  A    between atoms: O_1  and  C_2
REMARK    2  A    between atoms: C_4  and  O_5
REMARK    3  A    between atoms: C_13  and  C_14
REMARK    4  A    between atoms: C_15  and  O_16
REMARK    5  A    between atoms: C_19  and  O_20
REMARK                            x       y       z     vdW  Elec       q    Type
REMARK                         _______ _______ _______ _____ _____    ______ ____
ROOT
ATOM      1  C   UNL     1       8.183   1.235  25.690  0.00  0.00    +0.124 A 
ATOM      2  C   UNL     1       7.617   0.006  25.990  0.00  0.00    +0.092 A 
ATOM      3  C   UNL     1       8.180  -1.103  25.403  0.00  0.00    +0.147 A 
ATOM      4  C   UNL     1       9.252  -1.034  24.516  0.00  0.00    +0.109 A 
ATOM      5  C   UNL     1       9.467  -2.412  24.026  0.00  0.00    +0.235 C 
ATOM      6  C   UNL     1       8.382  -3.188  24.718  0.00  0.00    +0.176 C 
ATOM      7  C   UNL     1       8.009  -4.456  24.485  0.00  0.00    +0.061 C 
ATOM      8  O   UNL     1      10.270  -2.834  23.226  0.00  0.00    -0.283 OA
ATOM      9  C   UNL     1       9.827   0.188  24.232  0.00  0.00    +0.135 A 
ATOM     10  O   UNL     1       7.701  -2.366  25.598  0.00  0.00    -0.451 OA
ATOM     11  C   UNL     1       9.289   1.340  24.831  0.00  0.00    +0.091 A 
ENDROOT
BRANCH   7  12
ATOM     12  C   UNL     1       6.873  -5.149  25.158  0.00  0.00    +0.022 A 
ATOM     13  C   UNL     1       5.790  -5.527  24.346  0.00  0.00    +0.030 A 
ATOM     14  C   UNL     1       4.682  -6.208  24.876  0.00  0.00    +0.061 A 
ATOM     15 BR   UNL     1       3.243  -6.632  23.714  0.00  0.00    -0.046 Br
ATOM     16  C   UNL     1       4.643  -6.554  26.226  0.00  0.00    +0.148 A 
ATOM     17  C   UNL     1       5.694  -6.171  27.060  0.00  0.00    +0.102 A 
ATOM     18 BR   UNL     1       5.643  -6.657  28.904  0.00  0.00    -0.043 Br
ATOM     19  C   UNL     1       6.772  -5.433  26.541  0.00  0.00    +0.142 A 
BRANCH  16  20
ATOM     20  O   UNL     1       3.570  -7.245  26.725  0.00  0.00    -0.504 OA
ATOM     21  H   UNL     1       2.776  -6.694  26.599  0.00  0.00    +0.292 HD
ENDBRANCH  16  20
BRANCH  19  22
ATOM     22  O   UNL     1       7.678  -4.972  27.465  0.00  0.00    -0.505 OA
ATOM     23  H   UNL     1       8.196  -5.716  27.807  0.00  0.00    +0.292 HD
ENDBRANCH  19  22
ENDBRANCH   7  12
BRANCH   1  24
ATOM     24  O   UNL     1       7.607   2.328  26.266  0.00  0.00    -0.507 OA
ATOM     25  H   UNL     1       8.104   2.586  27.060  0.00  0.00    +0.292 HD
ENDBRANCH   1  24
BRANCH   9  26
ATOM     26  O   UNL     1      10.889   0.290  23.382  0.00  0.00    -0.506 OA
ATOM     27  H   UNL     1      10.603   0.144  22.466  0.00  0.00    +0.292 HD
ENDBRANCH   9  26
TORSDOF 5
ENDMDL
MODEL 8
REMARK VINA RESULT:      -6.7      3.470      7.233
REMARK  Name = 
REMARK  5 active torsions:
REMARK  status: ('A' for Active; 'I' for Inactive)
REMARK    1  A    between atoms: O_1  and  C_2
REMARK    2  A    between atoms: C_4  and  O_5
REMARK    3  A    between atoms: C_13  and  C_14
REMARK    4  A    between atoms: C_15  and  O_16
REMARK    5  A    between atoms: C_19  and  O_20
REMARK                            x       y       z     vdW  Elec       q    Type
REMARK                         _______ _______ _______ _____ _____    ______ ____
ROOT
ATOM      1  C   UNL     1       6.615  -4.476  22.096  0.00  0.00    +0.124 A 
ATOM      2  C   UNL     1       7.080  -3.172  22.142  0.00  0.00    +0.092 A 
ATOM      3  C   UNL     1       7.650  -2.752  23.322  0.00  0.00    +0.147 A 
ATOM      4  C   UNL     1       7.746  -3.560  24.453  0.00  0.00    +0.109 A 
ATOM      5  C   UNL     1       8.298  -2.703  25.522  0.00  0.00    +0.235 C 
ATOM      6  C   UNL     1       8.444  -1.370  24.844  0.00  0.00    +0.176 C 
ATOM      7  C   UNL     1       8.731  -0.189  25.415  0.00  0.00    +0.061 C 
ATOM      8  O   UNL     1       8.534  -2.962  26.680  0.00  0.00    -0.283 OA
ATOM      9  C   UNL     1       7.299  -4.865  24.400  0.00  0.00    +0.135 A 
ATOM     10  O   UNL     1       8.125  -1.485  23.503  0.00  0.00    -0.451 OA
ATOM     11  C   UNL     1       6.729  -5.333  23.204  0.00  0.00    +0.091 A 
ENDROOT
BRANCH   7  12
ATOM     12  C   UNL     1       8.791   1.115  24.694  0.00  0.00    +0.022 A 
ATOM     13  C   UNL     1       7.563   1.710  24.358  0.00  0.00    +0.030 A 
ATOM     14  C   UNL     1       7.509   2.951  23.702  0.00  0.00    +0.061 A 
ATOM     15 BR   UNL     1       5.807   3.654  23.240  0.00  0.00    -0.046 Br
ATOM     16  C   UNL     1       8.680   3.640  23.392  0.00  0.00    +0.148 A 
ATOM     17  C   UNL     1       9.913   3.063  23.694  0.00  0.00    +0.102 A 
ATOM     18 BR   UNL     1      11.514   4.015  23.281  0.00  0.00    -0.043 Br
ATOM     19  C   UNL     1       9.968   1.791  24.292  0.00  0.00    +0.142 A 
BRANCH  16  20
ATOM     20  O   UNL     1       8.612   4.865  22.780  0.00  0.00    -0.504 OA
ATOM     21  H   UNL     1       8.839   4.740  21.840  0.00  0.00    +0.292 HD
ENDBRANCH  16  20
BRANCH  19  22
ATOM     22  O   UNL     1      11.221   1.242  24.410  0.00  0.00    -0.505 OA
ATOM     23  H   UNL     1      11.176   0.293  24.217  0.00  0.00    +0.292 HD
ENDBRANCH  19  22
ENDBRANCH   7  12
BRANCH   1  24
ATOM     24  O   UNL     1       6.039  -4.877  20.927  0.00  0.00    -0.507 OA
ATOM     25  H   UNL     1       6.615  -4.652  20.179  0.00  0.00    +0.292 HD
ENDBRANCH   1  24
BRANCH   9  26
ATOM     26  O   UNL     1       7.393  -5.689  25.483  0.00  0.00    -0.506 OA
ATOM     27  H   UNL     1       6.562  -6.174  25.611  0.00  0.00    +0.292 HD
ENDBRANCH   9  26
TORSDOF 5
ENDMDL
MODEL 9
REMARK VINA RESULT:      -6.6      2.318      3.179
REMARK  Name = 
REMARK  5 active torsions:
REMARK  status: ('A' for Active; 'I' for Inactive)
REMARK    1  A    between atoms: O_1  and  C_2
REMARK    2  A    between atoms: C_4  and  O_5
REMARK    3  A    between atoms: C_13  and  C_14
REMARK    4  A    between atoms: C_15  and  O_16
REMARK    5  A    between atoms: C_19  and  O_20
REMARK                            x       y       z     vdW  Elec       q    Type
REMARK                         _______ _______ _______ _____ _____    ______ ____
ROOT
ATOM      1  C   UNL     1       9.206   1.894  22.550  0.00  0.00    +0.124 A 
ATOM      2  C   UNL     1       8.429   0.751  22.457  0.00  0.00    +0.092 A 
ATOM      3  C   UNL     1       7.623   0.453  23.532  0.00  0.00    +0.147 A 
ATOM      4  C   UNL     1       7.584   1.223  24.692  0.00  0.00    +0.109 A 
ATOM      5  C   UNL     1       6.701   0.502  25.632  0.00  0.00    +0.235 C 
ATOM      6  C   UNL     1       6.319  -0.728  24.859  0.00  0.00    +0.176 C 
ATOM      7  C   UNL     1       5.675  -1.814  25.316  0.00  0.00    +0.061 C 
ATOM      8  O   UNL     1       6.389   0.776  26.768  0.00  0.00    -0.283 OA
ATOM      9  C   UNL     1       8.345   2.372  24.776  0.00  0.00    +0.135 A 
ATOM     10  O   UNL     1       6.829  -0.656  23.575  0.00  0.00    -0.451 OA
ATOM     11  C   UNL     1       9.165   2.717  23.688  0.00  0.00    +0.091 A 
ENDROOT
BRANCH   7  12
ATOM     12  C   UNL     1       5.387  -3.036  24.511  0.00  0.00    +0.022 A 
ATOM     13  C   UNL     1       4.062  -3.506  24.526  0.00  0.00    +0.030 A 
ATOM     14  C   UNL     1       3.679  -4.633  23.781  0.00  0.00    +0.061 A 
ATOM     15 BR   UNL     1       1.880  -5.227  23.901  0.00  0.00    -0.046 Br
ATOM     16  C   UNL     1       4.605  -5.302  22.981  0.00  0.00    +0.148 A 
ATOM     17  C   UNL     1       5.931  -4.871  22.966  0.00  0.00    +0.102 A 
ATOM     18 BR   UNL     1       7.193  -5.780  21.860  0.00  0.00    -0.043 Br
ATOM     19  C   UNL     1       6.328  -3.782  23.762  0.00  0.00    +0.142 A 
BRANCH  16  20
ATOM     20  O   UNL     1       4.211  -6.383  22.235  0.00  0.00    -0.504 OA
ATOM     21  H   UNL     1       3.237  -6.399  22.227  0.00  0.00    +0.292 HD
ENDBRANCH  16  20
BRANCH  19  22
ATOM     22  O   UNL     1       7.677  -3.530  23.798  0.00  0.00    -0.505 OA
ATOM     23  H   UNL     1       7.963  -3.180  22.941  0.00  0.00    +0.292 HD
ENDBRANCH  19  22
ENDBRANCH   7  12
BRANCH   1  24
ATOM     24  O   UNL     1      10.012   2.172  21.485  0.00  0.00    -0.507 OA
ATOM     25  H   UNL     1       9.481   2.515  20.748  0.00  0.00    +0.292 HD
ENDBRANCH   1  24
BRANCH   9  26
ATOM     26  O   UNL     1       8.318   3.158  25.890  0.00  0.00    -0.506 OA
ATOM     27  H   UNL     1       9.094   2.982  26.446  0.00  0.00    +0.292 HD
ENDBRANCH   9  26
TORSDOF 5
ENDMDL
