MODEL 1
REMARK VINA RESULT:      -5.8      0.000      0.000
REMARK  Name = 
REMARK  29 active torsions:
REMARK  status: ('A' for Active; 'I' for Inactive)
REMARK    1  A    between atoms: C_1  and  O_2
REMARK    2  A    between atoms: O_2  and  C_3
REMARK    3  A    between atoms: C_3  and  C_4
REMARK    4  A    between atoms: C_4  and  C_5
REMARK    5  A    between atoms: C_5  and  O_6
REMARK    6  A    between atoms: O_6  and  C_7
REMARK    7  A    between atoms: C_8  and  O_9
REMARK    8  A    between atoms: O_9  and  C_10
REMARK    9  A    between atoms: C_13  and  C_14
REMARK   10  A    between atoms: C_14  and  C_15
REMARK   11  A    between atoms: C_15  and  C_17
REMARK   12  A    between atoms: C_15  and  C_40
REMARK   13  A    between atoms: C_17  and  C_18
REMARK   14  A    between atoms: C_18  and  N_20
REMARK   15  A    between atoms: C_18  and  C_21
REMARK   16  A    between atoms: C_21  and  O_23
REMARK   17  A    between atoms: C_21  and  C_24
REMARK   18  A    between atoms: C_24  and  C_25
REMARK   19  A    between atoms: C_25  and  C_27
REMARK   20  A    between atoms: C_25  and  C_30
REMARK   21  A    between atoms: C_27  and  C_28
REMARK   22  A    between atoms: C_27  and  C_29
REMARK   23  A    between atoms: N_32  and  C_33
REMARK   24  A    between atoms: C_33  and  C_34
REMARK   25  A    between atoms: C_34  and  C_35
REMARK   26  A    between atoms: C_34  and  C_36
REMARK   27  A    between atoms: C_34  and  C_37
REMARK   28  A    between atoms: C_40  and  C_41
REMARK   29  A    between atoms: C_40  and  C_42
REMARK                            x       y       z     vdW  Elec       q    Type
REMARK                         _______ _______ _______ _____ _____    ______ ____
ROOT
ATOM      1  C   UNL     1       8.641  -5.020  25.150  0.00  0.00    +0.080 C 
ENDROOT
BRANCH   1   2
ATOM      2  N   UNL     1       9.897  -5.782  25.232  0.00  0.00    -0.325 NA
ATOM      3  H   UNL     1      10.586  -5.515  24.528  0.00  0.00    +0.119 HD
ATOM      4  H   UNL     1       9.687  -6.766  25.049  0.00  0.00    +0.119 HD
ENDBRANCH   1   2
BRANCH   1   5
ATOM      5  C   UNL     1       7.606  -5.438  26.307  0.00  0.00    +0.132 C 
BRANCH   5   6
ATOM      6  O   UNL     1       7.713  -4.553  27.424  0.00  0.00    -0.390 OA
ATOM      7  H   UNL     1       8.078  -3.716  27.079  0.00  0.00    +0.210 HD
ENDBRANCH   5   6
BRANCH   5   8
ATOM      8  C   UNL     1       6.078  -5.788  26.035  0.00  0.00    +0.046 C 
BRANCH   8   9
ATOM      9  C   UNL     1       4.960  -4.915  25.340  0.00  0.00    +0.080 C 
BRANCH   9  10
ATOM     10  C   UNL     1       4.615  -3.704  26.283  0.00  0.00    +0.216 C 
ATOM     11  N   UNL     1       5.588  -2.730  26.439  0.00  0.00    -0.314 N 
ATOM     12  H   UNL     1       6.419  -2.784  25.865  0.00  0.00    +0.149 HD
ATOM     13  O   UNL     1       3.541  -3.631  26.879  0.00  0.00    -0.276 OA
BRANCH  11  14
ATOM     14  C   UNL     1       5.350  -1.470  27.179  0.00  0.00    +0.119 C 
BRANCH  14  15
ATOM     15  C   UNL     1       6.054  -0.226  26.579  0.00  0.00    +0.057 C 
ATOM     16  C   UNL     1       5.744   1.024  27.424  0.00  0.00    +0.022 C 
ATOM     17  C   UNL     1       5.579   0.014  25.136  0.00  0.00    +0.022 C 
BRANCH  15  18
ATOM     18  C   UNL     1       7.585  -0.419  26.596  0.00  0.00    +0.218 C 
ATOM     19  O   UNL     1       8.135  -1.483  26.876  0.00  0.00    -0.275 OA
ATOM     20  N   UNL     1       8.367   0.650  26.282  0.00  0.00    -0.329 N 
ATOM     21  H   UNL     1       9.367   0.528  26.401  0.00  0.00    +0.145 HD
ATOM     22  H   UNL     1       8.015   1.594  26.220  0.00  0.00    +0.145 HD
ENDBRANCH  15  18
ENDBRANCH  14  15
ENDBRANCH  11  14
ENDBRANCH   9  10
BRANCH   9  23
ATOM     23  C   UNL     1       3.625  -5.669  25.073  0.00  0.00    -0.005 C 
ATOM     24  C   UNL     1       3.853  -7.151  24.927  0.00  0.00    +0.008 C 
ATOM     25  C   UNL     1       2.860  -5.213  23.824  0.00  0.00    +0.008 C 
ENDBRANCH   9  23
ENDBRANCH   8   9
ENDBRANCH   5   8
ENDBRANCH   1   5
BRANCH   1  26
ATOM     26  C   UNL     1       8.148  -5.305  23.683  0.00  0.00    +0.025 C 
BRANCH  26  27
ATOM     27  C   UNL     1       7.783  -4.005  22.834  0.00  0.00    -0.003 C 
BRANCH  27  28
ATOM     28  C   UNL     1       6.583  -4.289  21.874  0.00  0.00    -0.014 C 
ATOM     29  C   UNL     1       5.431  -3.294  22.082  0.00  0.00    +0.007 C 
ATOM     30  C   UNL     1       6.052  -5.718  21.926  0.00  0.00    +0.007 C 
ENDBRANCH  27  28
BRANCH  27  31
ATOM     31  C   UNL     1       7.760  -2.587  23.532  0.00  0.00    +0.039 C 
BRANCH  31  34
ATOM     32  C   UNL     1       8.662   0.859  22.204  0.00  0.00    +0.162 A 
ATOM     33  C   UNL     1       8.073  -0.394  22.377  0.00  0.00    +0.053 A 
ATOM     34  C   UNL     1       8.631  -1.418  23.117  0.00  0.00    -0.043 A 
ATOM     35  C   UNL     1       9.906  -1.174  23.637  0.00  0.00    +0.007 A 
ATOM     36  C   UNL     1      10.579   0.053  23.383  0.00  0.00    +0.049 A 
ATOM     37  C   UNL     1       9.959   1.074  22.660  0.00  0.00    +0.162 A 
BRANCH  37  38
ATOM     38  O   UNL     1      10.484   2.311  22.424  0.00  0.00    -0.491 OA
ATOM     39  C   UNL     1      10.981   3.020  23.550  0.00  0.00    +0.277 C 
ENDBRANCH  37  38
BRANCH  32  40
ATOM     40  O   UNL     1       7.958   1.898  21.631  0.00  0.00    -0.488 OA
BRANCH  40  41
ATOM     41  C   UNL     1       6.730   2.179  22.311  0.00  0.00    +0.231 C 
BRANCH  41  42
ATOM     42  C   UNL     1       6.908   3.112  23.481  0.00  0.00    +0.069 C 
BRANCH  42  43
ATOM     43  C   UNL     1       7.639   4.367  23.068  0.00  0.00    +0.163 C 
BRANCH  43  45
ATOM     44  C   UNL     1       7.314   6.373  21.908  0.00  0.00    +0.193 C 
ATOM     45  O   UNL     1       6.756   5.099  22.210  0.00  0.00    -0.383 OA
ENDBRANCH  43  45
ENDBRANCH  42  43
ENDBRANCH  41  42
ENDBRANCH  40  41
ENDBRANCH  32  40
ENDBRANCH  31  34
ENDBRANCH  27  31
ENDBRANCH  26  27
ENDBRANCH   1  26
TORSDOF 21
ENDMDL
MODEL 2
REMARK VINA RESULT:      -5.3      2.046      4.211
REMARK  Name = 
REMARK  29 active torsions:
REMARK  status: ('A' for Active; 'I' for Inactive)
REMARK    1  A    between atoms: C_1  and  O_2
REMARK    2  A    between atoms: O_2  and  C_3
REMARK    3  A    between atoms: C_3  and  C_4
REMARK    4  A    between atoms: C_4  and  C_5
REMARK    5  A    between atoms: C_5  and  O_6
REMARK    6  A    between atoms: O_6  and  C_7
REMARK    7  A    between atoms: C_8  and  O_9
REMARK    8  A    between atoms: O_9  and  C_10
REMARK    9  A    between atoms: C_13  and  C_14
REMARK   10  A    between atoms: C_14  and  C_15
REMARK   11  A    between atoms: C_15  and  C_17
REMARK   12  A    between atoms: C_15  and  C_40
REMARK   13  A    between atoms: C_17  and  C_18
REMARK   14  A    between atoms: C_18  and  N_20
REMARK   15  A    between atoms: C_18  and  C_21
REMARK   16  A    between atoms: C_21  and  O_23
REMARK   17  A    between atoms: C_21  and  C_24
REMARK   18  A    between atoms: C_24  and  C_25
REMARK   19  A    between atoms: C_25  and  C_27
REMARK   20  A    between atoms: C_25  and  C_30
REMARK   21  A    between atoms: C_27  and  C_28
REMARK   22  A    between atoms: C_27  and  C_29
REMARK   23  A    between atoms: N_32  and  C_33
REMARK   24  A    between atoms: C_33  and  C_34
REMARK   25  A    between atoms: C_34  and  C_35
REMARK   26  A    between atoms: C_34  and  C_36
REMARK   27  A    between atoms: C_34  and  C_37
REMARK   28  A    between atoms: C_40  and  C_41
REMARK   29  A    between atoms: C_40  and  C_42
REMARK                            x       y       z     vdW  Elec       q    Type
REMARK                         _______ _______ _______ _____ _____    ______ ____
ROOT
ATOM      1  C   UNL     1       8.637  -4.842  25.406  0.00  0.00    +0.080 C 
ENDROOT
BRANCH   1   2
ATOM      2  N   UNL     1       9.833  -5.663  25.654  0.00  0.00    -0.325 NA
ATOM      3  H   UNL     1       9.834  -6.122  26.566  0.00  0.00    +0.119 HD
ATOM      4  H   UNL     1      10.649  -5.048  25.657  0.00  0.00    +0.119 HD
ENDBRANCH   1   2
BRANCH   1   5
ATOM      5  C   UNL     1       7.440  -5.201  26.417  0.00  0.00    +0.132 C 
BRANCH   5   6
ATOM      6  O   UNL     1       7.936  -5.906  27.557  0.00  0.00    -0.390 OA
ATOM      7  H   UNL     1       8.904  -5.786  27.556  0.00  0.00    +0.210 HD
ENDBRANCH   5   6
BRANCH   5   8
ATOM      8  C   UNL     1       6.325  -4.158  26.865  0.00  0.00    +0.046 C 
BRANCH   8   9
ATOM      9  C   UNL     1       4.833  -4.420  27.313  0.00  0.00    +0.080 C 
BRANCH   9  10
ATOM     10  C   UNL     1       4.445  -5.892  26.917  0.00  0.00    +0.216 C 
ATOM     11  N   UNL     1       3.743  -6.062  25.734  0.00  0.00    -0.314 N 
ATOM     12  H   UNL     1       3.610  -5.258  25.135  0.00  0.00    +0.149 HD
ATOM     13  O   UNL     1       4.727  -6.853  27.633  0.00  0.00    -0.276 OA
BRANCH  11  14
ATOM     14  C   UNL     1       3.438  -7.395  25.167  0.00  0.00    +0.119 C 
BRANCH  14  15
ATOM     15  C   UNL     1       2.032  -7.518  24.528  0.00  0.00    +0.057 C 
ATOM     16  C   UNL     1       1.010  -6.678  25.316  0.00  0.00    +0.022 C 
ATOM     17  C   UNL     1       1.574  -8.986  24.519  0.00  0.00    +0.022 C 
BRANCH  15  18
ATOM     18  C   UNL     1       2.052  -6.973  23.084  0.00  0.00    +0.218 C 
ATOM     19  O   UNL     1       2.295  -5.801  22.801  0.00  0.00    -0.275 OA
ATOM     20  N   UNL     1       1.788  -7.842  22.069  0.00  0.00    -0.329 N 
ATOM     21  H   UNL     1       1.704  -7.439  21.142  0.00  0.00    +0.145 HD
ATOM     22  H   UNL     1       1.403  -8.763  22.216  0.00  0.00    +0.145 HD
ENDBRANCH  15  18
ENDBRANCH  14  15
ENDBRANCH  11  14
ENDBRANCH   9  10
BRANCH   9  23
ATOM     23  C   UNL     1       3.784  -3.485  26.643  0.00  0.00    -0.005 C 
ATOM     24  C   UNL     1       4.374  -2.133  26.334  0.00  0.00    +0.008 C 
ATOM     25  C   UNL     1       2.515  -3.237  27.468  0.00  0.00    +0.008 C 
ENDBRANCH   9  23
ENDBRANCH   8   9
ENDBRANCH   5   8
ENDBRANCH   1   5
BRANCH   1  26
ATOM     26  C   UNL     1       8.329  -5.113  23.888  0.00  0.00    +0.025 C 
BRANCH  26  27
ATOM     27  C   UNL     1       7.587  -3.922  23.130  0.00  0.00    -0.003 C 
BRANCH  27  28
ATOM     28  C   UNL     1       6.200  -4.391  22.584  0.00  0.00    -0.014 C 
ATOM     29  C   UNL     1       5.051  -3.511  23.097  0.00  0.00    +0.007 C 
ATOM     30  C   UNL     1       5.883  -5.861  22.836  0.00  0.00    +0.007 C 
ENDBRANCH  27  28
BRANCH  27  31
ATOM     31  C   UNL     1       7.607  -2.464  23.743  0.00  0.00    +0.039 C 
BRANCH  31  34
ATOM     32  C   UNL     1       8.612   0.891  22.265  0.00  0.00    +0.162 A 
ATOM     33  C   UNL     1       7.976  -0.329  22.501  0.00  0.00    +0.053 A 
ATOM     34  C   UNL     1       8.512  -1.349  23.261  0.00  0.00    -0.043 A 
ATOM     35  C   UNL     1       9.812  -1.141  23.736  0.00  0.00    +0.007 A 
ATOM     36  C   UNL     1      10.528   0.046  23.420  0.00  0.00    +0.049 A 
ATOM     37  C   UNL     1       9.929   1.066  22.676  0.00  0.00    +0.162 A 
BRANCH  37  38
ATOM     38  O   UNL     1      10.499   2.271  22.381  0.00  0.00    -0.491 OA
ATOM     39  C   UNL     1      10.775   3.133  23.475  0.00  0.00    +0.277 C 
ENDBRANCH  37  38
BRANCH  32  40
ATOM     40  O   UNL     1       7.935   1.938  21.674  0.00  0.00    -0.488 OA
BRANCH  40  41
ATOM     41  C   UNL     1       6.833   2.403  22.461  0.00  0.00    +0.231 C 
BRANCH  41  42
ATOM     42  C   UNL     1       7.115   3.714  23.147  0.00  0.00    +0.069 C 
BRANCH  42  43
ATOM     43  C   UNL     1       6.361   4.844  22.488  0.00  0.00    +0.163 C 
BRANCH  43  45
ATOM     44  C   UNL     1       8.279   6.120  22.901  0.00  0.00    +0.193 C 
ATOM     45  O   UNL     1       7.340   5.715  21.910  0.00  0.00    -0.383 OA
ENDBRANCH  43  45
ENDBRANCH  42  43
ENDBRANCH  41  42
ENDBRANCH  40  41
ENDBRANCH  32  40
ENDBRANCH  31  34
ENDBRANCH  27  31
ENDBRANCH  26  27
ENDBRANCH   1  26
TORSDOF 21
ENDMDL
MODEL 3
REMARK VINA RESULT:      -5.3      2.251      4.003
REMARK  Name = 
REMARK  29 active torsions:
REMARK  status: ('A' for Active; 'I' for Inactive)
REMARK    1  A    between atoms: C_1  and  O_2
REMARK    2  A    between atoms: O_2  and  C_3
REMARK    3  A    between atoms: C_3  and  C_4
REMARK    4  A    between atoms: C_4  and  C_5
REMARK    5  A    between atoms: C_5  and  O_6
REMARK    6  A    between atoms: O_6  and  C_7
REMARK    7  A    between atoms: C_8  and  O_9
REMARK    8  A    between atoms: O_9  and  C_10
REMARK    9  A    between atoms: C_13  and  C_14
REMARK   10  A    between atoms: C_14  and  C_15
REMARK   11  A    between atoms: C_15  and  C_17
REMARK   12  A    between atoms: C_15  and  C_40
REMARK   13  A    between atoms: C_17  and  C_18
REMARK   14  A    between atoms: C_18  and  N_20
REMARK   15  A    between atoms: C_18  and  C_21
REMARK   16  A    between atoms: C_21  and  O_23
REMARK   17  A    between atoms: C_21  and  C_24
REMARK   18  A    between atoms: C_24  and  C_25
REMARK   19  A    between atoms: C_25  and  C_27
REMARK   20  A    between atoms: C_25  and  C_30
REMARK   21  A    between atoms: C_27  and  C_28
REMARK   22  A    between atoms: C_27  and  C_29
REMARK   23  A    between atoms: N_32  and  C_33
REMARK   24  A    between atoms: C_33  and  C_34
REMARK   25  A    between atoms: C_34  and  C_35
REMARK   26  A    between atoms: C_34  and  C_36
REMARK   27  A    between atoms: C_34  and  C_37
REMARK   28  A    between atoms: C_40  and  C_41
REMARK   29  A    between atoms: C_40  and  C_42
REMARK                            x       y       z     vdW  Elec       q    Type
REMARK                         _______ _______ _______ _____ _____    ______ ____
ROOT
ATOM      1  C   UNL     1       8.314  -4.472  26.751  0.00  0.00    +0.080 C 
ENDROOT
BRANCH   1   2
ATOM      2  N   UNL     1       9.709  -4.931  26.662  0.00  0.00    -0.325 NA
ATOM      3  H   UNL     1      10.349  -4.422  27.273  0.00  0.00    +0.119 HD
ATOM      4  H   UNL     1      10.043  -4.759  25.712  0.00  0.00    +0.119 HD
ENDBRANCH   1   2
BRANCH   1   5
ATOM      5  C   UNL     1       7.294  -5.689  26.994  0.00  0.00    +0.132 C 
BRANCH   5   6
ATOM      6  O   UNL     1       7.530  -6.300  28.265  0.00  0.00    -0.390 OA
ATOM      7  H   UNL     1       8.329  -6.849  28.163  0.00  0.00    +0.210 HD
ENDBRANCH   5   6
BRANCH   5   8
ATOM      8  C   UNL     1       5.729  -5.593  26.720  0.00  0.00    +0.046 C 
BRANCH   8   9
ATOM      9  C   UNL     1       4.688  -6.751  26.452  0.00  0.00    +0.080 C 
BRANCH   9  10
ATOM     10  C   UNL     1       4.403  -6.817  24.907  0.00  0.00    +0.216 C 
ATOM     11  N   UNL     1       4.970  -5.828  24.119  0.00  0.00    -0.314 N 
ATOM     12  H   UNL     1       5.619  -5.184  24.550  0.00  0.00    +0.149 HD
ATOM     13  O   UNL     1       3.688  -7.690  24.415  0.00  0.00    -0.276 OA
BRANCH  11  14
ATOM     14  C   UNL     1       4.906  -5.846  22.640  0.00  0.00    +0.119 C 
BRANCH  14  15
ATOM     15  C   UNL     1       6.196  -5.362  21.932  0.00  0.00    +0.057 C 
ATOM     16  C   UNL     1       6.217  -5.843  20.469  0.00  0.00    +0.022 C 
ATOM     17  C   UNL     1       7.440  -5.903  22.656  0.00  0.00    +0.022 C 
BRANCH  15  18
ATOM     18  C   UNL     1       6.243  -3.819  21.904  0.00  0.00    +0.218 C 
ATOM     19  O   UNL     1       5.256  -3.110  21.714  0.00  0.00    -0.275 OA
ATOM     20  N   UNL     1       7.446  -3.213  22.101  0.00  0.00    -0.329 N 
ATOM     21  H   UNL     1       7.470  -2.207  21.975  0.00  0.00    +0.145 HD
ATOM     22  H   UNL     1       8.325  -3.708  22.081  0.00  0.00    +0.145 HD
ENDBRANCH  15  18
ENDBRANCH  14  15
ENDBRANCH  11  14
ENDBRANCH   9  10
BRANCH   9  23
ATOM     23  C   UNL     1       3.312  -6.555  27.154  0.00  0.00    -0.005 C 
ATOM     24  C   UNL     1       2.764  -5.172  26.909  0.00  0.00    +0.008 C 
ATOM     25  C   UNL     1       3.322  -6.766  28.673  0.00  0.00    +0.008 C 
ENDBRANCH   9  23
ENDBRANCH   8   9
ENDBRANCH   5   8
ENDBRANCH   1   5
BRANCH   1  26
ATOM     26  C   UNL     1       8.110  -3.694  25.399  0.00  0.00    +0.025 C 
BRANCH  26  27
ATOM     27  C   UNL     1       7.624  -2.184  25.560  0.00  0.00    -0.003 C 
BRANCH  27  28
ATOM     28  C   UNL     1       6.210  -2.125  26.223  0.00  0.00    -0.014 C 
ATOM     29  C   UNL     1       5.082  -2.245  25.187  0.00  0.00    +0.007 C 
ATOM     30  C   UNL     1       5.974  -0.906  27.110  0.00  0.00    +0.007 C 
ENDBRANCH  27  28
BRANCH  27  31
ATOM     31  C   UNL     1       8.640  -1.076  26.051  0.00  0.00    +0.039 C 
BRANCH  31  34
ATOM     32  C   UNL     1       8.716   2.526  24.838  0.00  0.00    +0.162 A 
ATOM     33  C   UNL     1       8.287   1.275  25.285  0.00  0.00    +0.053 A 
ATOM     34  C   UNL     1       9.052   0.127  25.228  0.00  0.00    -0.043 A 
ATOM     35  C   UNL     1      10.295   0.250  24.598  0.00  0.00    +0.007 A 
ATOM     36  C   UNL     1      10.713   1.487  24.035  0.00  0.00    +0.049 A 
ATOM     37  C   UNL     1       9.919   2.630  24.149  0.00  0.00    +0.162 A 
BRANCH  37  38
ATOM     38  O   UNL     1      10.257   3.878  23.711  0.00  0.00    -0.491 OA
ATOM     39  C   UNL     1      11.608   4.072  23.314  0.00  0.00    +0.277 C 
ENDBRANCH  37  38
BRANCH  32  40
ATOM     40  O   UNL     1       7.985   3.663  25.114  0.00  0.00    -0.488 OA
BRANCH  40  41
ATOM     41  C   UNL     1       6.576   3.472  24.950  0.00  0.00    +0.231 C 
BRANCH  41  42
ATOM     42  C   UNL     1       5.979   4.381  23.907  0.00  0.00    +0.069 C 
BRANCH  42  43
ATOM     43  C   UNL     1       6.149   3.804  22.522  0.00  0.00    +0.163 C 
BRANCH  43  45
ATOM     44  C   UNL     1       7.241   5.822  22.066  0.00  0.00    +0.193 C 
ATOM     45  O   UNL     1       7.322   4.404  21.963  0.00  0.00    -0.383 OA
ENDBRANCH  43  45
ENDBRANCH  42  43
ENDBRANCH  41  42
ENDBRANCH  40  41
ENDBRANCH  32  40
ENDBRANCH  31  34
ENDBRANCH  27  31
ENDBRANCH  26  27
ENDBRANCH   1  26
TORSDOF 21
ENDMDL
MODEL 4
REMARK VINA RESULT:      -5.2      3.378      8.692
REMARK  Name = 
REMARK  29 active torsions:
REMARK  status: ('A' for Active; 'I' for Inactive)
REMARK    1  A    between atoms: C_1  and  O_2
REMARK    2  A    between atoms: O_2  and  C_3
REMARK    3  A    between atoms: C_3  and  C_4
REMARK    4  A    between atoms: C_4  and  C_5
REMARK    5  A    between atoms: C_5  and  O_6
REMARK    6  A    between atoms: O_6  and  C_7
REMARK    7  A    between atoms: C_8  and  O_9
REMARK    8  A    between atoms: O_9  and  C_10
REMARK    9  A    between atoms: C_13  and  C_14
REMARK   10  A    between atoms: C_14  and  C_15
REMARK   11  A    between atoms: C_15  and  C_17
REMARK   12  A    between atoms: C_15  and  C_40
REMARK   13  A    between atoms: C_17  and  C_18
REMARK   14  A    between atoms: C_18  and  N_20
REMARK   15  A    between atoms: C_18  and  C_21
REMARK   16  A    between atoms: C_21  and  O_23
REMARK   17  A    between atoms: C_21  and  C_24
REMARK   18  A    between atoms: C_24  and  C_25
REMARK   19  A    between atoms: C_25  and  C_27
REMARK   20  A    between atoms: C_25  and  C_30
REMARK   21  A    between atoms: C_27  and  C_28
REMARK   22  A    between atoms: C_27  and  C_29
REMARK   23  A    between atoms: N_32  and  C_33
REMARK   24  A    between atoms: C_33  and  C_34
REMARK   25  A    between atoms: C_34  and  C_35
REMARK   26  A    between atoms: C_34  and  C_36
REMARK   27  A    between atoms: C_34  and  C_37
REMARK   28  A    between atoms: C_40  and  C_41
REMARK   29  A    between atoms: C_40  and  C_42
REMARK                            x       y       z     vdW  Elec       q    Type
REMARK                         _______ _______ _______ _____ _____    ______ ____
ROOT
ATOM      1  C   UNL     1       8.788   1.620  22.356  0.00  0.00    +0.080 C 
ENDROOT
BRANCH   1   2
ATOM      2  N   UNL     1       9.889   2.214  21.580  0.00  0.00    -0.325 NA
ATOM      3  H   UNL     1       9.970   1.843  20.633  0.00  0.00    +0.119 HD
ATOM      4  H   UNL     1      10.769   1.980  22.043  0.00  0.00    +0.119 HD
ENDBRANCH   1   2
BRANCH   1   5
ATOM      5  C   UNL     1       7.373   2.300  22.010  0.00  0.00    +0.132 C 
BRANCH   5   6
ATOM      6  O   UNL     1       6.296   1.420  22.341  0.00  0.00    -0.390 OA
ATOM      7  H   UNL     1       6.556   0.964  23.163  0.00  0.00    +0.210 HD
ENDBRANCH   5   6
BRANCH   5   8
ATOM      8  C   UNL     1       6.996   3.794  22.406  0.00  0.00    +0.046 C 
BRANCH   8   9
ATOM      9  C   UNL     1       6.601   4.386  23.816  0.00  0.00    +0.080 C 
BRANCH   9  10
ATOM     10  C   UNL     1       5.253   5.181  23.663  0.00  0.00    +0.216 C 
ATOM     11  N   UNL     1       4.702   5.250  22.393  0.00  0.00    -0.314 N 
ATOM     12  H   UNL     1       5.126   4.703  21.656  0.00  0.00    +0.149 HD
ATOM     13  O   UNL     1       4.717   5.741  24.619  0.00  0.00    -0.276 OA
BRANCH  11  14
ATOM     14  C   UNL     1       3.371   5.839  22.126  0.00  0.00    +0.119 C 
BRANCH  14  15
ATOM     15  C   UNL     1       2.340   4.856  21.517  0.00  0.00    +0.057 C 
ATOM     16  C   UNL     1       1.009   4.930  22.288  0.00  0.00    +0.022 C 
ATOM     17  C   UNL     1       2.874   3.415  21.575  0.00  0.00    +0.022 C 
BRANCH  15  18
ATOM     18  C   UNL     1       2.039   5.239  20.052  0.00  0.00    +0.218 C 
ATOM     19  O   UNL     1       1.481   6.284  19.721  0.00  0.00    -0.275 OA
ATOM     20  N   UNL     1       2.414   4.369  19.074  0.00  0.00    -0.329 N 
ATOM     21  H   UNL     1       2.113   4.593  18.132  0.00  0.00    +0.145 HD
ATOM     22  H   UNL     1       2.705   3.421  19.260  0.00  0.00    +0.145 HD
ENDBRANCH  15  18
ENDBRANCH  14  15
ENDBRANCH  11  14
ENDBRANCH   9  10
BRANCH   9  23
ATOM     23  C   UNL     1       7.641   5.379  24.413  0.00  0.00    -0.005 C 
ATOM     24  C   UNL     1       8.883   5.449  23.562  0.00  0.00    +0.008 C 
ATOM     25  C   UNL     1       8.099   5.057  25.841  0.00  0.00    +0.008 C 
ENDBRANCH   9  23
ENDBRANCH   8   9
ENDBRANCH   5   8
ENDBRANCH   1   5
BRANCH   1  26
ATOM     26  C   UNL     1       9.266   1.800  23.844  0.00  0.00    +0.025 C 
BRANCH  26  27
ATOM     27  C   UNL     1       9.492   0.440  24.645  0.00  0.00    -0.003 C 
BRANCH  27  28
ATOM     28  C   UNL     1       8.245   0.100  25.524  0.00  0.00    -0.014 C 
ATOM     29  C   UNL     1       7.412   1.348  25.850  0.00  0.00    +0.007 C 
ATOM     30  C   UNL     1       8.561  -0.665  26.805  0.00  0.00    +0.007 C 
ENDBRANCH  27  28
BRANCH  27  31
ATOM     31  C   UNL     1      10.161  -0.799  23.924  0.00  0.00    +0.039 C 
BRANCH  31  34
ATOM     32  C   UNL     1       8.643  -4.266  24.277  0.00  0.00    +0.162 A 
ATOM     33  C   UNL     1       9.507  -3.172  24.347  0.00  0.00    +0.053 A 
ATOM     34  C   UNL     1       9.418  -2.060  23.533  0.00  0.00    -0.043 A 
ATOM     35  C   UNL     1       8.443  -2.111  22.531  0.00  0.00    +0.007 A 
ATOM     36  C   UNL     1       7.622  -3.260  22.364  0.00  0.00    +0.049 A 
ATOM     37  C   UNL     1       7.724  -4.346  23.236  0.00  0.00    +0.162 A 
BRANCH  37  38
ATOM     38  O   UNL     1       6.938  -5.462  23.209  0.00  0.00    -0.491 OA
ATOM     39  C   UNL     1       6.775  -6.099  21.950  0.00  0.00    +0.277 C 
ENDBRANCH  37  38
BRANCH  32  40
ATOM     40  O   UNL     1       8.659  -5.243  25.251  0.00  0.00    -0.488 OA
BRANCH  40  41
ATOM     41  C   UNL     1       8.574  -4.707  26.576  0.00  0.00    +0.231 C 
BRANCH  41  42
ATOM     42  C   UNL     1       7.159  -4.406  26.997  0.00  0.00    +0.069 C 
BRANCH  42  43
ATOM     43  C   UNL     1       6.531  -5.598  27.680  0.00  0.00    +0.163 C 
BRANCH  43  45
ATOM     44  C   UNL     1       4.894  -5.812  26.022  0.00  0.00    +0.193 C 
ATOM     45  O   UNL     1       6.008  -6.440  26.647  0.00  0.00    -0.383 OA
ENDBRANCH  43  45
ENDBRANCH  42  43
ENDBRANCH  41  42
ENDBRANCH  40  41
ENDBRANCH  32  40
ENDBRANCH  31  34
ENDBRANCH  27  31
ENDBRANCH  26  27
ENDBRANCH   1  26
TORSDOF 21
ENDMDL
MODEL 5
REMARK VINA RESULT:      -5.1      2.417      6.220
REMARK  Name = 
REMARK  29 active torsions:
REMARK  status: ('A' for Active; 'I' for Inactive)
REMARK    1  A    between atoms: C_1  and  O_2
REMARK    2  A    between atoms: O_2  and  C_3
REMARK    3  A    between atoms: C_3  and  C_4
REMARK    4  A    between atoms: C_4  and  C_5
REMARK    5  A    between atoms: C_5  and  O_6
REMARK    6  A    between atoms: O_6  and  C_7
REMARK    7  A    between atoms: C_8  and  O_9
REMARK    8  A    between atoms: O_9  and  C_10
REMARK    9  A    between atoms: C_13  and  C_14
REMARK   10  A    between atoms: C_14  and  C_15
REMARK   11  A    between atoms: C_15  and  C_17
REMARK   12  A    between atoms: C_15  and  C_40
REMARK   13  A    between atoms: C_17  and  C_18
REMARK   14  A    between atoms: C_18  and  N_20
REMARK   15  A    between atoms: C_18  and  C_21
REMARK   16  A    between atoms: C_21  and  O_23
REMARK   17  A    between atoms: C_21  and  C_24
REMARK   18  A    between atoms: C_24  and  C_25
REMARK   19  A    between atoms: C_25  and  C_27
REMARK   20  A    between atoms: C_25  and  C_30
REMARK   21  A    between atoms: C_27  and  C_28
REMARK   22  A    between atoms: C_27  and  C_29
REMARK   23  A    between atoms: N_32  and  C_33
REMARK   24  A    between atoms: C_33  and  C_34
REMARK   25  A    between atoms: C_34  and  C_35
REMARK   26  A    between atoms: C_34  and  C_36
REMARK   27  A    between atoms: C_34  and  C_37
REMARK   28  A    between atoms: C_40  and  C_41
REMARK   29  A    between atoms: C_40  and  C_42
REMARK                            x       y       z     vdW  Elec       q    Type
REMARK                         _______ _______ _______ _____ _____    ______ ____
ROOT
ATOM      1  C   UNL     1       6.736  -1.359  26.327  0.00  0.00    +0.080 C 
ENDROOT
BRANCH   1   2
ATOM      2  N   UNL     1       6.090  -2.614  26.742  0.00  0.00    -0.325 NA
ATOM      3  H   UNL     1       5.201  -2.478  27.226  0.00  0.00    +0.119 HD
ATOM      4  H   UNL     1       6.699  -3.080  27.417  0.00  0.00    +0.119 HD
ENDBRANCH   1   2
BRANCH   1   5
ATOM      5  C   UNL     1       8.338  -1.489  26.295  0.00  0.00    +0.132 C 
BRANCH   5   6
ATOM      6  O   UNL     1       8.734  -2.862  26.322  0.00  0.00    -0.390 OA
ATOM      7  H   UNL     1       8.363  -3.239  27.142  0.00  0.00    +0.210 HD
ENDBRANCH   5   6
BRANCH   5   8
ATOM      8  C   UNL     1       9.266  -0.676  25.289  0.00  0.00    +0.046 C 
BRANCH   8   9
ATOM      9  C   UNL     1       9.015  -0.304  23.775  0.00  0.00    +0.080 C 
BRANCH   9  10
ATOM     10  C   UNL     1       8.926  -1.637  22.944  0.00  0.00    +0.216 C 
ATOM     11  N   UNL     1       7.745  -2.357  23.031  0.00  0.00    -0.314 N 
ATOM     12  H   UNL     1       6.968  -1.946  23.529  0.00  0.00    +0.149 HD
ATOM     13  O   UNL     1       9.869  -2.041  22.263  0.00  0.00    -0.276 OA
BRANCH  11  14
ATOM     14  C   UNL     1       7.469  -3.548  22.196  0.00  0.00    +0.119 C 
BRANCH  14  15
ATOM     15  C   UNL     1       6.904  -4.764  22.973  0.00  0.00    +0.057 C 
ATOM     16  C   UNL     1       6.962  -6.031  22.100  0.00  0.00    +0.022 C 
ATOM     17  C   UNL     1       5.446  -4.505  23.386  0.00  0.00    +0.022 C 
BRANCH  15  18
ATOM     18  C   UNL     1       7.758  -5.037  24.230  0.00  0.00    +0.218 C 
ATOM     19  O   UNL     1       8.987  -5.072  24.224  0.00  0.00    -0.275 OA
ATOM     20  N   UNL     1       7.110  -5.250  25.408  0.00  0.00    -0.329 N 
ATOM     21  H   UNL     1       7.687  -5.531  26.195  0.00  0.00    +0.145 HD
ATOM     22  H   UNL     1       6.118  -5.421  25.471  0.00  0.00    +0.145 HD
ENDBRANCH  15  18
ENDBRANCH  14  15
ENDBRANCH  11  14
ENDBRANCH   9  10
BRANCH   9  23
ATOM     23  C   UNL     1      10.140   0.554  23.127  0.00  0.00    -0.005 C 
ATOM     24  C   UNL     1      10.865   1.377  24.160  0.00  0.00    +0.008 C 
ATOM     25  C   UNL     1       9.669   1.525  22.037  0.00  0.00    +0.008 C 
ENDBRANCH   9  23
ENDBRANCH   8   9
ENDBRANCH   5   8
ENDBRANCH   1   5
BRANCH   1  26
ATOM     26  C   UNL     1       6.175  -0.312  27.358  0.00  0.00    +0.025 C 
BRANCH  26  27
ATOM     27  C   UNL     1       5.968   1.158  26.776  0.00  0.00    -0.003 C 
BRANCH  27  28
ATOM     28  C   UNL     1       4.764   1.867  27.478  0.00  0.00    -0.014 C 
ATOM     29  C   UNL     1       3.643   2.215  26.487  0.00  0.00    +0.007 C 
ATOM     30  C   UNL     1       5.141   3.101  28.292  0.00  0.00    +0.007 C 
ENDBRANCH  27  28
BRANCH  27  31
ATOM     31  C   UNL     1       7.221   2.082  26.502  0.00  0.00    +0.039 C 
BRANCH  31  34
ATOM     32  C   UNL     1       6.481   3.569  23.083  0.00  0.00    +0.162 A 
ATOM     33  C   UNL     1       6.545   2.710  24.182  0.00  0.00    +0.053 A 
ATOM     34  C   UNL     1       7.463   2.829  25.206  0.00  0.00    -0.043 A 
ATOM     35  C   UNL     1       8.427   3.831  25.053  0.00  0.00    +0.007 A 
ATOM     36  C   UNL     1       8.455   4.650  23.890  0.00  0.00    +0.049 A 
ATOM     37  C   UNL     1       7.482   4.516  22.897  0.00  0.00    +0.162 A 
BRANCH  37  38
ATOM     38  O   UNL     1       7.375   5.297  21.781  0.00  0.00    -0.491 OA
ATOM     39  C   UNL     1       7.096   6.674  21.990  0.00  0.00    +0.277 C 
ENDBRANCH  37  38
BRANCH  32  40
ATOM     40  O   UNL     1       5.415   3.520  22.209  0.00  0.00    -0.488 OA
BRANCH  40  41
ATOM     41  C   UNL     1       4.171   3.860  22.830  0.00  0.00    +0.231 C 
BRANCH  41  42
ATOM     42  C   UNL     1       2.977   3.340  22.072  0.00  0.00    +0.069 C 
BRANCH  42  43
ATOM     43  C   UNL     1       2.340   4.433  21.247  0.00  0.00    +0.163 C 
BRANCH  43  45
ATOM     44  C   UNL     1       1.471   2.404  20.470  0.00  0.00    +0.193 C 
ATOM     45  O   UNL     1       1.306   3.818  20.470  0.00  0.00    -0.383 OA
ENDBRANCH  43  45
ENDBRANCH  42  43
ENDBRANCH  41  42
ENDBRANCH  40  41
ENDBRANCH  32  40
ENDBRANCH  31  34
ENDBRANCH  27  31
ENDBRANCH  26  27
ENDBRANCH   1  26
TORSDOF 21
ENDMDL
MODEL 6
REMARK VINA RESULT:      -5.1      2.405      8.270
REMARK  Name = 
REMARK  29 active torsions:
REMARK  status: ('A' for Active; 'I' for Inactive)
REMARK    1  A    between atoms: C_1  and  O_2
REMARK    2  A    between atoms: O_2  and  C_3
REMARK    3  A    between atoms: C_3  and  C_4
REMARK    4  A    between atoms: C_4  and  C_5
REMARK    5  A    between atoms: C_5  and  O_6
REMARK    6  A    between atoms: O_6  and  C_7
REMARK    7  A    between atoms: C_8  and  O_9
REMARK    8  A    between atoms: O_9  and  C_10
REMARK    9  A    between atoms: C_13  and  C_14
REMARK   10  A    between atoms: C_14  and  C_15
REMARK   11  A    between atoms: C_15  and  C_17
REMARK   12  A    between atoms: C_15  and  C_40
REMARK   13  A    between atoms: C_17  and  C_18
REMARK   14  A    between atoms: C_18  and  N_20
REMARK   15  A    between atoms: C_18  and  C_21
REMARK   16  A    between atoms: C_21  and  O_23
REMARK   17  A    between atoms: C_21  and  C_24
REMARK   18  A    between atoms: C_24  and  C_25
REMARK   19  A    between atoms: C_25  and  C_27
REMARK   20  A    between atoms: C_25  and  C_30
REMARK   21  A    between atoms: C_27  and  C_28
REMARK   22  A    between atoms: C_27  and  C_29
REMARK   23  A    between atoms: N_32  and  C_33
REMARK   24  A    between atoms: C_33  and  C_34
REMARK   25  A    between atoms: C_34  and  C_35
REMARK   26  A    between atoms: C_34  and  C_36
REMARK   27  A    between atoms: C_34  and  C_37
REMARK   28  A    between atoms: C_40  and  C_41
REMARK   29  A    between atoms: C_40  and  C_42
REMARK                            x       y       z     vdW  Elec       q    Type
REMARK                         _______ _______ _______ _____ _____    ______ ____
ROOT
ATOM      1  C   UNL     1      10.791   0.924  24.404  0.00  0.00    +0.080 C 
ENDROOT
BRANCH   1   2
ATOM      2  N   UNL     1      10.225   0.432  25.671  0.00  0.00    -0.325 NA
ATOM      3  H   UNL     1      10.923   0.049  26.310  0.00  0.00    +0.119 HD
ATOM      4  H   UNL     1       9.593  -0.342  25.459  0.00  0.00    +0.119 HD
ENDBRANCH   1   2
BRANCH   1   5
ATOM      5  C   UNL     1       9.958   2.167  23.816  0.00  0.00    +0.132 C 
BRANCH   5   6
ATOM      6  O   UNL     1       8.756   2.368  24.562  0.00  0.00    -0.390 OA
ATOM      7  H   UNL     1       8.047   2.518  23.909  0.00  0.00    +0.210 HD
ENDBRANCH   5   6
BRANCH   5   8
ATOM      8  C   UNL     1      10.614   3.571  23.452  0.00  0.00    +0.046 C 
BRANCH   8   9
ATOM      9  C   UNL     1      10.505   4.951  24.211  0.00  0.00    +0.080 C 
BRANCH   9  10
ATOM     10  C   UNL     1       9.145   5.634  23.812  0.00  0.00    +0.216 C 
ATOM     11  N   UNL     1       8.000   5.172  24.441  0.00  0.00    -0.314 N 
ATOM     12  H   UNL     1       8.101   4.505  25.194  0.00  0.00    +0.149 HD
ATOM     13  O   UNL     1       9.089   6.522  22.961  0.00  0.00    -0.276 OA
BRANCH  11  14
ATOM     14  C   UNL     1       6.677   5.814  24.271  0.00  0.00    +0.119 C 
BRANCH  14  15
ATOM     15  C   UNL     1       5.495   4.825  24.112  0.00  0.00    +0.057 C 
ATOM     16  C   UNL     1       4.168   5.594  23.973  0.00  0.00    +0.022 C 
ATOM     17  C   UNL     1       5.409   3.891  25.331  0.00  0.00    +0.022 C 
BRANCH  15  18
ATOM     18  C   UNL     1       5.670   3.986  22.828  0.00  0.00    +0.218 C 
ATOM     19  O   UNL     1       6.702   3.379  22.546  0.00  0.00    -0.275 OA
ATOM     20  N   UNL     1       4.621   3.915  21.962  0.00  0.00    -0.329 N 
ATOM     21  H   UNL     1       4.796   3.446  21.080  0.00  0.00    +0.145 HD
ATOM     22  H   UNL     1       3.815   4.520  22.020  0.00  0.00    +0.145 HD
ENDBRANCH  15  18
ENDBRANCH  14  15
ENDBRANCH  11  14
ENDBRANCH   9  10
BRANCH   9  23
ATOM     23  C   UNL     1      11.633   5.967  23.866  0.00  0.00    -0.005 C 
ATOM     24  C   UNL     1      12.817   5.278  23.237  0.00  0.00    +0.008 C 
ATOM     25  C   UNL     1      12.169   6.770  25.058  0.00  0.00    +0.008 C 
ENDBRANCH   9  23
ENDBRANCH   8   9
ENDBRANCH   5   8
ENDBRANCH   1   5
BRANCH   1  26
ATOM     26  C   UNL     1      10.798  -0.360  23.496  0.00  0.00    +0.025 C 
BRANCH  26  27
ATOM     27  C   UNL     1       9.509  -1.289  23.637  0.00  0.00    -0.003 C 
BRANCH  27  28
ATOM     28  C   UNL     1       8.510  -1.031  22.462  0.00  0.00    -0.014 C 
ATOM     29  C   UNL     1       9.180  -0.308  21.284  0.00  0.00    +0.007 C 
ATOM     30  C   UNL     1       7.233  -0.301  22.864  0.00  0.00    +0.007 C 
ENDBRANCH  27  28
BRANCH  27  31
ATOM     31  C   UNL     1       9.670  -2.804  24.058  0.00  0.00    +0.039 C 
BRANCH  31  34
ATOM     32  C   UNL     1       6.946  -3.316  26.660  0.00  0.00    +0.162 A 
ATOM     33  C   UNL     1       7.917  -2.744  25.836  0.00  0.00    +0.053 A 
ATOM     34  C   UNL     1       8.905  -3.459  25.191  0.00  0.00    -0.043 A 
ATOM     35  C   UNL     1       8.955  -4.828  25.474  0.00  0.00    +0.007 A 
ATOM     36  C   UNL     1       8.049  -5.421  26.396  0.00  0.00    +0.049 A 
ATOM     37  C   UNL     1       7.042  -4.662  26.997  0.00  0.00    +0.162 A 
BRANCH  37  38
ATOM     38  O   UNL     1       6.078  -5.145  27.835  0.00  0.00    -0.491 OA
ATOM     39  C   UNL     1       5.345  -6.274  27.383  0.00  0.00    +0.277 C 
ENDBRANCH  37  38
BRANCH  32  40
ATOM     40  O   UNL     1       5.869  -2.576  27.103  0.00  0.00    -0.488 OA
BRANCH  40  41
ATOM     41  C   UNL     1       5.101  -2.015  26.032  0.00  0.00    +0.231 C 
BRANCH  41  42
ATOM     42  C   UNL     1       3.892  -2.843  25.683  0.00  0.00    +0.069 C 
BRANCH  42  43
ATOM     43  C   UNL     1       4.181  -3.759  24.518  0.00  0.00    +0.163 C 
BRANCH  43  45
ATOM     44  C   UNL     1       5.871  -3.905  22.907  0.00  0.00    +0.193 C 
ATOM     45  O   UNL     1       4.997  -3.022  23.602  0.00  0.00    -0.383 OA
ENDBRANCH  43  45
ENDBRANCH  42  43
ENDBRANCH  41  42
ENDBRANCH  40  41
ENDBRANCH  32  40
ENDBRANCH  31  34
ENDBRANCH  27  31
ENDBRANCH  26  27
ENDBRANCH   1  26
TORSDOF 21
ENDMDL
MODEL 7
REMARK VINA RESULT:      -5.1      2.274      6.831
REMARK  Name = 
REMARK  29 active torsions:
REMARK  status: ('A' for Active; 'I' for Inactive)
REMARK    1  A    between atoms: C_1  and  O_2
REMARK    2  A    between atoms: O_2  and  C_3
REMARK    3  A    between atoms: C_3  and  C_4
REMARK    4  A    between atoms: C_4  and  C_5
REMARK    5  A    between atoms: C_5  and  O_6
REMARK    6  A    between atoms: O_6  and  C_7
REMARK    7  A    between atoms: C_8  and  O_9
REMARK    8  A    between atoms: O_9  and  C_10
REMARK    9  A    between atoms: C_13  and  C_14
REMARK   10  A    between atoms: C_14  and  C_15
REMARK   11  A    between atoms: C_15  and  C_17
REMARK   12  A    between atoms: C_15  and  C_40
REMARK   13  A    between atoms: C_17  and  C_18
REMARK   14  A    between atoms: C_18  and  N_20
REMARK   15  A    between atoms: C_18  and  C_21
REMARK   16  A    between atoms: C_21  and  O_23
REMARK   17  A    between atoms: C_21  and  C_24
REMARK   18  A    between atoms: C_24  and  C_25
REMARK   19  A    between atoms: C_25  and  C_27
REMARK   20  A    between atoms: C_25  and  C_30
REMARK   21  A    between atoms: C_27  and  C_28
REMARK   22  A    between atoms: C_27  and  C_29
REMARK   23  A    between atoms: N_32  and  C_33
REMARK   24  A    between atoms: C_33  and  C_34
REMARK   25  A    between atoms: C_34  and  C_35
REMARK   26  A    between atoms: C_34  and  C_36
REMARK   27  A    between atoms: C_34  and  C_37
REMARK   28  A    between atoms: C_40  and  C_41
REMARK   29  A    between atoms: C_40  and  C_42
REMARK                            x       y       z     vdW  Elec       q    Type
REMARK                         _______ _______ _______ _____ _____    ______ ____
ROOT
ATOM      1  C   UNL     1       4.590   2.928  23.705  0.00  0.00    +0.080 C 
ENDROOT
BRANCH   1   2
ATOM      2  N   UNL     1       3.216   2.710  23.226  0.00  0.00    -0.325 NA
ATOM      3  H   UNL     1       2.498   3.019  23.883  0.00  0.00    +0.119 HD
ATOM      4  H   UNL     1       3.071   1.704  23.116  0.00  0.00    +0.119 HD
ENDBRANCH   1   2
BRANCH   1   5
ATOM      5  C   UNL     1       4.916   2.053  25.014  0.00  0.00    +0.132 C 
BRANCH   5   6
ATOM      6  O   UNL     1       3.711   1.575  25.616  0.00  0.00    -0.390 OA
ATOM      7  H   UNL     1       3.875   1.546  26.577  0.00  0.00    +0.210 HD
ENDBRANCH   5   6
BRANCH   5   8
ATOM      8  C   UNL     1       6.033   0.920  25.058  0.00  0.00    +0.046 C 
BRANCH   8   9
ATOM      9  C   UNL     1       7.352   0.849  25.923  0.00  0.00    +0.080 C 
BRANCH   9  10
ATOM     10  C   UNL     1       7.983  -0.581  25.754  0.00  0.00    +0.216 C 
ATOM     11  N   UNL     1       7.446  -1.394  24.768  0.00  0.00    -0.314 N 
ATOM     12  H   UNL     1       6.759  -0.998  24.140  0.00  0.00    +0.149 HD
ATOM     13  O   UNL     1       8.896  -0.978  26.478  0.00  0.00    -0.276 OA
BRANCH  11  14
ATOM     14  C   UNL     1       8.031  -2.704  24.402  0.00  0.00    +0.119 C 
BRANCH  14  15
ATOM     15  C   UNL     1       7.155  -3.928  24.771  0.00  0.00    +0.057 C 
ATOM     16  C   UNL     1       7.107  -4.925  23.598  0.00  0.00    +0.022 C 
ATOM     17  C   UNL     1       5.723  -3.479  25.107  0.00  0.00    +0.022 C 
BRANCH  15  18
ATOM     18  C   UNL     1       7.762  -4.673  25.978  0.00  0.00    +0.218 C 
ATOM     19  O   UNL     1       7.336  -5.747  26.401  0.00  0.00    -0.275 OA
ATOM     20  N   UNL     1       8.830  -4.109  26.607  0.00  0.00    -0.329 N 
ATOM     21  H   UNL     1       9.143  -4.563  27.458  0.00  0.00    +0.145 HD
ATOM     22  H   UNL     1       9.125  -3.157  26.448  0.00  0.00    +0.145 HD
ENDBRANCH  15  18
ENDBRANCH  14  15
ENDBRANCH  11  14
ENDBRANCH   9  10
BRANCH   9  23
ATOM     23  C   UNL     1       7.135   1.065  27.450  0.00  0.00    -0.005 C 
ATOM     24  C   UNL     1       5.952   0.277  27.951  0.00  0.00    +0.008 C 
ATOM     25  C   UNL     1       6.910   2.522  27.873  0.00  0.00    +0.008 C 
ENDBRANCH   9  23
ENDBRANCH   8   9
ENDBRANCH   5   8
ENDBRANCH   1   5
BRANCH   1  26
ATOM     26  C   UNL     1       4.650   4.486  23.915  0.00  0.00    +0.025 C 
BRANCH  26  27
ATOM     27  C   UNL     1       6.086   5.139  23.683  0.00  0.00    -0.003 C 
BRANCH  27  28
ATOM     28  C   UNL     1       5.958   6.511  22.947  0.00  0.00    -0.014 C 
ATOM     29  C   UNL     1       4.530   6.762  22.438  0.00  0.00    +0.007 C 
ATOM     30  C   UNL     1       6.958   6.720  21.814  0.00  0.00    +0.007 C 
ENDBRANCH  27  28
BRANCH  27  31
ATOM     31  C   UNL     1       7.167   5.097  24.836  0.00  0.00    +0.039 C 
BRANCH  31  34
ATOM     32  C   UNL     1      10.496   3.664  23.687  0.00  0.00    +0.162 A 
ATOM     33  C   UNL     1       9.218   3.806  24.231  0.00  0.00    +0.053 A 
ATOM     34  C   UNL     1       8.662   5.014  24.600  0.00  0.00    -0.043 A 
ATOM     35  C   UNL     1       9.495   6.132  24.487  0.00  0.00    +0.007 A 
ATOM     36  C   UNL     1      10.840   6.003  24.042  0.00  0.00    +0.049 A 
ATOM     37  C   UNL     1      11.346   4.764  23.645  0.00  0.00    +0.162 A 
BRANCH  37  38
ATOM     38  O   UNL     1      12.593   4.543  23.134  0.00  0.00    -0.491 OA
ATOM     39  C   UNL     1      13.161   5.590  22.359  0.00  0.00    +0.277 C 
ENDBRANCH  37  38
BRANCH  32  40
ATOM     40  O   UNL     1      10.906   2.461  23.151  0.00  0.00    -0.488 OA
BRANCH  40  41
ATOM     41  C   UNL     1      10.638   1.348  24.011  0.00  0.00    +0.231 C 
BRANCH  41  42
ATOM     42  C   UNL     1      10.431   0.061  23.255  0.00  0.00    +0.069 C 
BRANCH  42  43
ATOM     43  C   UNL     1       9.661   0.299  21.979  0.00  0.00    +0.163 C 
BRANCH  43  45
ATOM     44  C   UNL     1       7.771   1.654  21.721  0.00  0.00    +0.193 C 
ATOM     45  O   UNL     1       8.291   0.487  22.349  0.00  0.00    -0.383 OA
ENDBRANCH  43  45
ENDBRANCH  42  43
ENDBRANCH  41  42
ENDBRANCH  40  41
ENDBRANCH  32  40
ENDBRANCH  31  34
ENDBRANCH  27  31
ENDBRANCH  26  27
ENDBRANCH   1  26
TORSDOF 21
ENDMDL
MODEL 8
REMARK VINA RESULT:      -5.1      2.559      5.285
REMARK  Name = 
REMARK  29 active torsions:
REMARK  status: ('A' for Active; 'I' for Inactive)
REMARK    1  A    between atoms: C_1  and  O_2
REMARK    2  A    between atoms: O_2  and  C_3
REMARK    3  A    between atoms: C_3  and  C_4
REMARK    4  A    between atoms: C_4  and  C_5
REMARK    5  A    between atoms: C_5  and  O_6
REMARK    6  A    between atoms: O_6  and  C_7
REMARK    7  A    between atoms: C_8  and  O_9
REMARK    8  A    between atoms: O_9  and  C_10
REMARK    9  A    between atoms: C_13  and  C_14
REMARK   10  A    between atoms: C_14  and  C_15
REMARK   11  A    between atoms: C_15  and  C_17
REMARK   12  A    between atoms: C_15  and  C_40
REMARK   13  A    between atoms: C_17  and  C_18
REMARK   14  A    between atoms: C_18  and  N_20
REMARK   15  A    between atoms: C_18  and  C_21
REMARK   16  A    between atoms: C_21  and  O_23
REMARK   17  A    between atoms: C_21  and  C_24
REMARK   18  A    between atoms: C_24  and  C_25
REMARK   19  A    between atoms: C_25  and  C_27
REMARK   20  A    between atoms: C_25  and  C_30
REMARK   21  A    between atoms: C_27  and  C_28
REMARK   22  A    between atoms: C_27  and  C_29
REMARK   23  A    between atoms: N_32  and  C_33
REMARK   24  A    between atoms: C_33  and  C_34
REMARK   25  A    between atoms: C_34  and  C_35
REMARK   26  A    between atoms: C_34  and  C_36
REMARK   27  A    between atoms: C_34  and  C_37
REMARK   28  A    between atoms: C_40  and  C_41
REMARK   29  A    between atoms: C_40  and  C_42
REMARK                            x       y       z     vdW  Elec       q    Type
REMARK                         _______ _______ _______ _____ _____    ______ ____
ROOT
ATOM      1  C   UNL     1       6.453  -2.560  22.324  0.00  0.00    +0.080 C 
ENDROOT
BRANCH   1   2
ATOM      2  N   UNL     1       6.159  -1.342  23.097  0.00  0.00    -0.325 NA
ATOM      3  H   UNL     1       5.326  -1.418  23.682  0.00  0.00    +0.119 HD
ATOM      4  H   UNL     1       5.963  -0.585  22.440  0.00  0.00    +0.119 HD
ENDBRANCH   1   2
BRANCH   1   5
ATOM      5  C   UNL     1       5.805  -3.869  22.995  0.00  0.00    +0.132 C 
BRANCH   5   6
ATOM      6  O   UNL     1       5.179  -4.687  22.004  0.00  0.00    -0.390 OA
ATOM      7  H   UNL     1       4.954  -5.528  22.443  0.00  0.00    +0.210 HD
ENDBRANCH   5   6
BRANCH   5   8
ATOM      8  C   UNL     1       6.566  -4.783  24.052  0.00  0.00    +0.046 C 
BRANCH   8   9
ATOM      9  C   UNL     1       6.383  -4.864  25.619  0.00  0.00    +0.080 C 
BRANCH   9  10
ATOM     10  C   UNL     1       5.455  -6.091  25.949  0.00  0.00    +0.216 C 
ATOM     11  N   UNL     1       4.365  -6.298  25.118  0.00  0.00    -0.314 N 
ATOM     12  H   UNL     1       4.279  -5.727  24.288  0.00  0.00    +0.149 HD
ATOM     13  O   UNL     1       5.667  -6.824  26.915  0.00  0.00    -0.276 OA
BRANCH  11  14
ATOM     14  C   UNL     1       3.493  -7.489  25.221  0.00  0.00    +0.119 C 
BRANCH  14  15
ATOM     15  C   UNL     1       2.083  -7.312  24.604  0.00  0.00    +0.057 C 
ATOM     16  C   UNL     1       1.283  -6.256  25.389  0.00  0.00    +0.022 C 
ATOM     17  C   UNL     1       1.316  -8.645  24.629  0.00  0.00    +0.022 C 
BRANCH  15  18
ATOM     18  C   UNL     1       2.196  -6.808  23.149  0.00  0.00    +0.218 C 
ATOM     19  O   UNL     1       2.585  -5.681  22.847  0.00  0.00    -0.275 OA
ATOM     20  N   UNL     1       1.847  -7.661  22.148  0.00  0.00    -0.329 N 
ATOM     21  H   UNL     1       1.830  -7.273  21.210  0.00  0.00    +0.145 HD
ATOM     22  H   UNL     1       1.350  -8.525  22.306  0.00  0.00    +0.145 HD
ENDBRANCH  15  18
ENDBRANCH  14  15
ENDBRANCH  11  14
ENDBRANCH   9  10
BRANCH   9  23
ATOM     23  C   UNL     1       5.713  -3.611  26.256  0.00  0.00    -0.005 C 
ATOM     24  C   UNL     1       6.706  -2.493  26.440  0.00  0.00    +0.008 C 
ATOM     25  C   UNL     1       5.055  -3.851  27.621  0.00  0.00    +0.008 C 
ENDBRANCH   9  23
ENDBRANCH   8   9
ENDBRANCH   5   8
ENDBRANCH   1   5
BRANCH   1  26
ATOM     26  C   UNL     1       8.024  -2.561  22.247  0.00  0.00    +0.025 C 
BRANCH  26  27
ATOM     27  C   UNL     1       8.724  -1.241  22.804  0.00  0.00    -0.003 C 
BRANCH  27  28
ATOM     28  C   UNL     1       9.742  -1.590  23.937  0.00  0.00    -0.014 C 
ATOM     29  C   UNL     1       9.711  -3.082  24.301  0.00  0.00    +0.007 C 
ATOM     30  C   UNL     1       9.602  -0.744  25.199  0.00  0.00    +0.007 C 
ENDBRANCH  27  28
BRANCH  27  31
ATOM     31  C   UNL     1       9.200  -0.116  21.800  0.00  0.00    +0.039 C 
BRANCH  31  34
ATOM     32  C   UNL     1       7.736   3.348  22.359  0.00  0.00    +0.162 A 
ATOM     33  C   UNL     1       8.007   2.078  21.846  0.00  0.00    +0.053 A 
ATOM     34  C   UNL     1       9.163   1.369  22.103  0.00  0.00    -0.043 A 
ATOM     35  C   UNL     1      10.135   2.033  22.859  0.00  0.00    +0.007 A 
ATOM     36  C   UNL     1       9.932   3.370  23.301  0.00  0.00    +0.049 A 
ATOM     37  C   UNL     1       8.731   4.034  23.047  0.00  0.00    +0.162 A 
BRANCH  37  38
ATOM     38  O   UNL     1       8.407   5.285  23.488  0.00  0.00    -0.491 OA
ATOM     39  C   UNL     1       9.458   6.239  23.531  0.00  0.00    +0.277 C 
ENDBRANCH  37  38
BRANCH  32  40
ATOM     40  O   UNL     1       6.481   3.907  22.233  0.00  0.00    -0.488 OA
BRANCH  40  41
ATOM     41  C   UNL     1       5.451   3.100  22.812  0.00  0.00    +0.231 C 
BRANCH  41  42
ATOM     42  C   UNL     1       5.435   3.162  24.318  0.00  0.00    +0.069 C 
BRANCH  42  43
ATOM     43  C   UNL     1       4.084   2.765  24.863  0.00  0.00    +0.163 C 
BRANCH  43  45
ATOM     44  C   UNL     1       5.305   1.165  26.055  0.00  0.00    +0.193 C 
ATOM     45  O   UNL     1       4.171   1.382  25.223  0.00  0.00    -0.383 OA
ENDBRANCH  43  45
ENDBRANCH  42  43
ENDBRANCH  41  42
ENDBRANCH  40  41
ENDBRANCH  32  40
ENDBRANCH  31  34
ENDBRANCH  27  31
ENDBRANCH  26  27
ENDBRANCH   1  26
TORSDOF 21
ENDMDL
MODEL 9
REMARK VINA RESULT:      -5.0      2.621      7.009
REMARK  Name = 
REMARK  29 active torsions:
REMARK  status: ('A' for Active; 'I' for Inactive)
REMARK    1  A    between atoms: C_1  and  O_2
REMARK    2  A    between atoms: O_2  and  C_3
REMARK    3  A    between atoms: C_3  and  C_4
REMARK    4  A    between atoms: C_4  and  C_5
REMARK    5  A    between atoms: C_5  and  O_6
REMARK    6  A    between atoms: O_6  and  C_7
REMARK    7  A    between atoms: C_8  and  O_9
REMARK    8  A    between atoms: O_9  and  C_10
REMARK    9  A    between atoms: C_13  and  C_14
REMARK   10  A    between atoms: C_14  and  C_15
REMARK   11  A    between atoms: C_15  and  C_17
REMARK   12  A    between atoms: C_15  and  C_40
REMARK   13  A    between atoms: C_17  and  C_18
REMARK   14  A    between atoms: C_18  and  N_20
REMARK   15  A    between atoms: C_18  and  C_21
REMARK   16  A    between atoms: C_21  and  O_23
REMARK   17  A    between atoms: C_21  and  C_24
REMARK   18  A    between atoms: C_24  and  C_25
REMARK   19  A    between atoms: C_25  and  C_27
REMARK   20  A    between atoms: C_25  and  C_30
REMARK   21  A    between atoms: C_27  and  C_28
REMARK   22  A    between atoms: C_27  and  C_29
REMARK   23  A    between atoms: N_32  and  C_33
REMARK   24  A    between atoms: C_33  and  C_34
REMARK   25  A    between atoms: C_34  and  C_35
REMARK   26  A    between atoms: C_34  and  C_36
REMARK   27  A    between atoms: C_34  and  C_37
REMARK   28  A    between atoms: C_40  and  C_41
REMARK   29  A    between atoms: C_40  and  C_42
REMARK                            x       y       z     vdW  Elec       q    Type
REMARK                         _______ _______ _______ _____ _____    ______ ____
ROOT
ATOM      1  C   UNL     1       4.829   3.000  23.619  0.00  0.00    +0.080 C 
ENDROOT
BRANCH   1   2
ATOM      2  N   UNL     1       3.399   2.764  23.363  0.00  0.00    -0.325 NA
ATOM      3  H   UNL     1       3.212   1.914  22.830  0.00  0.00    +0.119 HD
ATOM      4  H   UNL     1       3.046   3.531  22.788  0.00  0.00    +0.119 HD
ENDBRANCH   1   2
BRANCH   1   5
ATOM      5  C   UNL     1       5.686   1.642  23.539  0.00  0.00    +0.132 C 
BRANCH   5   6
ATOM      6  O   UNL     1       6.392   1.562  22.299  0.00  0.00    -0.390 OA
ATOM      7  H   UNL     1       5.722   1.645  21.595  0.00  0.00    +0.210 HD
ENDBRANCH   5   6
BRANCH   5   8
ATOM      8  C   UNL     1       6.608   1.114  24.724  0.00  0.00    +0.046 C 
BRANCH   8   9
ATOM      9  C   UNL     1       7.061  -0.362  25.056  0.00  0.00    +0.080 C 
BRANCH   9  10
ATOM     10  C   UNL     1       5.873  -1.336  24.719  0.00  0.00    +0.216 C 
ATOM     11  N   UNL     1       6.096  -2.284  23.733  0.00  0.00    -0.314 N 
ATOM     12  H   UNL     1       7.029  -2.376  23.357  0.00  0.00    +0.149 HD
ATOM     13  O   UNL     1       4.783  -1.251  25.285  0.00  0.00    -0.276 OA
BRANCH  11  14
ATOM     14  C   UNL     1       5.122  -3.352  23.413  0.00  0.00    +0.119 C 
BRANCH  14  15
ATOM     15  C   UNL     1       5.638  -4.792  23.664  0.00  0.00    +0.057 C 
ATOM     16  C   UNL     1       4.456  -5.756  23.872  0.00  0.00    +0.022 C 
ATOM     17  C   UNL     1       6.541  -4.828  24.909  0.00  0.00    +0.022 C 
BRANCH  15  18
ATOM     18  C   UNL     1       6.427  -5.297  22.437  0.00  0.00    +0.218 C 
ATOM     19  O   UNL     1       7.370  -4.689  21.935  0.00  0.00    -0.275 OA
ATOM     20  N   UNL     1       6.056  -6.485  21.883  0.00  0.00    -0.329 N 
ATOM     21  H   UNL     1       6.519  -6.743  21.019  0.00  0.00    +0.145 HD
ATOM     22  H   UNL     1       5.192  -6.954  22.110  0.00  0.00    +0.145 HD
ENDBRANCH  15  18
ENDBRANCH  14  15
ENDBRANCH  11  14
ENDBRANCH   9  10
BRANCH   9  23
ATOM     23  C   UNL     1       7.428  -0.603  26.550  0.00  0.00    -0.005 C 
ATOM     24  C   UNL     1       7.060   0.583  27.403  0.00  0.00    +0.008 C 
ATOM     25  C   UNL     1       8.910  -0.898  26.815  0.00  0.00    +0.008 C 
ENDBRANCH   9  23
ENDBRANCH   8   9
ENDBRANCH   5   8
ENDBRANCH   1   5
BRANCH   1  26
ATOM     26  C   UNL     1       4.827   3.703  25.026  0.00  0.00    +0.025 C 
BRANCH  26  27
ATOM     27  C   UNL     1       5.810   4.952  25.153  0.00  0.00    -0.003 C 
BRANCH  27  28
ATOM     28  C   UNL     1       6.469   4.997  26.569  0.00  0.00    -0.014 C 
ATOM     29  C   UNL     1       5.765   4.061  27.563  0.00  0.00    +0.007 C 
ATOM     30  C   UNL     1       6.594   6.394  27.168  0.00  0.00    +0.007 C 
ENDBRANCH  27  28
BRANCH  27  31
ATOM     31  C   UNL     1       6.773   5.324  23.955  0.00  0.00    +0.039 C 
BRANCH  31  34
ATOM     32  C   UNL     1      10.181   3.654  23.744  0.00  0.00    +0.162 A 
ATOM     33  C   UNL     1       8.839   3.922  24.017  0.00  0.00    +0.053 A 
ATOM     34  C   UNL     1       8.281   5.185  23.998  0.00  0.00    -0.043 A 
ATOM     35  C   UNL     1       9.167   6.243  23.771  0.00  0.00    +0.007 A 
ATOM     36  C   UNL     1      10.559   6.010  23.600  0.00  0.00    +0.049 A 
ATOM     37  C   UNL     1      11.072   4.711  23.591  0.00  0.00    +0.162 A 
BRANCH  37  38
ATOM     38  O   UNL     1      12.375   4.374  23.362  0.00  0.00    -0.491 OA
ATOM     39  C   UNL     1      13.150   5.295  22.607  0.00  0.00    +0.277 C 
ENDBRANCH  37  38
BRANCH  32  40
ATOM     40  O   UNL     1      10.623   2.358  23.577  0.00  0.00    -0.488 OA
BRANCH  40  41
ATOM     41  C   UNL     1       9.999   1.696  22.471  0.00  0.00    +0.231 C 
BRANCH  41  42
ATOM     42  C   UNL     1      10.144   0.197  22.528  0.00  0.00    +0.069 C 
BRANCH  42  43
ATOM     43  C   UNL     1       8.992  -0.486  21.830  0.00  0.00    +0.163 C 
BRANCH  43  45
ATOM     44  C   UNL     1       9.913  -2.001  23.356  0.00  0.00    +0.193 C 
ATOM     45  O   UNL     1       8.913  -1.813  22.362  0.00  0.00    -0.383 OA
ENDBRANCH  43  45
ENDBRANCH  42  43
ENDBRANCH  41  42
ENDBRANCH  40  41
ENDBRANCH  32  40
ENDBRANCH  31  34
ENDBRANCH  27  31
ENDBRANCH  26  27
ENDBRANCH   1  26
TORSDOF 21
ENDMDL
