MODEL 1
REMARK VINA RESULT:      -6.7      0.000      0.000
REMARK  Name = 
REMARK  8 active torsions:
REMARK  status: ('A' for Active; 'I' for Inactive)
REMARK    1  A    between atoms: C_1  and  O_2
REMARK    2  A    between atoms: O_2  and  C_3
REMARK    3  A    between atoms: C_6  and  C_15
REMARK    4  A    between atoms: C_8  and  O_9
REMARK    5  A    between atoms: O_9  and  C_10
REMARK    6  A    between atoms: C_15  and  C_25
REMARK    7  A    between atoms: C_18  and  C_22
REMARK    8  A    between atoms: C_22  and  O_23
REMARK                            x       y       z     vdW  Elec       q    Type
REMARK                         _______ _______ _______ _____ _____    ______ ____
ROOT
ATOM      1  C   UNL     1       7.404  -4.574  23.063  0.00  0.00    +0.162 A 
ATOM      2  C   UNL     1       7.573  -4.417  24.445  0.00  0.00    +0.163 A 
ATOM      3  C   UNL     1       7.912  -3.138  24.954  0.00  0.00    +0.054 A 
ATOM      4  C   UNL     1       8.070  -2.013  24.120  0.00  0.00    -0.024 A 
ATOM      5  C   UNL     1       7.792  -2.192  22.758  0.00  0.00    +0.009 A 
ATOM      6  C   UNL     1       7.452  -3.440  22.247  0.00  0.00    +0.050 A 
ENDROOT
BRANCH   4   7
ATOM      7  C   UNL     1       8.533  -0.619  24.592  0.00  0.00    +0.082 C 
ATOM      8  C   UNL     1       9.888  -0.285  23.896  0.00  0.00    +0.027 C 
ATOM      9  C   UNL     1      10.437   1.107  24.215  0.00  0.00    +0.016 C 
ATOM     10  C   UNL     1       9.427   2.216  23.930  0.00  0.00    +0.098 C 
ATOM     11  C   UNL     1       8.079   1.928  24.604  0.00  0.00    +0.016 C 
ATOM     12  C   UNL     1       7.523   0.523  24.311  0.00  0.00    +0.027 C 
BRANCH   7  13
ATOM     13  C   UNL     1       8.748  -0.671  26.072  0.00  0.00    +0.074 C 
ATOM     14  N   UNL     1       8.886  -0.735  27.225  0.00  0.00    -0.196 NA
ENDBRANCH   7  13
BRANCH  10  15
ATOM     15  C   UNL     1       9.293   2.437  22.430  0.00  0.00    +0.308 C 
ATOM     16  O   UNL     1       8.234   2.531  21.830  0.00  0.00    -0.251 OA
BRANCH  15  17
ATOM     17  O   UNL     1      10.482   2.476  21.788  0.00  0.00    -0.480 OA
ATOM     18  H   UNL     1      10.429   2.348  20.824  0.00  0.00    +0.295 HD
ENDBRANCH  15  17
ENDBRANCH  10  15
ENDBRANCH   4   7
BRANCH   1  20
ATOM     19  C   UNL     1       6.468  -5.811  21.284  0.00  0.00    +0.277 C 
ATOM     20  O   UNL     1       7.166  -5.811  22.530  0.00  0.00    -0.491 OA
ENDBRANCH   1  20
BRANCH   2  21
ATOM     21  O   UNL     1       7.400  -5.358  25.430  0.00  0.00    -0.485 OA
BRANCH  21  22
ATOM     22  C   UNL     1       6.248  -5.340  26.270  0.00  0.00    +0.174 C 
ATOM     23  C   UNL     1       6.532  -5.729  27.729  0.00  0.00    +0.044 C 
ATOM     24  C   UNL     1       5.336  -6.561  28.206  0.00  0.00    +0.004 C 
ATOM     25  C   UNL     1       4.404  -6.683  27.011  0.00  0.00    +0.004 C 
ATOM     26  C   UNL     1       5.319  -6.475  25.818  0.00  0.00    +0.044 C 
ENDBRANCH  21  22
ENDBRANCH   2  21
TORSDOF 7
ENDMDL
MODEL 2
REMARK VINA RESULT:      -6.6      2.475      7.707
REMARK  Name = 
REMARK  8 active torsions:
REMARK  status: ('A' for Active; 'I' for Inactive)
REMARK    1  A    between atoms: C_1  and  O_2
REMARK    2  A    between atoms: O_2  and  C_3
REMARK    3  A    between atoms: C_6  and  C_15
REMARK    4  A    between atoms: C_8  and  O_9
REMARK    5  A    between atoms: O_9  and  C_10
REMARK    6  A    between atoms: C_15  and  C_25
REMARK    7  A    between atoms: C_18  and  C_22
REMARK    8  A    between atoms: C_22  and  O_23
REMARK                            x       y       z     vdW  Elec       q    Type
REMARK                         _______ _______ _______ _____ _____    ______ ____
ROOT
ATOM      1  C   UNL     1       9.425   0.821  22.666  0.00  0.00    +0.162 A 
ATOM      2  C   UNL     1       8.050   0.832  22.400  0.00  0.00    +0.163 A 
ATOM      3  C   UNL     1       7.282  -0.319  22.709  0.00  0.00    +0.054 A 
ATOM      4  C   UNL     1       7.850  -1.469  23.292  0.00  0.00    -0.024 A 
ATOM      5  C   UNL     1       9.207  -1.400  23.637  0.00  0.00    +0.009 A 
ATOM      6  C   UNL     1       9.970  -0.275  23.344  0.00  0.00    +0.050 A 
ENDROOT
BRANCH   4   7
ATOM      7  C   UNL     1       7.096  -2.788  23.564  0.00  0.00    +0.082 C 
ATOM      8  C   UNL     1       8.141  -3.938  23.693  0.00  0.00    +0.027 C 
ATOM      9  C   UNL     1       7.540  -5.303  24.038  0.00  0.00    +0.016 C 
ATOM     10  C   UNL     1       6.667  -5.261  25.289  0.00  0.00    +0.098 C 
ATOM     11  C   UNL     1       5.620  -4.144  25.200  0.00  0.00    +0.016 C 
ATOM     12  C   UNL     1       6.204  -2.768  24.833  0.00  0.00    +0.027 C 
BRANCH   7  13
ATOM     13  C   UNL     1       6.205  -3.070  22.396  0.00  0.00    +0.074 C 
ATOM     14  N   UNL     1       5.534  -3.319  21.480  0.00  0.00    -0.196 NA
ENDBRANCH   7  13
BRANCH  10  15
ATOM     15  C   UNL     1       7.534  -5.149  26.535  0.00  0.00    +0.308 C 
ATOM     16  O   UNL     1       7.285  -4.440  27.498  0.00  0.00    -0.251 OA
BRANCH  15  17
ATOM     17  O   UNL     1       8.664  -5.888  26.468  0.00  0.00    -0.480 OA
ATOM     18  H   UNL     1       9.204  -5.735  25.671  0.00  0.00    +0.295 HD
ENDBRANCH  15  17
ENDBRANCH  10  15
ENDBRANCH   4   7
BRANCH   1  20
ATOM     19  C   UNL     1      10.578   2.761  23.358  0.00  0.00    +0.277 C 
ATOM     20  O   UNL     1      10.211   1.878  22.298  0.00  0.00    -0.491 OA
ENDBRANCH   1  20
BRANCH   2  21
ATOM     21  O   UNL     1       7.293   1.864  21.903  0.00  0.00    -0.485 OA
BRANCH  21  22
ATOM     22  C   UNL     1       6.777   2.878  22.763  0.00  0.00    +0.174 C 
ATOM     23  C   UNL     1       5.251   3.036  22.697  0.00  0.00    +0.044 C 
ATOM     24  C   UNL     1       4.956   4.536  22.802  0.00  0.00    +0.004 C 
ATOM     25  C   UNL     1       6.309   5.227  22.879  0.00  0.00    +0.004 C 
ATOM     26  C   UNL     1       7.257   4.235  22.231  0.00  0.00    +0.044 C 
ENDBRANCH  21  22
ENDBRANCH   2  21
TORSDOF 7
ENDMDL
MODEL 3
REMARK VINA RESULT:      -6.4      2.095      3.711
REMARK  Name = 
REMARK  8 active torsions:
REMARK  status: ('A' for Active; 'I' for Inactive)
REMARK    1  A    between atoms: C_1  and  O_2
REMARK    2  A    between atoms: O_2  and  C_3
REMARK    3  A    between atoms: C_6  and  C_15
REMARK    4  A    between atoms: C_8  and  O_9
REMARK    5  A    between atoms: O_9  and  C_10
REMARK    6  A    between atoms: C_15  and  C_25
REMARK    7  A    between atoms: C_18  and  C_22
REMARK    8  A    between atoms: C_22  and  O_23
REMARK                            x       y       z     vdW  Elec       q    Type
REMARK                         _______ _______ _______ _____ _____    ______ ____
ROOT
ATOM      1  C   UNL     1       5.970  -2.753  25.732  0.00  0.00    +0.162 A 
ATOM      2  C   UNL     1       5.918  -2.649  24.336  0.00  0.00    +0.163 A 
ATOM      3  C   UNL     1       6.935  -1.924  23.665  0.00  0.00    +0.054 A 
ATOM      4  C   UNL     1       8.007  -1.318  24.351  0.00  0.00    -0.024 A 
ATOM      5  C   UNL     1       8.075  -1.534  25.734  0.00  0.00    +0.009 A 
ATOM      6  C   UNL     1       7.088  -2.248  26.404  0.00  0.00    +0.050 A 
ENDROOT
BRANCH   4   7
ATOM      7  C   UNL     1       9.090  -0.434  23.697  0.00  0.00    +0.082 C 
ATOM      8  C   UNL     1       8.413   0.456  22.610  0.00  0.00    +0.027 C 
ATOM      9  C   UNL     1       9.358   1.443  21.922  0.00  0.00    +0.016 C 
ATOM     10  C   UNL     1      10.108   2.327  22.915  0.00  0.00    +0.098 C 
ATOM     11  C   UNL     1      10.795   1.488  24.000  0.00  0.00    +0.016 C 
ATOM     12  C   UNL     1       9.863   0.474  24.688  0.00  0.00    +0.027 C 
BRANCH   7  13
ATOM     13  C   UNL     1      10.091  -1.329  23.037  0.00  0.00    +0.074 C 
ATOM     14  N   UNL     1      10.873  -2.042  22.556  0.00  0.00    -0.196 NA
ENDBRANCH   7  13
BRANCH  10  15
ATOM     15  C   UNL     1       9.174   3.379  23.496  0.00  0.00    +0.308 C 
ATOM     16  O   UNL     1       9.080   3.651  24.683  0.00  0.00    -0.251 OA
BRANCH  15  17
ATOM     17  O   UNL     1       8.398   3.977  22.565  0.00  0.00    -0.480 OA
ATOM     18  H   UNL     1       8.857   4.636  22.013  0.00  0.00    +0.295 HD
ENDBRANCH  15  17
ENDBRANCH  10  15
ENDBRANCH   4   7
BRANCH   1  20
ATOM     19  C   UNL     1       5.329  -4.562  27.107  0.00  0.00    +0.277 C 
ATOM     20  O   UNL     1       4.958  -3.367  26.419  0.00  0.00    -0.491 OA
ENDBRANCH   1  20
BRANCH   2  21
ATOM     21  O   UNL     1       5.008  -3.215  23.479  0.00  0.00    -0.485 OA
BRANCH  21  22
ATOM     22  C   UNL     1       5.241  -4.500  22.904  0.00  0.00    +0.174 C 
ATOM     23  C   UNL     1       6.393  -5.277  23.559  0.00  0.00    +0.044 C 
ATOM     24  C   UNL     1       7.126  -6.015  22.433  0.00  0.00    +0.004 C 
ATOM     25  C   UNL     1       6.423  -5.619  21.143  0.00  0.00    +0.004 C 
ATOM     26  C   UNL     1       5.773  -4.290  21.480  0.00  0.00    +0.044 C 
ENDBRANCH  21  22
ENDBRANCH   2  21
TORSDOF 7
ENDMDL
MODEL 4
REMARK VINA RESULT:      -6.4      2.244      3.571
REMARK  Name = 
REMARK  8 active torsions:
REMARK  status: ('A' for Active; 'I' for Inactive)
REMARK    1  A    between atoms: C_1  and  O_2
REMARK    2  A    between atoms: O_2  and  C_3
REMARK    3  A    between atoms: C_6  and  C_15
REMARK    4  A    between atoms: C_8  and  O_9
REMARK    5  A    between atoms: O_9  and  C_10
REMARK    6  A    between atoms: C_15  and  C_25
REMARK    7  A    between atoms: C_18  and  C_22
REMARK    8  A    between atoms: C_22  and  O_23
REMARK                            x       y       z     vdW  Elec       q    Type
REMARK                         _______ _______ _______ _____ _____    ______ ____
ROOT
ATOM      1  C   UNL     1       7.313  -3.217  26.269  0.00  0.00    +0.162 A 
ATOM      2  C   UNL     1       6.399  -3.014  25.228  0.00  0.00    +0.163 A 
ATOM      3  C   UNL     1       6.367  -1.755  24.578  0.00  0.00    +0.054 A 
ATOM      4  C   UNL     1       7.235  -0.702  24.932  0.00  0.00    -0.024 A 
ATOM      5  C   UNL     1       8.202  -0.981  25.908  0.00  0.00    +0.009 A 
ATOM      6  C   UNL     1       8.248  -2.215  26.548  0.00  0.00    +0.050 A 
ENDROOT
BRANCH   4   7
ATOM      7  C   UNL     1       7.189   0.721  24.337  0.00  0.00    +0.082 C 
ATOM      8  C   UNL     1       8.215   1.611  25.104  0.00  0.00    +0.027 C 
ATOM      9  C   UNL     1       8.333   3.041  24.572  0.00  0.00    +0.016 C 
ATOM     10  C   UNL     1       8.632   3.088  23.076  0.00  0.00    +0.098 C 
ATOM     11  C   UNL     1       7.640   2.228  22.283  0.00  0.00    +0.016 C 
ATOM     12  C   UNL     1       7.492   0.792  22.818  0.00  0.00    +0.027 C 
BRANCH   7  13
ATOM     13  C   UNL     1       5.815   1.274  24.546  0.00  0.00    +0.074 C 
ATOM     14  N   UNL     1       4.737   1.691  24.674  0.00  0.00    -0.196 NA
ENDBRANCH   7  13
BRANCH  10  15
ATOM     15  C   UNL     1      10.080   2.699  22.813  0.00  0.00    +0.308 C 
ATOM     16  O   UNL     1      10.993   2.823  23.615  0.00  0.00    -0.251 OA
BRANCH  15  17
ATOM     17  O   UNL     1      10.288   2.234  21.561  0.00  0.00    -0.480 OA
ATOM     18  H   UNL     1      11.169   2.431  21.194  0.00  0.00    +0.295 HD
ENDBRANCH  15  17
ENDBRANCH  10  15
ENDBRANCH   4   7
BRANCH   1  20
ATOM     19  C   UNL     1       8.405  -5.263  26.709  0.00  0.00    +0.277 C 
ATOM     20  O   UNL     1       7.309  -4.387  26.977  0.00  0.00    -0.491 OA
ENDBRANCH   1  20
BRANCH   2  21
ATOM     21  O   UNL     1       5.520  -3.919  24.687  0.00  0.00    -0.485 OA
BRANCH  21  22
ATOM     22  C   UNL     1       5.984  -5.017  23.904  0.00  0.00    +0.174 C 
ATOM     23  C   UNL     1       7.300  -4.742  23.160  0.00  0.00    +0.044 C 
ATOM     24  C   UNL     1       7.185  -5.421  21.791  0.00  0.00    +0.004 C 
ATOM     25  C   UNL     1       5.795  -6.035  21.741  0.00  0.00    +0.004 C 
ATOM     26  C   UNL     1       5.002  -5.215  22.741  0.00  0.00    +0.044 C 
ENDBRANCH  21  22
ENDBRANCH   2  21
TORSDOF 7
ENDMDL
MODEL 5
REMARK VINA RESULT:      -6.2      2.859      3.980
REMARK  Name = 
REMARK  8 active torsions:
REMARK  status: ('A' for Active; 'I' for Inactive)
REMARK    1  A    between atoms: C_1  and  O_2
REMARK    2  A    between atoms: O_2  and  C_3
REMARK    3  A    between atoms: C_6  and  C_15
REMARK    4  A    between atoms: C_8  and  O_9
REMARK    5  A    between atoms: O_9  and  C_10
REMARK    6  A    between atoms: C_15  and  C_25
REMARK    7  A    between atoms: C_18  and  C_22
REMARK    8  A    between atoms: C_22  and  O_23
REMARK                            x       y       z     vdW  Elec       q    Type
REMARK                         _______ _______ _______ _____ _____    ______ ____
ROOT
ATOM      1  C   UNL     1       9.517  -2.002  23.728  0.00  0.00    +0.162 A 
ATOM      2  C   UNL     1       8.295  -1.858  23.059  0.00  0.00    +0.163 A 
ATOM      3  C   UNL     1       7.637  -0.602  23.095  0.00  0.00    +0.054 A 
ATOM      4  C   UNL     1       8.178   0.513  23.766  0.00  0.00    -0.024 A 
ATOM      5  C   UNL     1       9.449   0.353  24.334  0.00  0.00    +0.009 A 
ATOM      6  C   UNL     1      10.108  -0.871  24.301  0.00  0.00    +0.050 A 
ENDROOT
BRANCH   4   7
ATOM      7  C   UNL     1       7.472   1.876  23.929  0.00  0.00    +0.082 C 
ATOM      8  C   UNL     1       8.200   2.678  25.050  0.00  0.00    +0.027 C 
ATOM      9  C   UNL     1       7.652   4.090  25.274  0.00  0.00    +0.016 C 
ATOM     10  C   UNL     1       7.617   4.917  23.993  0.00  0.00    +0.098 C 
ATOM     11  C   UNL     1       6.904   4.163  22.863  0.00  0.00    +0.016 C 
ATOM     12  C   UNL     1       7.428   2.734  22.638  0.00  0.00    +0.027 C 
BRANCH   7  13
ATOM     13  C   UNL     1       6.059   1.627  24.349  0.00  0.00    +0.074 C 
ATOM     14  N   UNL     1       4.972   1.423  24.709  0.00  0.00    -0.196 NA
ENDBRANCH   7  13
BRANCH  10  15
ATOM     15  C   UNL     1       9.024   5.351  23.605  0.00  0.00    +0.308 C 
ATOM     16  O   UNL     1      10.052   4.898  24.084  0.00  0.00    -0.251 OA
BRANCH  15  17
ATOM     17  O   UNL     1       9.042   6.346  22.690  0.00  0.00    -0.480 OA
ATOM     18  H   UNL     1       9.195   7.236  23.058  0.00  0.00    +0.295 HD
ENDBRANCH  15  17
ENDBRANCH  10  15
ENDBRANCH   4   7
BRANCH   1  20
ATOM     19  C   UNL     1       9.737  -4.047  24.885  0.00  0.00    +0.277 C 
ATOM     20  O   UNL     1      10.133  -3.221  23.790  0.00  0.00    -0.491 OA
ENDBRANCH   1  20
BRANCH   2  21
ATOM     21  O   UNL     1       7.634  -2.788  22.296  0.00  0.00    -0.485 OA
BRANCH  21  22
ATOM     22  C   UNL     1       6.879  -3.835  22.903  0.00  0.00    +0.174 C 
ATOM     23  C   UNL     1       7.164  -5.228  22.321  0.00  0.00    +0.044 C 
ATOM     24  C   UNL     1       5.825  -5.973  22.279  0.00  0.00    +0.004 C 
ATOM     25  C   UNL     1       4.781  -4.991  22.789  0.00  0.00    +0.004 C 
ATOM     26  C   UNL     1       5.405  -3.633  22.526  0.00  0.00    +0.044 C 
ENDBRANCH  21  22
ENDBRANCH   2  21
TORSDOF 7
ENDMDL
MODEL 6
REMARK VINA RESULT:      -6.1      2.434      7.532
REMARK  Name = 
REMARK  8 active torsions:
REMARK  status: ('A' for Active; 'I' for Inactive)
REMARK    1  A    between atoms: C_1  and  O_2
REMARK    2  A    between atoms: O_2  and  C_3
REMARK    3  A    between atoms: C_6  and  C_15
REMARK    4  A    between atoms: C_8  and  O_9
REMARK    5  A    between atoms: O_9  and  C_10
REMARK    6  A    between atoms: C_15  and  C_25
REMARK    7  A    between atoms: C_18  and  C_22
REMARK    8  A    between atoms: C_22  and  O_23
REMARK                            x       y       z     vdW  Elec       q    Type
REMARK                         _______ _______ _______ _____ _____    ______ ____
ROOT
ATOM      1  C   UNL     1       7.334   0.051  25.137  0.00  0.00    +0.162 A 
ATOM      2  C   UNL     1       8.497  -0.710  24.959  0.00  0.00    +0.163 A 
ATOM      3  C   UNL     1       8.374  -2.078  24.608  0.00  0.00    +0.054 A 
ATOM      4  C   UNL     1       7.123  -2.697  24.414  0.00  0.00    -0.024 A 
ATOM      5  C   UNL     1       5.991  -1.875  24.500  0.00  0.00    +0.009 A 
ATOM      6  C   UNL     1       6.097  -0.530  24.838  0.00  0.00    +0.050 A 
ENDROOT
BRANCH   4   7
ATOM      7  C   UNL     1       6.913  -4.199  24.128  0.00  0.00    +0.082 C 
ATOM      8  C   UNL     1       5.782  -4.727  25.063  0.00  0.00    +0.027 C 
ATOM      9  C   UNL     1       5.411  -6.195  24.840  0.00  0.00    +0.016 C 
ATOM     10  C   UNL     1       5.058  -6.497  23.387  0.00  0.00    +0.098 C 
ATOM     11  C   UNL     1       6.149  -5.997  22.432  0.00  0.00    +0.016 C 
ATOM     12  C   UNL     1       6.550  -4.528  22.657  0.00  0.00    +0.027 C 
BRANCH   7  13
ATOM     13  C   UNL     1       8.183  -4.920  24.448  0.00  0.00    +0.074 C 
ATOM     14  N   UNL     1       9.190  -5.451  24.688  0.00  0.00    -0.196 NA
ENDBRANCH   7  13
BRANCH  10  15
ATOM     15  C   UNL     1       3.685  -5.932  23.048  0.00  0.00    +0.308 C 
ATOM     16  O   UNL     1       3.398  -4.745  23.046  0.00  0.00    -0.251 OA
BRANCH  15  17
ATOM     17  O   UNL     1       2.765  -6.888  22.785  0.00  0.00    -0.480 OA
ATOM     18  H   UNL     1       3.078  -7.606  22.204  0.00  0.00    +0.295 HD
ENDBRANCH  15  17
ENDBRANCH  10  15
ENDBRANCH   4   7
BRANCH   1  20
ATOM     19  C   UNL     1       6.926   2.322  24.640  0.00  0.00    +0.277 C 
ATOM     20  O   UNL     1       7.414   1.348  25.563  0.00  0.00    -0.491 OA
ENDBRANCH   1  20
BRANCH   2  21
ATOM     21  O   UNL     1       9.802  -0.290  25.032  0.00  0.00    -0.485 OA
BRANCH  21  22
ATOM     22  C   UNL     1      10.427   0.364  23.930  0.00  0.00    +0.174 C 
ATOM     23  C   UNL     1      10.584   1.881  24.111  0.00  0.00    +0.044 C 
ATOM     24  C   UNL     1      10.323   2.520  22.743  0.00  0.00    +0.004 C 
ATOM     25  C   UNL     1       9.973   1.376  21.804  0.00  0.00    +0.004 C 
ATOM     26  C   UNL     1       9.468   0.288  22.733  0.00  0.00    +0.044 C 
ENDBRANCH  21  22
ENDBRANCH   2  21
TORSDOF 7
ENDMDL
MODEL 7
REMARK VINA RESULT:      -6.1      2.191      7.120
REMARK  Name = 
REMARK  8 active torsions:
REMARK  status: ('A' for Active; 'I' for Inactive)
REMARK    1  A    between atoms: C_1  and  O_2
REMARK    2  A    between atoms: O_2  and  C_3
REMARK    3  A    between atoms: C_6  and  C_15
REMARK    4  A    between atoms: C_8  and  O_9
REMARK    5  A    between atoms: O_9  and  C_10
REMARK    6  A    between atoms: C_15  and  C_25
REMARK    7  A    between atoms: C_18  and  C_22
REMARK    8  A    between atoms: C_22  and  O_23
REMARK                            x       y       z     vdW  Elec       q    Type
REMARK                         _______ _______ _______ _____ _____    ______ ____
ROOT
ATOM      1  C   UNL     1       9.904   0.239  23.735  0.00  0.00    +0.162 A 
ATOM      2  C   UNL     1       8.769   0.135  24.550  0.00  0.00    +0.163 A 
ATOM      3  C   UNL     1       8.194  -1.143  24.764  0.00  0.00    +0.054 A 
ATOM      4  C   UNL     1       8.734  -2.317  24.200  0.00  0.00    -0.024 A 
ATOM      5  C   UNL     1       9.927  -2.180  23.478  0.00  0.00    +0.009 A 
ATOM      6  C   UNL     1      10.505  -0.933  23.265  0.00  0.00    +0.050 A 
ENDROOT
BRANCH   4   7
ATOM      7  C   UNL     1       8.106  -3.722  24.311  0.00  0.00    +0.082 C 
ATOM      8  C   UNL     1       6.905  -3.650  25.303  0.00  0.00    +0.027 C 
ATOM      9  C   UNL     1       6.134  -4.963  25.458  0.00  0.00    +0.016 C 
ATOM     10  C   UNL     1       5.661  -5.528  24.122  0.00  0.00    +0.098 C 
ATOM     11  C   UNL     1       6.816  -5.620  23.117  0.00  0.00    +0.016 C 
ATOM     12  C   UNL     1       7.616  -4.315  22.964  0.00  0.00    +0.027 C 
BRANCH   7  13
ATOM     13  C   UNL     1       9.136  -4.655  24.862  0.00  0.00    +0.074 C 
ATOM     14  N   UNL     1       9.949  -5.387  25.257  0.00  0.00    -0.196 NA
ENDBRANCH   7  13
BRANCH  10  15
ATOM     15  C   UNL     1       4.489  -4.717  23.589  0.00  0.00    +0.308 C 
ATOM     16  O   UNL     1       4.414  -4.254  22.461  0.00  0.00    -0.251 OA
BRANCH  15  17
ATOM     17  O   UNL     1       3.525  -4.503  24.512  0.00  0.00    -0.480 OA
ATOM     18  H   UNL     1       3.742  -3.827  25.180  0.00  0.00    +0.295 HD
ENDBRANCH  15  17
ENDBRANCH  10  15
ENDBRANCH   4   7
BRANCH   1  20
ATOM     19  C   UNL     1      10.130   1.950  22.125  0.00  0.00    +0.277 C 
ATOM     20  O   UNL     1      10.430   1.465  23.434  0.00  0.00    -0.491 OA
ENDBRANCH   1  20
BRANCH   2  21
ATOM     21  O   UNL     1       8.131   1.133  25.243  0.00  0.00    -0.485 OA
BRANCH  21  22
ATOM     22  C   UNL     1       7.041   1.848  24.665  0.00  0.00    +0.174 C 
ATOM     23  C   UNL     1       6.653   1.366  23.259  0.00  0.00    +0.044 C 
ATOM     24  C   UNL     1       6.282   2.614  22.450  0.00  0.00    +0.004 C 
ATOM     25  C   UNL     1       6.505   3.799  23.377  0.00  0.00    +0.004 C 
ATOM     26  C   UNL     1       7.513   3.282  24.387  0.00  0.00    +0.044 C 
ENDBRANCH  21  22
ENDBRANCH   2  21
TORSDOF 7
ENDMDL
MODEL 8
REMARK VINA RESULT:      -6.0      2.353      7.965
REMARK  Name = 
REMARK  8 active torsions:
REMARK  status: ('A' for Active; 'I' for Inactive)
REMARK    1  A    between atoms: C_1  and  O_2
REMARK    2  A    between atoms: O_2  and  C_3
REMARK    3  A    between atoms: C_6  and  C_15
REMARK    4  A    between atoms: C_8  and  O_9
REMARK    5  A    between atoms: O_9  and  C_10
REMARK    6  A    between atoms: C_15  and  C_25
REMARK    7  A    between atoms: C_18  and  C_22
REMARK    8  A    between atoms: C_22  and  O_23
REMARK                            x       y       z     vdW  Elec       q    Type
REMARK                         _______ _______ _______ _____ _____    ______ ____
ROOT
ATOM      1  C   UNL     1       6.565   1.889  24.925  0.00  0.00    +0.162 A 
ATOM      2  C   UNL     1       7.960   1.769  24.882  0.00  0.00    +0.163 A 
ATOM      3  C   UNL     1       8.531   0.525  24.512  0.00  0.00    +0.054 A 
ATOM      4  C   UNL     1       7.743  -0.593  24.170  0.00  0.00    -0.024 A 
ATOM      5  C   UNL     1       6.356  -0.399  24.126  0.00  0.00    +0.009 A 
ATOM      6  C   UNL     1       5.783   0.818  24.480  0.00  0.00    +0.050 A 
ENDROOT
BRANCH   4   7
ATOM      7  C   UNL     1       8.293  -2.000  23.854  0.00  0.00    +0.082 C 
ATOM      8  C   UNL     1       8.967  -2.567  25.141  0.00  0.00    +0.027 C 
ATOM      9  C   UNL     1       9.498  -3.996  24.999  0.00  0.00    +0.016 C 
ATOM     10  C   UNL     1       8.434  -4.971  24.505  0.00  0.00    +0.098 C 
ATOM     11  C   UNL     1       7.749  -4.452  23.235  0.00  0.00    +0.016 C 
ATOM     12  C   UNL     1       7.227  -3.009  23.353  0.00  0.00    +0.027 C 
BRANCH   7  13
ATOM     13  C   UNL     1       9.327  -1.871  22.781  0.00  0.00    +0.074 C 
ATOM     14  N   UNL     1      10.149  -1.800  21.962  0.00  0.00    -0.196 NA
ENDBRANCH   7  13
BRANCH  10  15
ATOM     15  C   UNL     1       7.442  -5.280  25.618  0.00  0.00    +0.308 C 
ATOM     16  O   UNL     1       6.242  -5.063  25.564  0.00  0.00    -0.251 OA
BRANCH  15  17
ATOM     17  O   UNL     1       8.025  -5.788  26.727  0.00  0.00    -0.480 OA
ATOM     18  H   UNL     1       8.019  -6.762  26.781  0.00  0.00    +0.295 HD
ENDBRANCH  15  17
ENDBRANCH  10  15
ENDBRANCH   4   7
BRANCH   1  20
ATOM     19  C   UNL     1       5.597   3.960  24.337  0.00  0.00    +0.277 C 
ATOM     20  O   UNL     1       5.983   3.046  25.364  0.00  0.00    -0.491 OA
ENDBRANCH   1  20
BRANCH   2  21
ATOM     21  O   UNL     1       8.900   2.743  25.110  0.00  0.00    -0.485 OA
BRANCH  21  22
ATOM     22  C   UNL     1       9.316   3.622  24.066  0.00  0.00    +0.174 C 
ATOM     23  C   UNL     1      10.773   3.419  23.623  0.00  0.00    +0.044 C 
ATOM     24  C   UNL     1      11.345   4.811  23.332  0.00  0.00    +0.004 C 
ATOM     25  C   UNL     1      10.235   5.799  23.656  0.00  0.00    +0.004 C 
ATOM     26  C   UNL     1       9.357   5.045  24.638  0.00  0.00    +0.044 C 
ENDBRANCH  21  22
ENDBRANCH   2  21
TORSDOF 7
ENDMDL
MODEL 9
REMARK VINA RESULT:      -6.0      1.719      2.136
REMARK  Name = 
REMARK  8 active torsions:
REMARK  status: ('A' for Active; 'I' for Inactive)
REMARK    1  A    between atoms: C_1  and  O_2
REMARK    2  A    between atoms: O_2  and  C_3
REMARK    3  A    between atoms: C_6  and  C_15
REMARK    4  A    between atoms: C_8  and  O_9
REMARK    5  A    between atoms: O_9  and  C_10
REMARK    6  A    between atoms: C_15  and  C_25
REMARK    7  A    between atoms: C_18  and  C_22
REMARK    8  A    between atoms: C_22  and  O_23
REMARK                            x       y       z     vdW  Elec       q    Type
REMARK                         _______ _______ _______ _____ _____    ______ ____
ROOT
ATOM      1  C   UNL     1       6.807  -3.942  23.285  0.00  0.00    +0.162 A 
ATOM      2  C   UNL     1       5.859  -3.309  24.100  0.00  0.00    +0.163 A 
ATOM      3  C   UNL     1       5.907  -1.899  24.239  0.00  0.00    +0.054 A 
ATOM      4  C   UNL     1       6.865  -1.108  23.573  0.00  0.00    -0.024 A 
ATOM      5  C   UNL     1       7.727  -1.771  22.689  0.00  0.00    +0.009 A 
ATOM      6  C   UNL     1       7.687  -3.153  22.538  0.00  0.00    +0.050 A 
ENDROOT
BRANCH   4   7
ATOM      7  C   UNL     1       7.036   0.414  23.755  0.00  0.00    +0.082 C 
ATOM      8  C   UNL     1       8.229   0.665  24.727  0.00  0.00    +0.027 C 
ATOM      9  C   UNL     1       8.566   2.142  24.947  0.00  0.00    +0.016 C 
ATOM     10  C   UNL     1       8.805   2.890  23.640  0.00  0.00    +0.098 C 
ATOM     11  C   UNL     1       7.650   2.674  22.654  0.00  0.00    +0.016 C 
ATOM     12  C   UNL     1       7.283   1.195  22.438  0.00  0.00    +0.027 C 
BRANCH   7  13
ATOM     13  C   UNL     1       5.786   0.959  24.370  0.00  0.00    +0.074 C 
ATOM     14  N   UNL     1       4.834   1.408  24.864  0.00  0.00    -0.196 NA
ENDBRANCH   7  13
BRANCH  10  15
ATOM     15  C   UNL     1      10.154   2.505  23.049  0.00  0.00    +0.308 C 
ATOM     16  O   UNL     1      11.165   2.286  23.698  0.00  0.00    -0.251 OA
BRANCH  15  17
ATOM     17  O   UNL     1      10.154   2.470  21.697  0.00  0.00    -0.480 OA
ATOM     18  H   UNL     1      10.925   2.024  21.301  0.00  0.00    +0.295 HD
ENDBRANCH  15  17
ENDBRANCH  10  15
ENDBRANCH   4   7
BRANCH   1  20
ATOM     19  C   UNL     1       6.174  -5.865  22.070  0.00  0.00    +0.277 C 
ATOM     20  O   UNL     1       6.846  -5.307  23.200  0.00  0.00    -0.491 OA
ENDBRANCH   1  20
BRANCH   2  21
ATOM     21  O   UNL     1       4.810  -3.879  24.777  0.00  0.00    -0.485 OA
BRANCH  21  22
ATOM     22  C   UNL     1       4.971  -4.362  26.110  0.00  0.00    +0.174 C 
ATOM     23  C   UNL     1       6.389  -4.181  26.673  0.00  0.00    +0.044 C 
ATOM     24  C   UNL     1       6.696  -5.429  27.508  0.00  0.00    +0.004 C 
ATOM     25  C   UNL     1       5.480  -6.332  27.379  0.00  0.00    +0.004 C 
ATOM     26  C   UNL     1       4.839  -5.891  26.075  0.00  0.00    +0.044 C 
ENDBRANCH  21  22
ENDBRANCH   2  21
TORSDOF 7
ENDMDL
