MODEL 1
REMARK VINA RESULT:      -4.9      0.000      0.000
REMARK  Name = 
REMARK  18 active torsions:
REMARK  status: ('A' for Active; 'I' for Inactive)
REMARK    1  A    between atoms: C_1  and  C_2
REMARK    2  A    between atoms: C_2  and  C_3
REMARK    3  A    between atoms: C_3  and  C_4
REMARK    4  A    between atoms: C_4  and  C_5
REMARK    5  A    between atoms: C_5  and  C_6
REMARK    6  A    between atoms: C_6  and  C_7
REMARK    7  A    between atoms: C_7  and  C_8
REMARK    8  A    between atoms: C_8  and  C_9
REMARK    9  A    between atoms: C_9  and  C_10
REMARK   10  A    between atoms: C_10  and  C_11
REMARK   11  A    between atoms: C_11  and  C_12
REMARK   12  A    between atoms: C_12  and  O_13
REMARK   13  A    between atoms: C_12  and  P_14
REMARK   14  A    between atoms: C_12  and  P_18
REMARK   15  A    between atoms: P_14  and  O_15
REMARK   16  A    between atoms: P_14  and  O_16
REMARK   17  A    between atoms: P_18  and  O_19
REMARK   18  A    between atoms: P_18  and  O_20
REMARK                            x       y       z     vdW  Elec       q    Type
REMARK                         _______ _______ _______ _____ _____    ______ ____
ROOT
ATOM      1  C   UNL     1       7.137  -3.591  23.225  0.00  0.00    +0.267 C 
ENDROOT
BRANCH   1   2
ATOM      2  O   UNL     1       5.996  -3.251  24.085  0.00  0.00    -0.367 OA
ATOM      3  H   UNL     1       5.283  -3.893  23.925  0.00  0.00    +0.212 HD
ENDBRANCH   1   2
BRANCH   1   4
ATOM      4  P   UNL     1       6.439  -4.631  21.890  0.00  0.00    +0.371 P 
ATOM      5  O   UNL     1       5.849  -5.510  20.761  0.00  0.00    -0.255 OA
BRANCH   4   6
ATOM      6  O   UNL     1       5.334  -5.311  22.893  0.00  0.00    -0.322 OA
ATOM      7  H   UNL     1       4.912  -4.523  23.315  0.00  0.00    +0.220 HD
ENDBRANCH   4   6
BRANCH   4   8
ATOM      8  O   UNL     1       5.540  -3.341  21.375  0.00  0.00    -0.322 OA
ATOM      9  H   UNL     1       4.858  -3.056  22.036  0.00  0.00    +0.220 HD
ENDBRANCH   4   8
ENDBRANCH   1   4
BRANCH   1  10
ATOM     10  P   UNL     1       8.390  -4.550  24.152  0.00  0.00    +0.371 P 
ATOM     11  O   UNL     1       9.451  -5.360  24.937  0.00  0.00    -0.255 OA
BRANCH  10  12
ATOM     12  O   UNL     1       7.186  -5.165  25.099  0.00  0.00    -0.322 OA
ATOM     13  H   UNL     1       7.524  -5.992  25.493  0.00  0.00    +0.220 HD
ENDBRANCH  10  12
BRANCH  10  14
ATOM     14  O   UNL     1       8.198  -5.770  23.039  0.00  0.00    -0.322 OA
ATOM     15  H   UNL     1       7.903  -6.566  23.534  0.00  0.00    +0.220 HD
ENDBRANCH  10  14
ENDBRANCH   1  10
BRANCH   1  16
ATOM     16  C   UNL     1       7.734  -2.301  22.624  0.00  0.00    +0.060 C 
BRANCH  16  17
ATOM     17  C   UNL     1       9.259  -2.136  22.736  0.00  0.00    +0.004 C 
BRANCH  17  18
ATOM     18  C   UNL     1       9.859  -1.180  21.709  0.00  0.00    +0.000 C 
BRANCH  18  19
ATOM     19  C   UNL     1       9.005   0.034  21.429  0.00  0.00    +0.000 C 
BRANCH  19  20
ATOM     20  C   UNL     1       9.804   1.290  21.781  0.00  0.00    +0.000 C 
BRANCH  20  21
ATOM     21  C   UNL     1       8.953   2.279  22.556  0.00  0.00    -0.000 C 
BRANCH  21  22
ATOM     22  C   UNL     1       9.157   2.116  24.056  0.00  0.00    -0.000 C 
BRANCH  22  23
ATOM     23  C   UNL     1      10.493   1.442  24.341  0.00  0.00    -0.000 C 
BRANCH  23  24
ATOM     24  C   UNL     1      10.291   0.204  25.211  0.00  0.00    -0.000 C 
BRANCH  24  26
ATOM     25  C   UNL     1       8.578  -1.252  26.329  0.00  0.00    +0.004 C 
ATOM     26  C   UNL     1       8.820   0.070  25.628  0.00  0.00    -0.003 C 
ENDBRANCH  24  26
ENDBRANCH  23  24
ENDBRANCH  22  23
ENDBRANCH  21  22
ENDBRANCH  20  21
ENDBRANCH  19  20
ENDBRANCH  18  19
ENDBRANCH  17  18
ENDBRANCH  16  17
ENDBRANCH   1  16
TORSDOF 17
ENDMDL
MODEL 2
REMARK VINA RESULT:      -4.9      1.112      2.716
REMARK  Name = 
REMARK  18 active torsions:
REMARK  status: ('A' for Active; 'I' for Inactive)
REMARK    1  A    between atoms: C_1  and  C_2
REMARK    2  A    between atoms: C_2  and  C_3
REMARK    3  A    between atoms: C_3  and  C_4
REMARK    4  A    between atoms: C_4  and  C_5
REMARK    5  A    between atoms: C_5  and  C_6
REMARK    6  A    between atoms: C_6  and  C_7
REMARK    7  A    between atoms: C_7  and  C_8
REMARK    8  A    between atoms: C_8  and  C_9
REMARK    9  A    between atoms: C_9  and  C_10
REMARK   10  A    between atoms: C_10  and  C_11
REMARK   11  A    between atoms: C_11  and  C_12
REMARK   12  A    between atoms: C_12  and  O_13
REMARK   13  A    between atoms: C_12  and  P_14
REMARK   14  A    between atoms: C_12  and  P_18
REMARK   15  A    between atoms: P_14  and  O_15
REMARK   16  A    between atoms: P_14  and  O_16
REMARK   17  A    between atoms: P_18  and  O_19
REMARK   18  A    between atoms: P_18  and  O_20
REMARK                            x       y       z     vdW  Elec       q    Type
REMARK                         _______ _______ _______ _____ _____    ______ ____
ROOT
ATOM      1  C   UNL     1       7.062  -4.847  23.264  0.00  0.00    +0.267 C 
ENDROOT
BRANCH   1   2
ATOM      2  O   UNL     1       8.349  -5.499  23.535  0.00  0.00    -0.367 OA
ATOM      3  H   UNL     1       8.517  -6.159  22.841  0.00  0.00    +0.212 HD
ENDBRANCH   1   2
BRANCH   1   4
ATOM      4  P   UNL     1       5.902  -5.543  24.497  0.00  0.00    +0.371 P 
ATOM      5  O   UNL     1       4.921  -6.132  25.539  0.00  0.00    -0.255 OA
BRANCH   4   6
ATOM      6  O   UNL     1       6.917  -5.224  25.744  0.00  0.00    -0.322 OA
ATOM      7  H   UNL     1       6.478  -5.683  26.502  0.00  0.00    +0.220 HD
ENDBRANCH   4   6
BRANCH   4   8
ATOM      8  O   UNL     1       5.063  -4.117  24.493  0.00  0.00    -0.322 OA
ATOM      9  H   UNL     1       4.688  -3.887  25.381  0.00  0.00    +0.220 HD
ENDBRANCH   4   8
ENDBRANCH   1   4
BRANCH   1  10
ATOM     10  P   UNL     1       6.471  -5.243  21.578  0.00  0.00    +0.371 P 
ATOM     11  O   UNL     1       5.971  -5.579  20.152  0.00  0.00    -0.255 OA
BRANCH  10  12
ATOM     12  O   UNL     1       5.296  -6.196  22.240  0.00  0.00    -0.322 OA
ATOM     13  H   UNL     1       4.929  -5.711  23.004  0.00  0.00    +0.220 HD
ENDBRANCH  10  12
BRANCH  10  14
ATOM     14  O   UNL     1       5.493  -3.900  21.667  0.00  0.00    -0.322 OA
ATOM     15  H   UNL     1       5.861  -3.236  21.042  0.00  0.00    +0.220 HD
ENDBRANCH  10  14
ENDBRANCH   1  10
BRANCH   1  16
ATOM     16  C   UNL     1       7.198  -3.324  23.478  0.00  0.00    +0.060 C 
BRANCH  16  17
ATOM     17  C   UNL     1       8.538  -2.692  23.063  0.00  0.00    +0.004 C 
BRANCH  17  18
ATOM     18  C   UNL     1       8.404  -1.544  22.066  0.00  0.00    +0.000 C 
BRANCH  18  19
ATOM     19  C   UNL     1       9.672  -0.748  21.872  0.00  0.00    +0.000 C 
BRANCH  19  20
ATOM     20  C   UNL     1       9.301   0.675  21.452  0.00  0.00    +0.000 C 
BRANCH  20  21
ATOM     21  C   UNL     1      10.146   1.699  22.188  0.00  0.00    -0.000 C 
BRANCH  21  22
ATOM     22  C   UNL     1      10.286   1.336  23.659  0.00  0.00    -0.000 C 
BRANCH  22  23
ATOM     23  C   UNL     1       9.156   1.960  24.470  0.00  0.00    -0.000 C 
BRANCH  23  24
ATOM     24  C   UNL     1       8.402   0.884  25.248  0.00  0.00    -0.000 C 
BRANCH  24  26
ATOM     25  C   UNL     1       8.633  -1.264  26.525  0.00  0.00    +0.004 C 
ATOM     26  C   UNL     1       9.344  -0.264  25.637  0.00  0.00    -0.003 C 
ENDBRANCH  24  26
ENDBRANCH  23  24
ENDBRANCH  22  23
ENDBRANCH  21  22
ENDBRANCH  20  21
ENDBRANCH  19  20
ENDBRANCH  18  19
ENDBRANCH  17  18
ENDBRANCH  16  17
ENDBRANCH   1  16
TORSDOF 17
ENDMDL
MODEL 3
REMARK VINA RESULT:      -4.9      1.713      3.575
REMARK  Name = 
REMARK  18 active torsions:
REMARK  status: ('A' for Active; 'I' for Inactive)
REMARK    1  A    between atoms: C_1  and  C_2
REMARK    2  A    between atoms: C_2  and  C_3
REMARK    3  A    between atoms: C_3  and  C_4
REMARK    4  A    between atoms: C_4  and  C_5
REMARK    5  A    between atoms: C_5  and  C_6
REMARK    6  A    between atoms: C_6  and  C_7
REMARK    7  A    between atoms: C_7  and  C_8
REMARK    8  A    between atoms: C_8  and  C_9
REMARK    9  A    between atoms: C_9  and  C_10
REMARK   10  A    between atoms: C_10  and  C_11
REMARK   11  A    between atoms: C_11  and  C_12
REMARK   12  A    between atoms: C_12  and  O_13
REMARK   13  A    between atoms: C_12  and  P_14
REMARK   14  A    between atoms: C_12  and  P_18
REMARK   15  A    between atoms: P_14  and  O_15
REMARK   16  A    between atoms: P_14  and  O_16
REMARK   17  A    between atoms: P_18  and  O_19
REMARK   18  A    between atoms: P_18  and  O_20
REMARK                            x       y       z     vdW  Elec       q    Type
REMARK                         _______ _______ _______ _____ _____    ______ ____
ROOT
ATOM      1  C   UNL     1       8.319  -4.665  24.798  0.00  0.00    +0.267 C 
ENDROOT
BRANCH   1   2
ATOM      2  O   UNL     1       9.518  -5.445  24.464  0.00  0.00    -0.367 OA
ATOM      3  H   UNL     1      10.275  -4.839  24.394  0.00  0.00    +0.212 HD
ENDBRANCH   1   2
BRANCH   1   4
ATOM      4  P   UNL     1       7.817  -5.244  26.460  0.00  0.00    +0.371 P 
ATOM      5  O   UNL     1       7.391  -5.734  27.865  0.00  0.00    -0.255 OA
BRANCH   4   6
ATOM      6  O   UNL     1       9.303  -4.960  27.092  0.00  0.00    -0.322 OA
ATOM      7  H   UNL     1       9.662  -5.872  27.216  0.00  0.00    +0.220 HD
ENDBRANCH   4   6
BRANCH   4   8
ATOM      8  O   UNL     1       7.138  -3.765  26.755  0.00  0.00    -0.322 OA
ATOM      9  H   UNL     1       7.810  -3.063  26.950  0.00  0.00    +0.220 HD
ENDBRANCH   4   8
ENDBRANCH   1   4
BRANCH   1  10
ATOM     10  P   UNL     1       6.972  -4.993  23.604  0.00  0.00    +0.371 P 
ATOM     11  O   UNL     1       5.832  -5.271  22.593  0.00  0.00    -0.255 OA
BRANCH  10  12
ATOM     12  O   UNL     1       6.093  -5.680  24.821  0.00  0.00    -0.322 OA
ATOM     13  H   UNL     1       6.586  -5.532  25.651  0.00  0.00    +0.220 HD
ENDBRANCH  10  12
BRANCH  10  14
ATOM     14  O   UNL     1       6.367  -3.485  23.960  0.00  0.00    -0.322 OA
ATOM     15  H   UNL     1       6.950  -2.830  23.516  0.00  0.00    +0.220 HD
ENDBRANCH  10  14
ENDBRANCH   1  10
BRANCH   1  16
ATOM     16  C   UNL     1       8.679  -3.165  24.855  0.00  0.00    +0.060 C 
BRANCH  16  17
ATOM     17  C   UNL     1       9.828  -2.701  23.944  0.00  0.00    +0.004 C 
BRANCH  17  18
ATOM     18  C   UNL     1       9.368  -1.983  22.678  0.00  0.00    +0.000 C 
BRANCH  18  19
ATOM     19  C   UNL     1      10.233  -0.806  22.291  0.00  0.00    +0.000 C 
BRANCH  19  20
ATOM     20  C   UNL     1      10.628  -0.047  23.559  0.00  0.00    +0.000 C 
BRANCH  20  21
ATOM     21  C   UNL     1      10.173   1.399  23.493  0.00  0.00    -0.000 C 
BRANCH  21  22
ATOM     22  C   UNL     1       9.925   1.828  22.054  0.00  0.00    -0.000 C 
BRANCH  22  23
ATOM     23  C   UNL     1       8.465   2.219  21.860  0.00  0.00    -0.000 C 
BRANCH  23  24
ATOM     24  C   UNL     1       7.686   2.035  23.160  0.00  0.00    -0.000 C 
BRANCH  24  26
ATOM     25  C   UNL     1       6.723   0.047  24.352  0.00  0.00    +0.004 C 
ATOM     26  C   UNL     1       6.737   0.833  23.057  0.00  0.00    -0.003 C 
ENDBRANCH  24  26
ENDBRANCH  23  24
ENDBRANCH  22  23
ENDBRANCH  21  22
ENDBRANCH  20  21
ENDBRANCH  19  20
ENDBRANCH  18  19
ENDBRANCH  17  18
ENDBRANCH  16  17
ENDBRANCH   1  16
TORSDOF 17
ENDMDL
MODEL 4
REMARK VINA RESULT:      -4.9      2.152      4.009
REMARK  Name = 
REMARK  18 active torsions:
REMARK  status: ('A' for Active; 'I' for Inactive)
REMARK    1  A    between atoms: C_1  and  C_2
REMARK    2  A    between atoms: C_2  and  C_3
REMARK    3  A    between atoms: C_3  and  C_4
REMARK    4  A    between atoms: C_4  and  C_5
REMARK    5  A    between atoms: C_5  and  C_6
REMARK    6  A    between atoms: C_6  and  C_7
REMARK    7  A    between atoms: C_7  and  C_8
REMARK    8  A    between atoms: C_8  and  C_9
REMARK    9  A    between atoms: C_9  and  C_10
REMARK   10  A    between atoms: C_10  and  C_11
REMARK   11  A    between atoms: C_11  and  C_12
REMARK   12  A    between atoms: C_12  and  O_13
REMARK   13  A    between atoms: C_12  and  P_14
REMARK   14  A    between atoms: C_12  and  P_18
REMARK   15  A    between atoms: P_14  and  O_15
REMARK   16  A    between atoms: P_14  and  O_16
REMARK   17  A    between atoms: P_18  and  O_19
REMARK   18  A    between atoms: P_18  and  O_20
REMARK                            x       y       z     vdW  Elec       q    Type
REMARK                         _______ _______ _______ _____ _____    ______ ____
ROOT
ATOM      1  C   UNL     1       8.343  -4.291  26.389  0.00  0.00    +0.267 C 
ENDROOT
BRANCH   1   2
ATOM      2  O   UNL     1       9.443  -4.788  27.224  0.00  0.00    -0.367 OA
ATOM      3  H   UNL     1       9.555  -4.189  27.982  0.00  0.00    +0.212 HD
ENDBRANCH   1   2
BRANCH   1   4
ATOM      4  P   UNL     1       6.816  -4.884  27.203  0.00  0.00    +0.371 P 
ATOM      5  O   UNL     1       5.523  -5.386  27.893  0.00  0.00    -0.255 OA
BRANCH   4   6
ATOM      6  O   UNL     1       6.270  -5.597  25.832  0.00  0.00    -0.322 OA
ATOM      7  H   UNL     1       7.084  -6.033  25.477  0.00  0.00    +0.220 HD
ENDBRANCH   4   6
BRANCH   4   8
ATOM      8  O   UNL     1       7.660  -6.164  27.825  0.00  0.00    -0.322 OA
ATOM      9  H   UNL     1       7.400  -6.383  28.756  0.00  0.00    +0.220 HD
ENDBRANCH   4   8
ENDBRANCH   1   4
BRANCH   1  10
ATOM     10  P   UNL     1       8.441  -4.983  24.698  0.00  0.00    +0.371 P 
ATOM     11  O   UNL     1       8.524  -5.568  23.267  0.00  0.00    -0.255 OA
BRANCH  10  12
ATOM     12  O   UNL     1       9.873  -4.189  24.482  0.00  0.00    -0.322 OA
ATOM     13  H   UNL     1       9.667  -3.337  24.052  0.00  0.00    +0.220 HD
ENDBRANCH  10  12
BRANCH  10  14
ATOM     14  O   UNL     1       9.221  -6.303  25.345  0.00  0.00    -0.322 OA
ATOM     15  H   UNL     1       9.676  -6.759  24.602  0.00  0.00    +0.220 HD
ENDBRANCH  10  14
ENDBRANCH   1  10
BRANCH   1  16
ATOM     16  C   UNL     1       8.362  -2.747  26.376  0.00  0.00    +0.060 C 
BRANCH  16  17
ATOM     17  C   UNL     1       7.434  -2.060  25.359  0.00  0.00    +0.004 C 
BRANCH  17  18
ATOM     18  C   UNL     1       8.142  -1.063  24.445  0.00  0.00    +0.000 C 
BRANCH  18  19
ATOM     19  C   UNL     1       9.164  -0.203  25.151  0.00  0.00    +0.000 C 
BRANCH  19  20
ATOM     20  C   UNL     1      10.343   0.034  24.206  0.00  0.00    +0.000 C 
BRANCH  20  21
ATOM     21  C   UNL     1      10.739   1.500  24.184  0.00  0.00    -0.000 C 
BRANCH  21  22
ATOM     22  C   UNL     1      10.206   2.191  22.938  0.00  0.00    -0.000 C 
BRANCH  22  23
ATOM     23  C   UNL     1       9.924   1.170  21.842  0.00  0.00    -0.000 C 
BRANCH  23  24
ATOM     24  C   UNL     1       8.512   1.354  21.291  0.00  0.00    -0.000 C 
BRANCH  24  26
ATOM     25  C   UNL     1       6.504   1.882  22.702  0.00  0.00    +0.004 C 
ATOM     26  C   UNL     1       7.764   2.443  22.074  0.00  0.00    -0.003 C 
ENDBRANCH  24  26
ENDBRANCH  23  24
ENDBRANCH  22  23
ENDBRANCH  21  22
ENDBRANCH  20  21
ENDBRANCH  19  20
ENDBRANCH  18  19
ENDBRANCH  17  18
ENDBRANCH  16  17
ENDBRANCH   1  16
TORSDOF 17
ENDMDL
MODEL 5
REMARK VINA RESULT:      -4.8      1.476      3.195
REMARK  Name = 
REMARK  18 active torsions:
REMARK  status: ('A' for Active; 'I' for Inactive)
REMARK    1  A    between atoms: C_1  and  C_2
REMARK    2  A    between atoms: C_2  and  C_3
REMARK    3  A    between atoms: C_3  and  C_4
REMARK    4  A    between atoms: C_4  and  C_5
REMARK    5  A    between atoms: C_5  and  C_6
REMARK    6  A    between atoms: C_6  and  C_7
REMARK    7  A    between atoms: C_7  and  C_8
REMARK    8  A    between atoms: C_8  and  C_9
REMARK    9  A    between atoms: C_9  and  C_10
REMARK   10  A    between atoms: C_10  and  C_11
REMARK   11  A    between atoms: C_11  and  C_12
REMARK   12  A    between atoms: C_12  and  O_13
REMARK   13  A    between atoms: C_12  and  P_14
REMARK   14  A    between atoms: C_12  and  P_18
REMARK   15  A    between atoms: P_14  and  O_15
REMARK   16  A    between atoms: P_14  and  O_16
REMARK   17  A    between atoms: P_18  and  O_19
REMARK   18  A    between atoms: P_18  and  O_20
REMARK                            x       y       z     vdW  Elec       q    Type
REMARK                         _______ _______ _______ _____ _____    ______ ____
ROOT
ATOM      1  C   UNL     1       7.709  -4.533  24.586  0.00  0.00    +0.267 C 
ENDROOT
BRANCH   1   2
ATOM      2  O   UNL     1       8.967  -5.189  24.210  0.00  0.00    -0.367 OA
ATOM      3  H   UNL     1       8.760  -6.011  23.733  0.00  0.00    +0.212 HD
ENDBRANCH   1   2
BRANCH   1   4
ATOM      4  P   UNL     1       7.461  -4.945  26.352  0.00  0.00    +0.371 P 
ATOM      5  O   UNL     1       7.251  -5.294  27.846  0.00  0.00    -0.255 OA
BRANCH   4   6
ATOM      6  O   UNL     1       6.314  -6.066  26.008  0.00  0.00    -0.322 OA
ATOM      7  H   UNL     1       5.899  -5.704  25.187  0.00  0.00    +0.220 HD
ENDBRANCH   4   6
BRANCH   4   8
ATOM      8  O   UNL     1       8.789  -5.929  26.295  0.00  0.00    -0.322 OA
ATOM      9  H   UNL     1       9.051  -6.173  25.370  0.00  0.00    +0.220 HD
ENDBRANCH   4   8
ENDBRANCH   1   4
BRANCH   1  10
ATOM     10  P   UNL     1       6.310  -5.189  23.604  0.00  0.00    +0.371 P 
ATOM     11  O   UNL     1       5.127  -5.744  22.774  0.00  0.00    -0.255 OA
BRANCH  10  12
ATOM     12  O   UNL     1       5.825  -3.639  23.305  0.00  0.00    -0.322 OA
ATOM     13  H   UNL     1       5.756  -3.188  24.168  0.00  0.00    +0.220 HD
ENDBRANCH  10  12
BRANCH  10  14
ATOM     14  O   UNL     1       7.312  -5.178  22.276  0.00  0.00    -0.322 OA
ATOM     15  H   UNL     1       7.577  -4.243  22.125  0.00  0.00    +0.220 HD
ENDBRANCH  10  14
ENDBRANCH   1  10
BRANCH   1  16
ATOM     16  C   UNL     1       7.854  -3.005  24.423  0.00  0.00    +0.060 C 
BRANCH  16  17
ATOM     17  C   UNL     1       9.130  -2.510  23.720  0.00  0.00    +0.004 C 
BRANCH  17  18
ATOM     18  C   UNL     1       8.886  -1.907  22.339  0.00  0.00    +0.000 C 
BRANCH  18  19
ATOM     19  C   UNL     1       9.938  -0.911  21.910  0.00  0.00    +0.000 C 
BRANCH  19  20
ATOM     20  C   UNL     1       9.248   0.397  21.520  0.00  0.00    +0.000 C 
BRANCH  20  21
ATOM     21  C   UNL     1      10.006   1.596  22.060  0.00  0.00    -0.000 C 
BRANCH  21  22
ATOM     22  C   UNL     1      10.350   1.409  23.530  0.00  0.00    -0.000 C 
BRANCH  22  23
ATOM     23  C   UNL     1       9.198   1.878  24.410  0.00  0.00    -0.000 C 
BRANCH  23  24
ATOM     24  C   UNL     1       8.661   0.721  25.248  0.00  0.00    -0.000 C 
BRANCH  24  26
ATOM     25  C   UNL     1       6.503   0.495  23.985  0.00  0.00    +0.004 C 
ATOM     26  C   UNL     1       7.129   0.782  25.335  0.00  0.00    -0.003 C 
ENDBRANCH  24  26
ENDBRANCH  23  24
ENDBRANCH  22  23
ENDBRANCH  21  22
ENDBRANCH  20  21
ENDBRANCH  19  20
ENDBRANCH  18  19
ENDBRANCH  17  18
ENDBRANCH  16  17
ENDBRANCH   1  16
TORSDOF 17
ENDMDL
MODEL 6
REMARK VINA RESULT:      -4.8      1.119      2.795
REMARK  Name = 
REMARK  18 active torsions:
REMARK  status: ('A' for Active; 'I' for Inactive)
REMARK    1  A    between atoms: C_1  and  C_2
REMARK    2  A    between atoms: C_2  and  C_3
REMARK    3  A    between atoms: C_3  and  C_4
REMARK    4  A    between atoms: C_4  and  C_5
REMARK    5  A    between atoms: C_5  and  C_6
REMARK    6  A    between atoms: C_6  and  C_7
REMARK    7  A    between atoms: C_7  and  C_8
REMARK    8  A    between atoms: C_8  and  C_9
REMARK    9  A    between atoms: C_9  and  C_10
REMARK   10  A    between atoms: C_10  and  C_11
REMARK   11  A    between atoms: C_11  and  C_12
REMARK   12  A    between atoms: C_12  and  O_13
REMARK   13  A    between atoms: C_12  and  P_14
REMARK   14  A    between atoms: C_12  and  P_18
REMARK   15  A    between atoms: P_14  and  O_15
REMARK   16  A    between atoms: P_14  and  O_16
REMARK   17  A    between atoms: P_18  and  O_19
REMARK   18  A    between atoms: P_18  and  O_20
REMARK                            x       y       z     vdW  Elec       q    Type
REMARK                         _______ _______ _______ _____ _____    ______ ____
ROOT
ATOM      1  C   UNL     1       6.747  -3.823  23.612  0.00  0.00    +0.267 C 
ENDROOT
BRANCH   1   2
ATOM      2  O   UNL     1       5.667  -4.084  24.572  0.00  0.00    -0.367 OA
ATOM      3  H   UNL     1       5.006  -3.375  24.497  0.00  0.00    +0.212 HD
ENDBRANCH   1   2
BRANCH   1   4
ATOM      4  P   UNL     1       6.314  -4.799  22.126  0.00  0.00    +0.371 P 
ATOM      5  O   UNL     1       5.948  -5.624  20.868  0.00  0.00    -0.255 OA
BRANCH   4   6
ATOM      6  O   UNL     1       5.587  -5.970  23.013  0.00  0.00    -0.322 OA
ATOM      7  H   UNL     1       4.674  -5.993  22.634  0.00  0.00    +0.220 HD
ENDBRANCH   4   6
BRANCH   4   8
ATOM      8  O   UNL     1       5.000  -3.823  21.885  0.00  0.00    -0.322 OA
ATOM      9  H   UNL     1       4.251  -4.025  22.501  0.00  0.00    +0.220 HD
ENDBRANCH   4   8
ENDBRANCH   1   4
BRANCH   1  10
ATOM     10  P   UNL     1       8.357  -4.394  24.269  0.00  0.00    +0.371 P 
ATOM     11  O   UNL     1       9.720  -4.877  24.824  0.00  0.00    -0.255 OA
BRANCH  10  12
ATOM     12  O   UNL     1       7.552  -5.311  25.380  0.00  0.00    -0.322 OA
ATOM     13  H   UNL     1       8.016  -6.169  25.436  0.00  0.00    +0.220 HD
ENDBRANCH  10  12
BRANCH  10  14
ATOM     14  O   UNL     1       8.310  -5.628  23.153  0.00  0.00    -0.322 OA
ATOM     15  H   UNL     1       8.094  -6.451  23.645  0.00  0.00    +0.220 HD
ENDBRANCH  10  14
ENDBRANCH   1  10
BRANCH   1  16
ATOM     16  C   UNL     1       6.775  -2.321  23.260  0.00  0.00    +0.060 C 
BRANCH  16  17
ATOM     17  C   UNL     1       6.051  -1.376  24.235  0.00  0.00    +0.004 C 
BRANCH  17  18
ATOM     18  C   UNL     1       6.626   0.038  24.275  0.00  0.00    +0.000 C 
BRANCH  18  19
ATOM     19  C   UNL     1       7.337   0.375  25.564  0.00  0.00    +0.000 C 
BRANCH  19  20
ATOM     20  C   UNL     1       8.771   0.798  25.240  0.00  0.00    +0.000 C 
BRANCH  20  21
ATOM     21  C   UNL     1       9.643  -0.410  24.947  0.00  0.00    -0.000 C 
BRANCH  21  22
ATOM     22  C   UNL     1      10.531  -0.162  23.736  0.00  0.00    -0.000 C 
BRANCH  22  23
ATOM     23  C   UNL     1      10.111  -1.059  22.577  0.00  0.00    -0.000 C 
BRANCH  23  24
ATOM     24  C   UNL     1       9.414  -0.240  21.494  0.00  0.00    -0.000 C 
BRANCH  24  26
ATOM     25  C   UNL     1       8.295   1.999  21.686  0.00  0.00    +0.004 C 
ATOM     26  C   UNL     1       9.618   1.262  21.736  0.00  0.00    -0.003 C 
ENDBRANCH  24  26
ENDBRANCH  23  24
ENDBRANCH  22  23
ENDBRANCH  21  22
ENDBRANCH  20  21
ENDBRANCH  19  20
ENDBRANCH  18  19
ENDBRANCH  17  18
ENDBRANCH  16  17
ENDBRANCH   1  16
TORSDOF 17
ENDMDL
MODEL 7
REMARK VINA RESULT:      -4.7      1.758      3.823
REMARK  Name = 
REMARK  18 active torsions:
REMARK  status: ('A' for Active; 'I' for Inactive)
REMARK    1  A    between atoms: C_1  and  C_2
REMARK    2  A    between atoms: C_2  and  C_3
REMARK    3  A    between atoms: C_3  and  C_4
REMARK    4  A    between atoms: C_4  and  C_5
REMARK    5  A    between atoms: C_5  and  C_6
REMARK    6  A    between atoms: C_6  and  C_7
REMARK    7  A    between atoms: C_7  and  C_8
REMARK    8  A    between atoms: C_8  and  C_9
REMARK    9  A    between atoms: C_9  and  C_10
REMARK   10  A    between atoms: C_10  and  C_11
REMARK   11  A    between atoms: C_11  and  C_12
REMARK   12  A    between atoms: C_12  and  O_13
REMARK   13  A    between atoms: C_12  and  P_14
REMARK   14  A    between atoms: C_12  and  P_18
REMARK   15  A    between atoms: P_14  and  O_15
REMARK   16  A    between atoms: P_14  and  O_16
REMARK   17  A    between atoms: P_18  and  O_19
REMARK   18  A    between atoms: P_18  and  O_20
REMARK                            x       y       z     vdW  Elec       q    Type
REMARK                         _______ _______ _______ _____ _____    ______ ____
ROOT
ATOM      1  C   UNL     1       8.663  -3.900  24.733  0.00  0.00    +0.267 C 
ENDROOT
BRANCH   1   2
ATOM      2  O   UNL     1       9.924  -4.632  24.559  0.00  0.00    -0.367 OA
ATOM      3  H   UNL     1      10.663  -4.025  24.733  0.00  0.00    +0.212 HD
ENDBRANCH   1   2
BRANCH   1   4
ATOM      4  P   UNL     1       7.957  -4.526  26.301  0.00  0.00    +0.371 P 
ATOM      5  O   UNL     1       7.358  -5.056  27.627  0.00  0.00    -0.255 OA
BRANCH   4   6
ATOM      6  O   UNL     1       8.668  -5.992  26.124  0.00  0.00    -0.322 OA
ATOM      7  H   UNL     1       9.630  -5.776  26.204  0.00  0.00    +0.220 HD
ENDBRANCH   4   6
BRANCH   4   8
ATOM      8  O   UNL     1       9.166  -3.765  27.134  0.00  0.00    -0.322 OA
ATOM      9  H   UNL     1       9.335  -4.168  28.024  0.00  0.00    +0.220 HD
ENDBRANCH   4   8
ENDBRANCH   1   4
BRANCH   1  10
ATOM     10  P   UNL     1       7.507  -4.252  23.359  0.00  0.00    +0.371 P 
ATOM     11  O   UNL     1       6.529  -4.549  22.196  0.00  0.00    -0.255 OA
BRANCH  10  12
ATOM     12  O   UNL     1       8.227  -5.724  23.161  0.00  0.00    -0.322 OA
ATOM     13  H   UNL     1       8.485  -5.794  22.222  0.00  0.00    +0.220 HD
ENDBRANCH  10  12
BRANCH  10  14
ATOM     14  O   UNL     1       6.449  -4.871  24.483  0.00  0.00    -0.322 OA
ATOM     15  H   UNL     1       6.938  -4.931  25.334  0.00  0.00    +0.220 HD
ENDBRANCH  10  14
ENDBRANCH   1  10
BRANCH   1  16
ATOM     16  C   UNL     1       8.956  -2.389  24.860  0.00  0.00    +0.060 C 
BRANCH  16  17
ATOM     17  C   UNL     1       7.814  -1.435  24.470  0.00  0.00    +0.004 C 
BRANCH  17  18
ATOM     18  C   UNL     1       7.591  -0.294  25.459  0.00  0.00    +0.000 C 
BRANCH  18  19
ATOM     19  C   UNL     1       6.896   0.907  24.863  0.00  0.00    +0.000 C 
BRANCH  19  20
ATOM     20  C   UNL     1       6.562   0.607  23.400  0.00  0.00    +0.000 C 
BRANCH  20  21
ATOM     21  C   UNL     1       6.632   1.866  22.555  0.00  0.00    -0.000 C 
BRANCH  21  22
ATOM     22  C   UNL     1       8.075   2.223  22.226  0.00  0.00    -0.000 C 
BRANCH  22  23
ATOM     23  C   UNL     1       8.765   1.057  21.529  0.00  0.00    -0.000 C 
BRANCH  23  24
ATOM     24  C   UNL     1      10.111   0.764  22.187  0.00  0.00    -0.000 C 
BRANCH  24  26
ATOM     25  C   UNL     1      11.005   0.767  24.533  0.00  0.00    +0.004 C 
ATOM     26  C   UNL     1      10.268   1.573  23.482  0.00  0.00    -0.003 C 
ENDBRANCH  24  26
ENDBRANCH  23  24
ENDBRANCH  22  23
ENDBRANCH  21  22
ENDBRANCH  20  21
ENDBRANCH  19  20
ENDBRANCH  18  19
ENDBRANCH  17  18
ENDBRANCH  16  17
ENDBRANCH   1  16
TORSDOF 17
ENDMDL
MODEL 8
REMARK VINA RESULT:      -4.7      1.568      3.325
REMARK  Name = 
REMARK  18 active torsions:
REMARK  status: ('A' for Active; 'I' for Inactive)
REMARK    1  A    between atoms: C_1  and  C_2
REMARK    2  A    between atoms: C_2  and  C_3
REMARK    3  A    between atoms: C_3  and  C_4
REMARK    4  A    between atoms: C_4  and  C_5
REMARK    5  A    between atoms: C_5  and  C_6
REMARK    6  A    between atoms: C_6  and  C_7
REMARK    7  A    between atoms: C_7  and  C_8
REMARK    8  A    between atoms: C_8  and  C_9
REMARK    9  A    between atoms: C_9  and  C_10
REMARK   10  A    between atoms: C_10  and  C_11
REMARK   11  A    between atoms: C_11  and  C_12
REMARK   12  A    between atoms: C_12  and  O_13
REMARK   13  A    between atoms: C_12  and  P_14
REMARK   14  A    between atoms: C_12  and  P_18
REMARK   15  A    between atoms: P_14  and  O_15
REMARK   16  A    between atoms: P_14  and  O_16
REMARK   17  A    between atoms: P_18  and  O_19
REMARK   18  A    between atoms: P_18  and  O_20
REMARK                            x       y       z     vdW  Elec       q    Type
REMARK                         _______ _______ _______ _____ _____    ______ ____
ROOT
ATOM      1  C   UNL     1       7.376  -3.603  25.761  0.00  0.00    +0.267 C 
ENDROOT
BRANCH   1   2
ATOM      2  O   UNL     1       6.245  -2.668  25.787  0.00  0.00    -0.367 OA
ATOM      3  H   UNL     1       6.411  -1.960  25.141  0.00  0.00    +0.212 HD
ENDBRANCH   1   2
BRANCH   1   4
ATOM      4  P   UNL     1       7.301  -4.402  24.116  0.00  0.00    +0.371 P 
ATOM      5  O   UNL     1       7.237  -5.078  22.725  0.00  0.00    -0.255 OA
BRANCH   4   6
ATOM      6  O   UNL     1       7.203  -2.963  23.337  0.00  0.00    -0.322 OA
ATOM      7  H   UNL     1       7.516  -2.324  24.023  0.00  0.00    +0.220 HD
ENDBRANCH   4   6
BRANCH   4   8
ATOM      8  O   UNL     1       8.948  -4.560  24.132  0.00  0.00    -0.322 OA
ATOM      9  H   UNL     1       9.396  -3.997  23.450  0.00  0.00    +0.220 HD
ENDBRANCH   4   8
ENDBRANCH   1   4
BRANCH   1  10
ATOM     10  P   UNL     1       7.203  -4.875  27.065  0.00  0.00    +0.371 P 
ATOM     11  O   UNL     1       7.057  -5.950  28.169  0.00  0.00    -0.255 OA
BRANCH  10  12
ATOM     12  O   UNL     1       6.968  -6.012  25.892  0.00  0.00    -0.322 OA
ATOM     13  H   UNL     1       6.152  -6.497  26.122  0.00  0.00    +0.220 HD
ENDBRANCH  10  12
BRANCH  10  14
ATOM     14  O   UNL     1       8.852  -5.084  27.000  0.00  0.00    -0.322 OA
ATOM     15  H   UNL     1       9.110  -5.581  27.808  0.00  0.00    +0.220 HD
ENDBRANCH  10  14
ENDBRANCH   1  10
BRANCH   1  16
ATOM     16  C   UNL     1       8.698  -2.819  25.900  0.00  0.00    +0.060 C 
BRANCH  16  17
ATOM     17  C   UNL     1       8.609  -1.442  26.581  0.00  0.00    +0.004 C 
BRANCH  17  18
ATOM     18  C   UNL     1       8.991  -0.274  25.675  0.00  0.00    +0.000 C 
BRANCH  18  19
ATOM     19  C   UNL     1       7.808   0.484  25.120  0.00  0.00    +0.000 C 
BRANCH  19  20
ATOM     20  C   UNL     1       8.112   1.983  25.179  0.00  0.00    +0.000 C 
BRANCH  20  21
ATOM     21  C   UNL     1       9.322   2.327  24.330  0.00  0.00    -0.000 C 
BRANCH  21  22
ATOM     22  C   UNL     1       8.905   3.023  23.041  0.00  0.00    -0.000 C 
BRANCH  22  23
ATOM     23  C   UNL     1       8.743   2.007  21.917  0.00  0.00    -0.000 C 
BRANCH  23  24
ATOM     24  C   UNL     1       9.912   1.025  21.913  0.00  0.00    -0.000 C 
BRANCH  24  26
ATOM     25  C   UNL     1      10.223  -1.421  22.389  0.00  0.00    +0.004 C 
ATOM     26  C   UNL     1       9.422  -0.398  21.609  0.00  0.00    -0.003 C 
ENDBRANCH  24  26
ENDBRANCH  23  24
ENDBRANCH  22  23
ENDBRANCH  21  22
ENDBRANCH  20  21
ENDBRANCH  19  20
ENDBRANCH  18  19
ENDBRANCH  17  18
ENDBRANCH  16  17
ENDBRANCH   1  16
TORSDOF 17
ENDMDL
MODEL 9
REMARK VINA RESULT:      -4.7      1.243      2.440
REMARK  Name = 
REMARK  18 active torsions:
REMARK  status: ('A' for Active; 'I' for Inactive)
REMARK    1  A    between atoms: C_1  and  C_2
REMARK    2  A    between atoms: C_2  and  C_3
REMARK    3  A    between atoms: C_3  and  C_4
REMARK    4  A    between atoms: C_4  and  C_5
REMARK    5  A    between atoms: C_5  and  C_6
REMARK    6  A    between atoms: C_6  and  C_7
REMARK    7  A    between atoms: C_7  and  C_8
REMARK    8  A    between atoms: C_8  and  C_9
REMARK    9  A    between atoms: C_9  and  C_10
REMARK   10  A    between atoms: C_10  and  C_11
REMARK   11  A    between atoms: C_11  and  C_12
REMARK   12  A    between atoms: C_12  and  O_13
REMARK   13  A    between atoms: C_12  and  P_14
REMARK   14  A    between atoms: C_12  and  P_18
REMARK   15  A    between atoms: P_14  and  O_15
REMARK   16  A    between atoms: P_14  and  O_16
REMARK   17  A    between atoms: P_18  and  O_19
REMARK   18  A    between atoms: P_18  and  O_20
REMARK                            x       y       z     vdW  Elec       q    Type
REMARK                         _______ _______ _______ _____ _____    ______ ____
ROOT
ATOM      1  C   UNL     1       6.943  -3.623  23.715  0.00  0.00    +0.267 C 
ENDROOT
BRANCH   1   2
ATOM      2  O   UNL     1       6.258  -2.380  24.091  0.00  0.00    -0.367 OA
ATOM      3  H   UNL     1       6.718  -1.989  24.853  0.00  0.00    +0.212 HD
ENDBRANCH   1   2
BRANCH   1   4
ATOM      4  P   UNL     1       5.657  -4.660  22.927  0.00  0.00    +0.371 P 
ATOM      5  O   UNL     1       4.569  -5.537  22.262  0.00  0.00    -0.255 OA
BRANCH   4   6
ATOM      6  O   UNL     1       5.247  -3.479  21.866  0.00  0.00    -0.322 OA
ATOM      7  H   UNL     1       5.901  -2.768  22.072  0.00  0.00    +0.220 HD
ENDBRANCH   4   6
BRANCH   4   8
ATOM      8  O   UNL     1       6.828  -5.404  22.026  0.00  0.00    -0.322 OA
ATOM      9  H   UNL     1       6.822  -5.120  21.076  0.00  0.00    +0.220 HD
ENDBRANCH   4   8
ENDBRANCH   1   4
BRANCH   1  10
ATOM     10  P   UNL     1       7.599  -4.480  25.192  0.00  0.00    +0.371 P 
ATOM     11  O   UNL     1       8.154  -5.206  26.442  0.00  0.00    -0.255 OA
BRANCH  10  12
ATOM     12  O   UNL     1       6.495  -5.684  24.954  0.00  0.00    -0.322 OA
ATOM     13  H   UNL     1       5.918  -5.705  25.742  0.00  0.00    +0.220 HD
ENDBRANCH  10  12
BRANCH  10  14
ATOM     14  O   UNL     1       8.699  -5.233  24.196  0.00  0.00    -0.322 OA
ATOM     15  H   UNL     1       8.596  -4.835  23.303  0.00  0.00    +0.220 HD
ENDBRANCH  10  14
ENDBRANCH   1  10
BRANCH   1  16
ATOM     16  C   UNL     1       8.058  -3.310  22.694  0.00  0.00    +0.060 C 
BRANCH  16  17
ATOM     17  C   UNL     1       8.556  -1.855  22.648  0.00  0.00    +0.004 C 
BRANCH  17  18
ATOM     18  C   UNL     1       9.743  -1.574  23.566  0.00  0.00    +0.000 C 
BRANCH  18  19
ATOM     19  C   UNL     1       9.355  -1.041  24.925  0.00  0.00    +0.000 C 
BRANCH  19  20
ATOM     20  C   UNL     1       9.999   0.334  25.116  0.00  0.00    +0.000 C 
BRANCH  20  21
ATOM     21  C   UNL     1      10.868   0.699  23.927  0.00  0.00    -0.000 C 
BRANCH  21  22
ATOM     22  C   UNL     1      10.439   2.029  23.324  0.00  0.00    -0.000 C 
BRANCH  22  23
ATOM     23  C   UNL     1       9.643   1.802  22.045  0.00  0.00    -0.000 C 
BRANCH  23  24
ATOM     24  C   UNL     1       8.278   2.479  22.139  0.00  0.00    -0.000 C 
BRANCH  24  26
ATOM     25  C   UNL     1       6.671   1.307  23.670  0.00  0.00    +0.004 C 
ATOM     26  C   UNL     1       7.160   1.431  22.241  0.00  0.00    -0.003 C 
ENDBRANCH  24  26
ENDBRANCH  23  24
ENDBRANCH  22  23
ENDBRANCH  21  22
ENDBRANCH  20  21
ENDBRANCH  19  20
ENDBRANCH  18  19
ENDBRANCH  17  18
ENDBRANCH  16  17
ENDBRANCH   1  16
TORSDOF 17
ENDMDL
