MODEL 1
REMARK VINA RESULT:      -5.9      0.000      0.000
REMARK  Name = 
REMARK  15 active torsions:
REMARK  status: ('A' for Active; 'I' for Inactive)
REMARK    1  A    between atoms: CA_2  and  CB_3
REMARK    2  A    between atoms: CA_2  and  N_4
REMARK    3  A    between atoms: CA_2  and  C_27
REMARK    4  A    between atoms: C_5  and  CA_7
REMARK    5  A    between atoms: CA_7  and  N_9
REMARK    6  A    between atoms: CA_7  and  CB_22
REMARK    7  A    between atoms: C_10  and  C_12
REMARK    8  A    between atoms: C_15  and  C_17
REMARK    9  A    between atoms: C_17  and  O_19
REMARK   10  A    between atoms: O_19  and  C_20
REMARK   11  A    between atoms: C_20  and  C_21
REMARK   12  A    between atoms: CB_22  and  CG2_24
REMARK   13  A    between atoms: CB_22  and  CG1_25
REMARK   14  A    between atoms: CG1_25  and  CD1_26
REMARK   15  A    between atoms: C_27  and  O_28
REMARK                            x       y       z     vdW  Elec       q    Type
REMARK                         _______ _______ _______ _____ _____    ______ ____
ROOT
ATOM      1  CA  ILE A   1       7.477  -4.263  23.466  0.00  0.00    +0.162 C 
ENDROOT
BRANCH   1   4
ATOM      2  N   ILE A   1       8.890  -2.239  23.584  0.00  0.00    -0.301 N 
ATOM      3  H   ILE A   1       9.328  -2.715  24.376  0.00  0.00    +0.150 HD
ATOM      4  C   ILE A   1       7.664  -2.751  23.189  0.00  0.00    +0.234 C 
ATOM      5  O   ILE A   1       6.794  -2.034  22.708  0.00  0.00    -0.274 OA
BRANCH   2   6
ATOM      6  CA  ILE A   1       9.171  -0.802  23.394  0.00  0.00    +0.179 C 
ATOM      7  CB  ILE A   1      10.138  -0.269  24.440  0.00  0.00    +0.040 C 
BRANCH   6   8
ATOM      8  C   ILE A   1       9.679  -0.541  21.968  0.00  0.00    +0.325 C 
ATOM      9  OXT ILE A   1       9.323   0.384  21.252  0.00  0.00    -0.249 OA
BRANCH   8  10
ATOM     10  O   ILE A   1      10.502  -1.527  21.527  0.00  0.00    -0.479 OA
ATOM     11  H   ILE A   1      10.664  -1.411  20.568  0.00  0.00    +0.295 HD
ENDBRANCH   8  10
ENDBRANCH   6   8
ENDBRANCH   2   6
ENDBRANCH   1   4
BRANCH   1  12
ATOM     12  N   ILE A   1       7.266  -4.477  24.892  0.00  0.00    -0.302 N 
ATOM     13  H   ILE A   1       6.552  -3.949  25.381  0.00  0.00    +0.150 HD
ATOM     14  C   UNK A   0       8.134  -5.206  25.661  0.00  0.00    +0.246 C 
ATOM     15  O   UNK A   0       9.146  -5.742  25.224  0.00  0.00    -0.273 OA
BRANCH  14  16
ATOM     16  C   UNK A   0       7.804  -5.259  27.099  0.00  0.00    +0.244 C 
ATOM     17  C   UNK A   0       6.419  -5.663  27.544  0.00  0.00    +0.265 C 
ATOM     18  O   UNK A   0       6.847  -4.290  27.573  0.00  0.00    -0.347 OA
BRANCH  17  19
ATOM     19  C   UNK A   0       6.266  -6.331  28.853  0.00  0.00    +0.339 C 
ATOM     20  O   UNK A   0       6.215  -7.547  28.970  0.00  0.00    -0.248 OA
BRANCH  19  21
ATOM     21  O   UNK A   0       6.068  -5.423  29.843  0.00  0.00    -0.463 OA
BRANCH  21  22
ATOM     22  C   UNK A   0       4.737  -5.395  30.381  0.00  0.00    +0.229 C 
ATOM     23  C   UNK A   0       4.160  -4.019  30.100  0.00  0.00    +0.048 C 
ENDBRANCH  21  22
ENDBRANCH  19  21
ENDBRANCH  17  19
ENDBRANCH  14  16
ENDBRANCH   1  12
BRANCH   1  24
ATOM     24  CB  ILE A   1       6.348  -4.906  22.618  0.00  0.00    +0.015 C 
ATOM     25  CG2 ILE A   1       6.842  -5.953  21.605  0.00  0.00    +0.010 C 
BRANCH  24  26
ATOM     26  CG1 ILE A   1       5.236  -5.534  23.487  0.00  0.00    +0.002 C 
ATOM     27  CD1 ILE A   1       3.830  -5.058  23.142  0.00  0.00    +0.004 C 
ENDBRANCH  24  26
ENDBRANCH   1  24
TORSDOF 11
ENDMDL
MODEL 2
REMARK VINA RESULT:      -5.9      3.006      7.324
REMARK  Name = 
REMARK  15 active torsions:
REMARK  status: ('A' for Active; 'I' for Inactive)
REMARK    1  A    between atoms: CA_2  and  CB_3
REMARK    2  A    between atoms: CA_2  and  N_4
REMARK    3  A    between atoms: CA_2  and  C_27
REMARK    4  A    between atoms: C_5  and  CA_7
REMARK    5  A    between atoms: CA_7  and  N_9
REMARK    6  A    between atoms: CA_7  and  CB_22
REMARK    7  A    between atoms: C_10  and  C_12
REMARK    8  A    between atoms: C_15  and  C_17
REMARK    9  A    between atoms: C_17  and  O_19
REMARK   10  A    between atoms: O_19  and  C_20
REMARK   11  A    between atoms: C_20  and  C_21
REMARK   12  A    between atoms: CB_22  and  CG2_24
REMARK   13  A    between atoms: CB_22  and  CG1_25
REMARK   14  A    between atoms: CG1_25  and  CD1_26
REMARK   15  A    between atoms: C_27  and  O_28
REMARK                            x       y       z     vdW  Elec       q    Type
REMARK                         _______ _______ _______ _____ _____    ______ ____
ROOT
ATOM      1  CA  ILE A   1       8.841  -3.406  23.864  0.00  0.00    +0.162 C 
ENDROOT
BRANCH   1   4
ATOM      2  N   ILE A   1       7.084  -4.767  22.785  0.00  0.00    -0.301 N 
ATOM      3  H   ILE A   1       7.771  -5.522  22.849  0.00  0.00    +0.150 HD
ATOM      4  C   ILE A   1       7.590  -3.489  22.955  0.00  0.00    +0.234 C 
ATOM      5  O   ILE A   1       7.100  -2.522  22.381  0.00  0.00    -0.274 OA
BRANCH   2   6
ATOM      6  CA  ILE A   1       5.907  -4.971  21.916  0.00  0.00    +0.179 C 
ATOM      7  CB  ILE A   1       6.225  -5.866  20.728  0.00  0.00    +0.040 C 
BRANCH   6   8
ATOM      8  C   ILE A   1       4.727  -5.516  22.735  0.00  0.00    +0.325 C 
ATOM      9  OXT ILE A   1       3.690  -4.911  22.965  0.00  0.00    -0.249 OA
BRANCH   8  10
ATOM     10  O   ILE A   1       5.000  -6.726  23.287  0.00  0.00    -0.479 OA
ATOM     11  H   ILE A   1       4.163  -7.210  23.444  0.00  0.00    +0.295 HD
ENDBRANCH   8  10
ENDBRANCH   6   8
ENDBRANCH   2   6
ENDBRANCH   1   4
BRANCH   1  12
ATOM     12  N   ILE A   1       9.195  -2.009  24.084  0.00  0.00    -0.302 N 
ATOM     13  H   ILE A   1       8.661  -1.451  24.742  0.00  0.00    +0.150 HD
ATOM     14  C   UNK A   0      10.085  -1.343  23.284  0.00  0.00    +0.246 C 
ATOM     15  O   UNK A   0      10.659  -1.854  22.331  0.00  0.00    -0.273 OA
BRANCH  14  16
ATOM     16  C   UNK A   0      10.269   0.086  23.608  0.00  0.00    +0.244 C 
ATOM     17  C   UNK A   0       9.165   1.076  23.324  0.00  0.00    +0.265 C 
ATOM     18  O   UNK A   0      10.334   0.994  22.489  0.00  0.00    -0.347 OA
BRANCH  17  19
ATOM     19  C   UNK A   0       9.054   2.273  24.183  0.00  0.00    +0.339 C 
ATOM     20  O   UNK A   0       8.401   2.285  25.216  0.00  0.00    -0.248 OA
BRANCH  19  21
ATOM     21  O   UNK A   0       9.654   3.346  23.603  0.00  0.00    -0.463 OA
BRANCH  21  22
ATOM     22  C   UNK A   0       9.344   4.611  24.207  0.00  0.00    +0.229 C 
ATOM     23  C   UNK A   0      10.460   5.575  23.846  0.00  0.00    +0.048 C 
ENDBRANCH  21  22
ENDBRANCH  19  21
ENDBRANCH  17  19
ENDBRANCH  14  16
ENDBRANCH   1  12
BRANCH   1  24
ATOM     24  CB  ILE A   1       8.679  -4.173  25.202  0.00  0.00    +0.015 C 
ATOM     25  CG2 ILE A   1       9.896  -5.030  25.587  0.00  0.00    +0.010 C 
BRANCH  24  26
ATOM     26  CG1 ILE A   1       8.327  -3.240  26.383  0.00  0.00    +0.002 C 
ATOM     27  CD1 ILE A   1       6.856  -3.256  26.775  0.00  0.00    +0.004 C 
ENDBRANCH  24  26
ENDBRANCH   1  24
TORSDOF 11
ENDMDL
MODEL 3
REMARK VINA RESULT:      -5.8      4.395      7.446
REMARK  Name = 
REMARK  15 active torsions:
REMARK  status: ('A' for Active; 'I' for Inactive)
REMARK    1  A    between atoms: CA_2  and  CB_3
REMARK    2  A    between atoms: CA_2  and  N_4
REMARK    3  A    between atoms: CA_2  and  C_27
REMARK    4  A    between atoms: C_5  and  CA_7
REMARK    5  A    between atoms: CA_7  and  N_9
REMARK    6  A    between atoms: CA_7  and  CB_22
REMARK    7  A    between atoms: C_10  and  C_12
REMARK    8  A    between atoms: C_15  and  C_17
REMARK    9  A    between atoms: C_17  and  O_19
REMARK   10  A    between atoms: O_19  and  C_20
REMARK   11  A    between atoms: C_20  and  C_21
REMARK   12  A    between atoms: CB_22  and  CG2_24
REMARK   13  A    between atoms: CB_22  and  CG1_25
REMARK   14  A    between atoms: CG1_25  and  CD1_26
REMARK   15  A    between atoms: C_27  and  O_28
REMARK                            x       y       z     vdW  Elec       q    Type
REMARK                         _______ _______ _______ _____ _____    ______ ____
ROOT
ATOM      1  CA  ILE A   1       9.056   2.442  22.842  0.00  0.00    +0.162 C 
ENDROOT
BRANCH   1   4
ATOM      2  N   ILE A   1      10.729   4.252  23.016  0.00  0.00    -0.301 N 
ATOM      3  H   ILE A   1      10.373   4.532  22.099  0.00  0.00    +0.150 HD
ATOM      4  C   ILE A   1      10.394   2.969  23.416  0.00  0.00    +0.234 C 
ATOM      5  O   ILE A   1      11.139   2.303  24.127  0.00  0.00    -0.274 OA
BRANCH   2   6
ATOM      6  CA  ILE A   1      11.998   4.849  23.480  0.00  0.00    +0.179 C 
ATOM      7  CB  ILE A   1      12.910   5.220  22.321  0.00  0.00    +0.040 C 
BRANCH   6   8
ATOM      8  C   ILE A   1      11.719   6.055  24.390  0.00  0.00    +0.325 C 
ATOM      9  OXT ILE A   1      10.628   6.585  24.544  0.00  0.00    -0.249 OA
BRANCH   8  10
ATOM     10  O   ILE A   1      12.855   6.557  24.939  0.00  0.00    -0.479 OA
ATOM     11  H   ILE A   1      13.505   6.744  24.230  0.00  0.00    +0.295 HD
ENDBRANCH   8  10
ENDBRANCH   6   8
ENDBRANCH   2   6
ENDBRANCH   1   4
BRANCH   1  12
ATOM     12  N   ILE A   1       8.914   1.025  23.152  0.00  0.00    -0.302 N 
ATOM     13  H   ILE A   1       8.853   0.724  24.119  0.00  0.00    +0.150 HD
ATOM     14  C   UNK A   0       9.075   0.047  22.207  0.00  0.00    +0.246 C 
ATOM     15  O   UNK A   0       9.341   0.272  21.032  0.00  0.00    -0.273 OA
BRANCH  14  16
ATOM     16  C   UNK A   0       8.966  -1.336  22.713  0.00  0.00    +0.244 C 
ATOM     17  C   UNK A   0       9.781  -1.772  23.907  0.00  0.00    +0.265 C 
ATOM     18  O   UNK A   0      10.139  -2.164  22.570  0.00  0.00    -0.347 OA
BRANCH  17  19
ATOM     19  C   UNK A   0       9.238  -2.833  24.780  0.00  0.00    +0.339 C 
ATOM     20  O   UNK A   0       8.613  -2.591  25.802  0.00  0.00    -0.248 OA
BRANCH  19  21
ATOM     21  O   UNK A   0       9.638  -4.062  24.360  0.00  0.00    -0.463 OA
BRANCH  21  22
ATOM     22  C   UNK A   0       8.668  -5.105  24.532  0.00  0.00    +0.229 C 
ATOM     23  C   UNK A   0       7.690  -5.015  23.374  0.00  0.00    +0.048 C 
ENDBRANCH  21  22
ENDBRANCH  19  21
ENDBRANCH  17  19
ENDBRANCH  14  16
ENDBRANCH   1  12
BRANCH   1  24
ATOM     24  CB  ILE A   1       7.823   3.258  23.313  0.00  0.00    +0.015 C 
ATOM     25  CG2 ILE A   1       8.034   4.001  24.643  0.00  0.00    +0.010 C 
BRANCH  24  26
ATOM     26  CG1 ILE A   1       7.333   4.265  22.248  0.00  0.00    +0.002 C 
ATOM     27  CD1 ILE A   1       7.414   5.722  22.683  0.00  0.00    +0.004 C 
ENDBRANCH  24  26
ENDBRANCH   1  24
TORSDOF 11
ENDMDL
MODEL 4
REMARK VINA RESULT:      -5.8      2.618      7.211
REMARK  Name = 
REMARK  15 active torsions:
REMARK  status: ('A' for Active; 'I' for Inactive)
REMARK    1  A    between atoms: CA_2  and  CB_3
REMARK    2  A    between atoms: CA_2  and  N_4
REMARK    3  A    between atoms: CA_2  and  C_27
REMARK    4  A    between atoms: C_5  and  CA_7
REMARK    5  A    between atoms: CA_7  and  N_9
REMARK    6  A    between atoms: CA_7  and  CB_22
REMARK    7  A    between atoms: C_10  and  C_12
REMARK    8  A    between atoms: C_15  and  C_17
REMARK    9  A    between atoms: C_17  and  O_19
REMARK   10  A    between atoms: O_19  and  C_20
REMARK   11  A    between atoms: C_20  and  C_21
REMARK   12  A    between atoms: CB_22  and  CG2_24
REMARK   13  A    between atoms: CB_22  and  CG1_25
REMARK   14  A    between atoms: CG1_25  and  CD1_26
REMARK   15  A    between atoms: C_27  and  O_28
REMARK                            x       y       z     vdW  Elec       q    Type
REMARK                         _______ _______ _______ _____ _____    ______ ____
ROOT
ATOM      1  CA  ILE A   1       8.864  -3.575  24.902  0.00  0.00    +0.162 C 
ENDROOT
BRANCH   1   4
ATOM      2  N   ILE A   1       7.003  -4.573  23.618  0.00  0.00    -0.301 N 
ATOM      3  H   ILE A   1       6.416  -3.959  24.188  0.00  0.00    +0.150 HD
ATOM      4  C   ILE A   1       8.293  -4.762  24.088  0.00  0.00    +0.234 C 
ATOM      5  O   ILE A   1       8.894  -5.815  23.905  0.00  0.00    -0.274 OA
BRANCH   2   6
ATOM      6  CA  ILE A   1       6.345  -5.649  22.852  0.00  0.00    +0.179 C 
ATOM      7  CB  ILE A   1       5.155  -6.233  23.598  0.00  0.00    +0.040 C 
BRANCH   6   8
ATOM      8  C   ILE A   1       5.946  -5.144  21.457  0.00  0.00    +0.325 C 
ATOM      9  OXT ILE A   1       5.967  -5.812  20.433  0.00  0.00    -0.249 OA
BRANCH   8  10
ATOM     10  O   ILE A   1       5.663  -3.816  21.453  0.00  0.00    -0.479 OA
ATOM     11  H   ILE A   1       5.329  -3.557  20.569  0.00  0.00    +0.295 HD
ENDBRANCH   8  10
ENDBRANCH   6   8
ENDBRANCH   2   6
ENDBRANCH   1   4
BRANCH   1  12
ATOM     12  N   ILE A   1       8.630  -2.330  24.181  0.00  0.00    -0.302 N 
ATOM     13  H   ILE A   1       7.732  -1.864  24.258  0.00  0.00    +0.150 HD
ATOM     14  C   UNK A   0       9.493  -1.862  23.226  0.00  0.00    +0.246 C 
ATOM     15  O   UNK A   0      10.526  -2.434  22.901  0.00  0.00    -0.273 OA
BRANCH  14  16
ATOM     16  C   UNK A   0       9.062  -0.623  22.547  0.00  0.00    +0.244 C 
ATOM     17  C   UNK A   0       9.261   0.716  23.214  0.00  0.00    +0.265 C 
ATOM     18  O   UNK A   0       7.966   0.093  23.154  0.00  0.00    -0.347 OA
BRANCH  17  19
ATOM     19  C   UNK A   0       9.458   1.906  22.361  0.00  0.00    +0.339 C 
ATOM     20  O   UNK A   0      10.564   2.289  22.009  0.00  0.00    -0.248 OA
BRANCH  19  21
ATOM     21  O   UNK A   0       8.283   2.553  22.149  0.00  0.00    -0.463 OA
BRANCH  21  22
ATOM     22  C   UNK A   0       8.041   3.669  23.019  0.00  0.00    +0.229 C 
ATOM     23  C   UNK A   0       7.184   4.664  22.257  0.00  0.00    +0.048 C 
ENDBRANCH  21  22
ENDBRANCH  19  21
ENDBRANCH  17  19
ENDBRANCH  14  16
ENDBRANCH   1  12
BRANCH   1  24
ATOM     24  CB  ILE A   1       8.320  -3.508  26.353  0.00  0.00    +0.015 C 
ATOM     25  CG2 ILE A   1       7.167  -2.509  26.545  0.00  0.00    +0.010 C 
BRANCH  24  26
ATOM     26  CG1 ILE A   1       7.881  -4.890  26.888  0.00  0.00    +0.002 C 
ATOM     27  CD1 ILE A   1       6.482  -4.910  27.490  0.00  0.00    +0.004 C 
ENDBRANCH  24  26
ENDBRANCH   1  24
TORSDOF 11
ENDMDL
MODEL 5
REMARK VINA RESULT:      -5.7      3.303      7.464
REMARK  Name = 
REMARK  15 active torsions:
REMARK  status: ('A' for Active; 'I' for Inactive)
REMARK    1  A    between atoms: CA_2  and  CB_3
REMARK    2  A    between atoms: CA_2  and  N_4
REMARK    3  A    between atoms: CA_2  and  C_27
REMARK    4  A    between atoms: C_5  and  CA_7
REMARK    5  A    between atoms: CA_7  and  N_9
REMARK    6  A    between atoms: CA_7  and  CB_22
REMARK    7  A    between atoms: C_10  and  C_12
REMARK    8  A    between atoms: C_15  and  C_17
REMARK    9  A    between atoms: C_17  and  O_19
REMARK   10  A    between atoms: O_19  and  C_20
REMARK   11  A    between atoms: C_20  and  C_21
REMARK   12  A    between atoms: CB_22  and  CG2_24
REMARK   13  A    between atoms: CB_22  and  CG1_25
REMARK   14  A    between atoms: CG1_25  and  CD1_26
REMARK   15  A    between atoms: C_27  and  O_28
REMARK                            x       y       z     vdW  Elec       q    Type
REMARK                         _______ _______ _______ _____ _____    ______ ____
ROOT
ATOM      1  CA  ILE A   1       8.051  -4.222  24.186  0.00  0.00    +0.162 C 
ENDROOT
BRANCH   1   4
ATOM      2  N   ILE A   1       5.931  -5.475  24.394  0.00  0.00    -0.301 N 
ATOM      3  H   ILE A   1       6.064  -5.334  25.398  0.00  0.00    +0.150 HD
ATOM      4  C   ILE A   1       7.054  -5.258  23.612  0.00  0.00    +0.234 C 
ATOM      5  O   ILE A   1       7.246  -5.887  22.576  0.00  0.00    -0.274 OA
BRANCH   2   6
ATOM      6  CA  ILE A   1       4.924  -6.463  23.959  0.00  0.00    +0.179 C 
ATOM      7  CB  ILE A   1       4.284  -7.180  25.138  0.00  0.00    +0.040 C 
BRANCH   6   8
ATOM      8  C   ILE A   1       3.871  -5.793  23.064  0.00  0.00    +0.325 C 
ATOM      9  OXT ILE A   1       3.811  -4.596  22.821  0.00  0.00    -0.249 OA
BRANCH   8  10
ATOM     10  O   ILE A   1       2.920  -6.668  22.647  0.00  0.00    -0.479 OA
ATOM     11  H   ILE A   1       3.228  -7.121  21.835  0.00  0.00    +0.295 HD
ENDBRANCH   8  10
ENDBRANCH   6   8
ENDBRANCH   2   6
ENDBRANCH   1   4
BRANCH   1  12
ATOM     12  N   ILE A   1       7.947  -2.975  23.438  0.00  0.00    -0.302 N 
ATOM     13  H   ILE A   1       7.043  -2.666  23.097  0.00  0.00    +0.150 HD
ATOM     14  C   UNK A   0       9.047  -2.301  22.980  0.00  0.00    +0.246 C 
ATOM     15  O   UNK A   0      10.200  -2.674  23.161  0.00  0.00    -0.273 OA
BRANCH  14  16
ATOM     16  C   UNK A   0       8.753  -1.096  22.179  0.00  0.00    +0.244 C 
ATOM     17  C   UNK A   0       8.790   0.270  22.821  0.00  0.00    +0.265 C 
ATOM     18  O   UNK A   0       7.545  -0.382  22.514  0.00  0.00    -0.347 OA
BRANCH  17  19
ATOM     19  C   UNK A   0       9.148   1.433  21.984  0.00  0.00    +0.339 C 
ATOM     20  O   UNK A   0      10.295   1.840  21.875  0.00  0.00    -0.248 OA
BRANCH  19  21
ATOM     21  O   UNK A   0       8.036   2.032  21.483  0.00  0.00    -0.463 OA
BRANCH  21  22
ATOM     22  C   UNK A   0       7.589   3.184  22.214  0.00  0.00    +0.229 C 
ATOM     23  C   UNK A   0       6.082   3.074  22.361  0.00  0.00    +0.048 C 
ENDBRANCH  21  22
ENDBRANCH  19  21
ENDBRANCH  17  19
ENDBRANCH  14  16
ENDBRANCH   1  12
BRANCH   1  24
ATOM     24  CB  ILE A   1       7.883  -3.990  25.711  0.00  0.00    +0.015 C 
ATOM     25  CG2 ILE A   1       9.137  -4.317  26.539  0.00  0.00    +0.010 C 
BRANCH  24  26
ATOM     26  CG1 ILE A   1       7.420  -2.554  26.046  0.00  0.00    +0.002 C 
ATOM     27  CD1 ILE A   1       8.519  -1.658  26.602  0.00  0.00    +0.004 C 
ENDBRANCH  24  26
ENDBRANCH   1  24
TORSDOF 11
ENDMDL
MODEL 6
REMARK VINA RESULT:      -5.7      6.586      8.589
REMARK  Name = 
REMARK  15 active torsions:
REMARK  status: ('A' for Active; 'I' for Inactive)
REMARK    1  A    between atoms: CA_2  and  CB_3
REMARK    2  A    between atoms: CA_2  and  N_4
REMARK    3  A    between atoms: CA_2  and  C_27
REMARK    4  A    between atoms: C_5  and  CA_7
REMARK    5  A    between atoms: CA_7  and  N_9
REMARK    6  A    between atoms: CA_7  and  CB_22
REMARK    7  A    between atoms: C_10  and  C_12
REMARK    8  A    between atoms: C_15  and  C_17
REMARK    9  A    between atoms: C_17  and  O_19
REMARK   10  A    between atoms: O_19  and  C_20
REMARK   11  A    between atoms: C_20  and  C_21
REMARK   12  A    between atoms: CB_22  and  CG2_24
REMARK   13  A    between atoms: CB_22  and  CG1_25
REMARK   14  A    between atoms: CG1_25  and  CD1_26
REMARK   15  A    between atoms: C_27  and  O_28
REMARK                            x       y       z     vdW  Elec       q    Type
REMARK                         _______ _______ _______ _____ _____    ______ ____
ROOT
ATOM      1  CA  ILE A   1       9.528   2.720  23.919  0.00  0.00    +0.162 C 
ENDROOT
BRANCH   1   4
ATOM      2  N   ILE A   1      11.412   4.260  23.492  0.00  0.00    -0.301 N 
ATOM      3  H   ILE A   1      11.972   3.542  23.957  0.00  0.00    +0.150 HD
ATOM      4  C   ILE A   1      10.043   4.161  23.682  0.00  0.00    +0.234 C 
ATOM      5  O   ILE A   1       9.325   5.154  23.709  0.00  0.00    -0.274 OA
BRANCH   2   6
ATOM      6  CA  ILE A   1      12.021   5.589  23.284  0.00  0.00    +0.179 C 
ATOM      7  CB  ILE A   1      12.208   6.341  24.592  0.00  0.00    +0.040 C 
BRANCH   6   8
ATOM      8  C   ILE A   1      13.343   5.456  22.514  0.00  0.00    +0.325 C 
ATOM      9  OXT ILE A   1      13.480   5.635  21.312  0.00  0.00    -0.249 OA
BRANCH   8  10
ATOM     10  O   ILE A   1      14.352   5.001  23.300  0.00  0.00    -0.479 OA
ATOM     11  H   ILE A   1      13.976   4.559  24.090  0.00  0.00    +0.295 HD
ENDBRANCH   8  10
ENDBRANCH   6   8
ENDBRANCH   2   6
ENDBRANCH   1   4
BRANCH   1  12
ATOM     12  N   ILE A   1       8.132   2.626  23.509  0.00  0.00    -0.302 N 
ATOM     13  H   ILE A   1       7.789   3.206  22.749  0.00  0.00    +0.150 HD
ATOM     14  C   UNK A   0       7.196   1.946  24.241  0.00  0.00    +0.246 C 
ATOM     15  O   UNK A   0       7.444   1.359  25.287  0.00  0.00    -0.273 OA
BRANCH  14  16
ATOM     16  C   UNK A   0       5.818   2.016  23.715  0.00  0.00    +0.244 C 
ATOM     17  C   UNK A   0       4.856   3.053  24.244  0.00  0.00    +0.265 C 
ATOM     18  O   UNK A   0       4.762   1.672  24.635  0.00  0.00    -0.347 OA
BRANCH  17  19
ATOM     19  C   UNK A   0       3.797   3.555  23.345  0.00  0.00    +0.339 C 
ATOM     20  O   UNK A   0       3.909   4.592  22.709  0.00  0.00    -0.248 OA
BRANCH  19  21
ATOM     21  O   UNK A   0       2.678   2.789  23.435  0.00  0.00    -0.463 OA
BRANCH  21  22
ATOM     22  C   UNK A   0       1.445   3.490  23.213  0.00  0.00    +0.229 C 
ATOM     23  C   UNK A   0       0.752   3.631  24.556  0.00  0.00    +0.048 C 
ENDBRANCH  21  22
ENDBRANCH  19  21
ENDBRANCH  17  19
ENDBRANCH  14  16
ENDBRANCH   1  12
BRANCH   1  24
ATOM     24  CB  ILE A   1      10.400   1.637  23.233  0.00  0.00    +0.015 C 
ATOM     25  CG2 ILE A   1      10.641   0.386  24.095  0.00  0.00    +0.010 C 
BRANCH  24  26
ATOM     26  CG1 ILE A   1       9.837   1.200  21.862  0.00  0.00    +0.002 C 
ATOM     27  CD1 ILE A   1       9.734  -0.308  21.680  0.00  0.00    +0.004 C 
ENDBRANCH  24  26
ENDBRANCH   1  24
TORSDOF 11
ENDMDL
MODEL 7
REMARK VINA RESULT:      -5.6      5.272      8.659
REMARK  Name = 
REMARK  15 active torsions:
REMARK  status: ('A' for Active; 'I' for Inactive)
REMARK    1  A    between atoms: CA_2  and  CB_3
REMARK    2  A    between atoms: CA_2  and  N_4
REMARK    3  A    between atoms: CA_2  and  C_27
REMARK    4  A    between atoms: C_5  and  CA_7
REMARK    5  A    between atoms: CA_7  and  N_9
REMARK    6  A    between atoms: CA_7  and  CB_22
REMARK    7  A    between atoms: C_10  and  C_12
REMARK    8  A    between atoms: C_15  and  C_17
REMARK    9  A    between atoms: C_17  and  O_19
REMARK   10  A    between atoms: O_19  and  C_20
REMARK   11  A    between atoms: C_20  and  C_21
REMARK   12  A    between atoms: CB_22  and  CG2_24
REMARK   13  A    between atoms: CB_22  and  CG1_25
REMARK   14  A    between atoms: CG1_25  and  CD1_26
REMARK   15  A    between atoms: C_27  and  O_28
REMARK                            x       y       z     vdW  Elec       q    Type
REMARK                         _______ _______ _______ _____ _____    ______ ____
ROOT
ATOM      1  CA  ILE A   1       8.266   4.598  23.274  0.00  0.00    +0.162 C 
ENDROOT
BRANCH   1   4
ATOM      2  N   ILE A   1      10.686   5.093  23.361  0.00  0.00    -0.301 N 
ATOM      3  H   ILE A   1      10.755   4.172  23.800  0.00  0.00    +0.150 HD
ATOM      4  C   ILE A   1       9.412   5.638  23.324  0.00  0.00    +0.234 C 
ATOM      5  O   ILE A   1       9.231   6.850  23.380  0.00  0.00    -0.274 OA
BRANCH   2   6
ATOM      6  CA  ILE A   1      11.856   5.990  23.438  0.00  0.00    +0.179 C 
ATOM      7  CB  ILE A   1      12.276   6.256  24.875  0.00  0.00    +0.040 C 
BRANCH   6   8
ATOM      8  C   ILE A   1      13.017   5.425  22.604  0.00  0.00    +0.325 C 
ATOM      9  OXT ILE A   1      12.990   5.235  21.397  0.00  0.00    -0.249 OA
BRANCH   8  10
ATOM     10  O   ILE A   1      14.066   5.044  23.377  0.00  0.00    -0.479 OA
ATOM     11  H   ILE A   1      14.754   4.633  22.814  0.00  0.00    +0.295 HD
ENDBRANCH   8  10
ENDBRANCH   6   8
ENDBRANCH   2   6
ENDBRANCH   1   4
BRANCH   1  12
ATOM     12  N   ILE A   1       8.813   3.281  22.971  0.00  0.00    -0.302 N 
ATOM     13  H   ILE A   1       9.796   3.092  23.142  0.00  0.00    +0.150 HD
ATOM     14  C   UNK A   0       8.114   2.342  22.261  0.00  0.00    +0.246 C 
ATOM     15  O   UNK A   0       6.981   2.518  21.830  0.00  0.00    -0.273 OA
BRANCH  14  16
ATOM     16  C   UNK A   0       8.849   1.091  21.985  0.00  0.00    +0.244 C 
ATOM     17  C   UNK A   0       9.857   0.568  22.980  0.00  0.00    +0.265 C 
ATOM     18  O   UNK A   0      10.269   1.218  21.764  0.00  0.00    -0.347 OA
BRANCH  17  19
ATOM     19  C   UNK A   0      10.082  -0.890  23.055  0.00  0.00    +0.339 C 
ATOM     20  O   UNK A   0      10.596  -1.525  22.146  0.00  0.00    -0.248 OA
BRANCH  19  21
ATOM     21  O   UNK A   0       9.533  -1.410  24.184  0.00  0.00    -0.463 OA
BRANCH  21  22
ATOM     22  C   UNK A   0       9.493  -0.513  25.305  0.00  0.00    +0.229 C 
ATOM     23  C   UNK A   0       8.634  -1.161  26.376  0.00  0.00    +0.048 C 
ENDBRANCH  21  22
ENDBRANCH  19  21
ENDBRANCH  17  19
ENDBRANCH  14  16
ENDBRANCH   1  12
BRANCH   1  24
ATOM     24  CB  ILE A   1       7.402   4.576  24.562  0.00  0.00    +0.015 C 
ATOM     25  CG2 ILE A   1       8.179   4.910  25.846  0.00  0.00    +0.010 C 
BRANCH  24  26
ATOM     26  CG1 ILE A   1       6.169   5.503  24.466  0.00  0.00    +0.002 C 
ATOM     27  CD1 ILE A   1       5.545   5.570  23.078  0.00  0.00    +0.004 C 
ENDBRANCH  24  26
ENDBRANCH   1  24
TORSDOF 11
ENDMDL
MODEL 8
REMARK VINA RESULT:      -5.6      3.837      6.778
REMARK  Name = 
REMARK  15 active torsions:
REMARK  status: ('A' for Active; 'I' for Inactive)
REMARK    1  A    between atoms: CA_2  and  CB_3
REMARK    2  A    between atoms: CA_2  and  N_4
REMARK    3  A    between atoms: CA_2  and  C_27
REMARK    4  A    between atoms: C_5  and  CA_7
REMARK    5  A    between atoms: CA_7  and  N_9
REMARK    6  A    between atoms: CA_7  and  CB_22
REMARK    7  A    between atoms: C_10  and  C_12
REMARK    8  A    between atoms: C_15  and  C_17
REMARK    9  A    between atoms: C_17  and  O_19
REMARK   10  A    between atoms: O_19  and  C_20
REMARK   11  A    between atoms: C_20  and  C_21
REMARK   12  A    between atoms: CB_22  and  CG2_24
REMARK   13  A    between atoms: CB_22  and  CG1_25
REMARK   14  A    between atoms: CG1_25  and  CD1_26
REMARK   15  A    between atoms: C_27  and  O_28
REMARK                            x       y       z     vdW  Elec       q    Type
REMARK                         _______ _______ _______ _____ _____    ______ ____
ROOT
ATOM      1  CA  ILE A   1       8.174   1.506  23.791  0.00  0.00    +0.162 C 
ENDROOT
BRANCH   1   4
ATOM      2  N   ILE A   1       7.168   3.722  23.359  0.00  0.00    -0.301 N 
ATOM      3  H   ILE A   1       6.894   3.676  24.344  0.00  0.00    +0.150 HD
ATOM      4  C   ILE A   1       7.552   2.516  22.795  0.00  0.00    +0.234 C 
ATOM      5  O   ILE A   1       7.358   2.271  21.609  0.00  0.00    -0.274 OA
BRANCH   2   6
ATOM      6  CA  ILE A   1       6.537   4.752  22.510  0.00  0.00    +0.179 C 
ATOM      7  CB  ILE A   1       5.244   5.276  23.116  0.00  0.00    +0.040 C 
BRANCH   6   8
ATOM      8  C   ILE A   1       7.529   5.888  22.223  0.00  0.00    +0.325 C 
ATOM      9  OXT ILE A   1       8.527   6.136  22.885  0.00  0.00    -0.249 OA
BRANCH   8  10
ATOM     10  O   ILE A   1       7.121   6.681  21.200  0.00  0.00    -0.479 OA
ATOM     11  H   ILE A   1       6.908   6.126  20.421  0.00  0.00    +0.295 HD
ENDBRANCH   8  10
ENDBRANCH   6   8
ENDBRANCH   2   6
ENDBRANCH   1   4
BRANCH   1  12
ATOM     12  N   ILE A   1       8.045   0.154  23.262  0.00  0.00    -0.302 N 
ATOM     13  H   ILE A   1       8.637  -0.146  22.495  0.00  0.00    +0.150 HD
ATOM     14  C   UNK A   0       7.008  -0.673  23.606  0.00  0.00    +0.246 C 
ATOM     15  O   UNK A   0       6.115  -0.358  24.382  0.00  0.00    -0.273 OA
BRANCH  14  16
ATOM     16  C   UNK A   0       6.996  -1.980  22.919  0.00  0.00    +0.244 C 
ATOM     17  C   UNK A   0       7.978  -3.055  23.319  0.00  0.00    +0.265 C 
ATOM     18  O   UNK A   0       8.151  -2.291  22.113  0.00  0.00    -0.347 OA
BRANCH  17  19
ATOM     19  C   UNK A   0       7.582  -4.468  23.151  0.00  0.00    +0.339 C 
ATOM     20  O   UNK A   0       7.345  -4.962  22.058  0.00  0.00    -0.248 OA
BRANCH  19  21
ATOM     21  O   UNK A   0       7.402  -5.070  24.356  0.00  0.00    -0.463 OA
BRANCH  21  22
ATOM     22  C   UNK A   0       8.590  -5.197  25.152  0.00  0.00    +0.229 C 
ATOM     23  C   UNK A   0       8.189  -5.007  26.604  0.00  0.00    +0.048 C 
ENDBRANCH  21  22
ENDBRANCH  19  21
ENDBRANCH  17  19
ENDBRANCH  14  16
ENDBRANCH   1  12
BRANCH   1  24
ATOM     24  CB  ILE A   1       9.643   1.838  24.162  0.00  0.00    +0.015 C 
ATOM     25  CG2 ILE A   1      10.440   0.639  24.704  0.00  0.00    +0.010 C 
BRANCH  24  26
ATOM     26  CG1 ILE A   1      10.425   2.470  22.988  0.00  0.00    +0.002 C 
ATOM     27  CD1 ILE A   1      11.207   3.723  23.363  0.00  0.00    +0.004 C 
ENDBRANCH  24  26
ENDBRANCH   1  24
TORSDOF 11
ENDMDL
MODEL 9
REMARK VINA RESULT:      -5.4      1.655      1.947
REMARK  Name = 
REMARK  15 active torsions:
REMARK  status: ('A' for Active; 'I' for Inactive)
REMARK    1  A    between atoms: CA_2  and  CB_3
REMARK    2  A    between atoms: CA_2  and  N_4
REMARK    3  A    between atoms: CA_2  and  C_27
REMARK    4  A    between atoms: C_5  and  CA_7
REMARK    5  A    between atoms: CA_7  and  N_9
REMARK    6  A    between atoms: CA_7  and  CB_22
REMARK    7  A    between atoms: C_10  and  C_12
REMARK    8  A    between atoms: C_15  and  C_17
REMARK    9  A    between atoms: C_17  and  O_19
REMARK   10  A    between atoms: O_19  and  C_20
REMARK   11  A    between atoms: C_20  and  C_21
REMARK   12  A    between atoms: CB_22  and  CG2_24
REMARK   13  A    between atoms: CB_22  and  CG1_25
REMARK   14  A    between atoms: CG1_25  and  CD1_26
REMARK   15  A    between atoms: C_27  and  O_28
REMARK                            x       y       z     vdW  Elec       q    Type
REMARK                         _______ _______ _______ _____ _____    ______ ____
ROOT
ATOM      1  CA  ILE A   1       8.285  -3.128  24.206  0.00  0.00    +0.162 C 
ENDROOT
BRANCH   1   4
ATOM      2  N   ILE A   1       9.395  -1.049  23.462  0.00  0.00    -0.301 N 
ATOM      3  H   ILE A   1      10.221  -1.645  23.366  0.00  0.00    +0.150 HD
ATOM      4  C   ILE A   1       8.365  -1.581  24.221  0.00  0.00    +0.234 C 
ATOM      5  O   ILE A   1       7.621  -0.867  24.884  0.00  0.00    -0.274 OA
BRANCH   2   6
ATOM      6  CA  ILE A   1       9.586   0.415  23.423  0.00  0.00    +0.179 C 
ATOM      7  CB  ILE A   1      10.833   0.847  24.179  0.00  0.00    +0.040 C 
BRANCH   6   8
ATOM      8  C   ILE A   1       9.604   0.912  21.970  0.00  0.00    +0.325 C 
ATOM      9  OXT ILE A   1       9.226   0.270  21.001  0.00  0.00    -0.249 OA
BRANCH   8  10
ATOM     10  O   ILE A   1      10.199   2.127  21.851  0.00  0.00    -0.479 OA
ATOM     11  H   ILE A   1       9.651   2.804  22.301  0.00  0.00    +0.295 HD
ENDBRANCH   8  10
ENDBRANCH   6   8
ENDBRANCH   2   6
ENDBRANCH   1   4
BRANCH   1  12
ATOM     12  N   ILE A   1       7.420  -3.584  25.288  0.00  0.00    -0.302 N 
ATOM     13  H   ILE A   1       6.496  -3.179  25.399  0.00  0.00    +0.150 HD
ATOM     14  C   UNK A   0       7.874  -4.384  26.302  0.00  0.00    +0.246 C 
ATOM     15  O   UNK A   0       9.027  -4.788  26.387  0.00  0.00    -0.273 OA
BRANCH  14  16
ATOM     16  C   UNK A   0       6.880  -4.689  27.351  0.00  0.00    +0.244 C 
ATOM     17  C   UNK A   0       5.943  -5.862  27.189  0.00  0.00    +0.265 C 
ATOM     18  O   UNK A   0       5.494  -4.510  26.992  0.00  0.00    -0.347 OA
BRANCH  17  19
ATOM     19  C   UNK A   0       5.455  -6.546  28.404  0.00  0.00    +0.339 C 
ATOM     20  O   UNK A   0       6.070  -7.455  28.941  0.00  0.00    -0.248 OA
BRANCH  19  21
ATOM     21  O   UNK A   0       4.210  -6.116  28.738  0.00  0.00    -0.463 OA
BRANCH  21  22
ATOM     22  C   UNK A   0       3.384  -7.097  29.384  0.00  0.00    +0.229 C 
ATOM     23  C   UNK A   0       2.039  -7.095  28.681  0.00  0.00    +0.048 C 
ENDBRANCH  21  22
ENDBRANCH  19  21
ENDBRANCH  17  19
ENDBRANCH  14  16
ENDBRANCH   1  12
BRANCH   1  24
ATOM     24  CB  ILE A   1       7.841  -3.705  22.836  0.00  0.00    +0.015 C 
ATOM     25  CG2 ILE A   1       7.468  -5.196  22.875  0.00  0.00    +0.010 C 
BRANCH  24  26
ATOM     26  CG1 ILE A   1       6.674  -2.912  22.207  0.00  0.00    +0.002 C 
ATOM     27  CD1 ILE A   1       5.299  -3.514  22.464  0.00  0.00    +0.004 C 
ENDBRANCH  24  26
ENDBRANCH   1  24
TORSDOF 11
ENDMDL
