MODEL 1
REMARK VINA RESULT:      -4.7      0.000      0.000
REMARK  Name = 
REMARK  7 active torsions:
REMARK  status: ('A' for Active; 'I' for Inactive)
REMARK    1  A    between atoms: O_1  and  C_2
REMARK    2  A    between atoms: C_6  and  C_8
REMARK    3  A    between atoms: C_8  and  O_9
REMARK    4  A    between atoms: O_9  and  P_10
REMARK    5  A    between atoms: P_10  and  O_11
REMARK    6  A    between atoms: P_10  and  O_12
REMARK    7  A    between atoms: C_14  and  O_16
REMARK                            x       y       z     vdW  Elec       q    Type
REMARK                         _______ _______ _______ _____ _____    ______ ____
ROOT
ATOM      1  C   UNL     1       9.244  -1.810  22.135  0.00  0.00    +0.171 C 
ATOM      2  C   UNL     1      10.105  -1.909  23.388  0.00  0.00    +0.176 C 
ATOM      3  C   UNL     1       9.400  -0.991  24.396  0.00  0.00    +0.175 C 
ATOM      4  O   UNL     1       8.153  -0.571  23.787  0.00  0.00    -0.369 OA
ATOM      5  C   UNL     1       7.878  -1.461  22.697  0.00  0.00    +0.194 C 
ENDROOT
BRANCH   1   6
ATOM      6  O   UNL     1       9.722  -0.748  21.303  0.00  0.00    -0.387 OA
ATOM      7  H   UNL     1       9.475  -0.952  20.383  0.00  0.00    +0.210 HD
ENDBRANCH   1   6
BRANCH   2   8
ATOM      8  O   UNL     1      10.142  -3.255  23.875  0.00  0.00    -0.387 OA
ATOM      9  H   UNL     1       9.709  -3.289  24.746  0.00  0.00    +0.210 HD
ENDBRANCH   2   8
BRANCH   3  10
ATOM     10  C   UNL     1      10.219   0.248  24.762  0.00  0.00    +0.206 C 
BRANCH  10  11
ATOM     11  O   UNL     1      10.653   0.872  23.557  0.00  0.00    -0.284 OA
BRANCH  11  12
ATOM     12  P   UNL     1      10.317   2.566  23.456  0.00  0.00    +0.472 P 
ATOM     13  O   UNL     1      10.016   4.082  23.365  0.00  0.00    -0.228 OA
BRANCH  12  14
ATOM     14  O   UNL     1       8.745   2.213  23.704  0.00  0.00    -0.303 OA
ATOM     15  H   UNL     1       8.607   1.346  23.272  0.00  0.00    +0.222 HD
ENDBRANCH  12  14
BRANCH  12  16
ATOM     16  O   UNL     1      10.260   2.323  21.840  0.00  0.00    -0.303 OA
ATOM     17  H   UNL     1       9.661   1.571  21.682  0.00  0.00    +0.222 HD
ENDBRANCH  12  16
ENDBRANCH  11  12
ENDBRANCH  10  11
ENDBRANCH   3  10
TORSDOF 7
ENDMDL
MODEL 2
REMARK VINA RESULT:      -4.6      5.362      7.080
REMARK  Name = 
REMARK  7 active torsions:
REMARK  status: ('A' for Active; 'I' for Inactive)
REMARK    1  A    between atoms: O_1  and  C_2
REMARK    2  A    between atoms: C_6  and  C_8
REMARK    3  A    between atoms: C_8  and  O_9
REMARK    4  A    between atoms: O_9  and  P_10
REMARK    5  A    between atoms: P_10  and  O_11
REMARK    6  A    between atoms: P_10  and  O_12
REMARK    7  A    between atoms: C_14  and  O_16
REMARK                            x       y       z     vdW  Elec       q    Type
REMARK                         _______ _______ _______ _____ _____    ______ ____
ROOT
ATOM      1  C   UNL     1       8.139  -5.269  26.231  0.00  0.00    +0.171 C 
ATOM      2  C   UNL     1       8.845  -5.339  24.882  0.00  0.00    +0.176 C 
ATOM      3  C   UNL     1       8.335  -4.099  24.133  0.00  0.00    +0.175 C 
ATOM      4  O   UNL     1       7.553  -3.326  25.076  0.00  0.00    -0.369 OA
ATOM      5  C   UNL     1       7.881  -3.783  26.395  0.00  0.00    +0.194 C 
ENDROOT
BRANCH   1   6
ATOM      6  O   UNL     1       6.899  -5.981  26.164  0.00  0.00    -0.387 OA
ATOM      7  H   UNL     1       6.326  -5.656  26.882  0.00  0.00    +0.210 HD
ENDBRANCH   1   6
BRANCH   2   8
ATOM      8  O   UNL     1      10.266  -5.276  25.048  0.00  0.00    -0.387 OA
ATOM      9  H   UNL     1      10.537  -5.929  25.716  0.00  0.00    +0.210 HD
ENDBRANCH   2   8
BRANCH   3  10
ATOM     10  C   UNL     1       7.465  -4.440  22.922  0.00  0.00    +0.206 C 
BRANCH  10  11
ATOM     11  O   UNL     1       6.792  -5.669  23.185  0.00  0.00    -0.284 OA
BRANCH  11  12
ATOM     12  P   UNL     1       5.077  -5.617  22.964  0.00  0.00    +0.472 P 
ATOM     13  O   UNL     1       3.541  -5.571  22.766  0.00  0.00    -0.228 OA
BRANCH  12  14
ATOM     14  O   UNL     1       4.983  -4.726  24.327  0.00  0.00    -0.303 OA
ATOM     15  H   UNL     1       5.025  -3.797  24.026  0.00  0.00    +0.222 HD
ENDBRANCH  12  14
BRANCH  12  16
ATOM     16  O   UNL     1       5.068  -7.057  23.738  0.00  0.00    -0.303 OA
ATOM     17  H   UNL     1       5.619  -7.668  23.217  0.00  0.00    +0.222 HD
ENDBRANCH  12  16
ENDBRANCH  11  12
ENDBRANCH  10  11
ENDBRANCH   3  10
TORSDOF 7
ENDMDL
MODEL 3
REMARK VINA RESULT:      -4.5      3.324      5.470
REMARK  Name = 
REMARK  7 active torsions:
REMARK  status: ('A' for Active; 'I' for Inactive)
REMARK    1  A    between atoms: O_1  and  C_2
REMARK    2  A    between atoms: C_6  and  C_8
REMARK    3  A    between atoms: C_8  and  O_9
REMARK    4  A    between atoms: O_9  and  P_10
REMARK    5  A    between atoms: P_10  and  O_11
REMARK    6  A    between atoms: P_10  and  O_12
REMARK    7  A    between atoms: C_14  and  O_16
REMARK                            x       y       z     vdW  Elec       q    Type
REMARK                         _______ _______ _______ _____ _____    ______ ____
ROOT
ATOM      1  C   UNL     1       9.382  -0.749  23.636  0.00  0.00    +0.171 C 
ATOM      2  C   UNL     1       9.590  -1.949  22.718  0.00  0.00    +0.176 C 
ATOM      3  C   UNL     1       8.166  -2.450  22.437  0.00  0.00    +0.175 C 
ATOM      4  O   UNL     1       7.254  -1.483  23.015  0.00  0.00    -0.369 OA
ATOM      5  C   UNL     1       7.991  -0.277  23.256  0.00  0.00    +0.194 C 
ENDROOT
BRANCH   1   6
ATOM      6  O   UNL     1       9.404  -1.177  25.001  0.00  0.00    -0.387 OA
ATOM      7  H   UNL     1       9.954  -0.548  25.504  0.00  0.00    +0.210 HD
ENDBRANCH   1   6
BRANCH   2   8
ATOM      8  O   UNL     1      10.232  -1.553  21.501  0.00  0.00    -0.387 OA
ATOM      9  H   UNL     1      11.147  -1.288  21.697  0.00  0.00    +0.210 HD
ENDBRANCH   2   8
BRANCH   3  10
ATOM     10  C   UNL     1       7.882  -3.828  23.037  0.00  0.00    +0.206 C 
BRANCH  10  11
ATOM     11  O   UNL     1       8.919  -4.137  23.965  0.00  0.00    -0.284 OA
BRANCH  11  12
ATOM     12  P   UNL     1       8.405  -5.027  25.356  0.00  0.00    +0.472 P 
ATOM     13  O   UNL     1       7.945  -5.824  26.602  0.00  0.00    -0.228 OA
BRANCH  12  14
ATOM     14  O   UNL     1       8.931  -3.787  26.276  0.00  0.00    -0.303 OA
ATOM     15  H   UNL     1       9.231  -3.108  25.639  0.00  0.00    +0.222 HD
ENDBRANCH  12  14
BRANCH  12  16
ATOM     16  O   UNL     1       9.863  -5.759  25.262  0.00  0.00    -0.303 OA
ATOM     17  H   UNL     1       9.711  -6.718  25.341  0.00  0.00    +0.222 HD
ENDBRANCH  12  16
ENDBRANCH  11  12
ENDBRANCH  10  11
ENDBRANCH   3  10
TORSDOF 7
ENDMDL
MODEL 4
REMARK VINA RESULT:      -4.5      2.453      4.571
REMARK  Name = 
REMARK  7 active torsions:
REMARK  status: ('A' for Active; 'I' for Inactive)
REMARK    1  A    between atoms: O_1  and  C_2
REMARK    2  A    between atoms: C_6  and  C_8
REMARK    3  A    between atoms: C_8  and  O_9
REMARK    4  A    between atoms: O_9  and  P_10
REMARK    5  A    between atoms: P_10  and  O_11
REMARK    6  A    between atoms: P_10  and  O_12
REMARK    7  A    between atoms: C_14  and  O_16
REMARK                            x       y       z     vdW  Elec       q    Type
REMARK                         _______ _______ _______ _____ _____    ______ ____
ROOT
ATOM      1  C   UNL     1       9.338   2.740  24.257  0.00  0.00    +0.171 C 
ATOM      2  C   UNL     1      10.318   2.381  23.147  0.00  0.00    +0.176 C 
ATOM      3  C   UNL     1       9.422   1.854  22.017  0.00  0.00    +0.175 C 
ATOM      4  O   UNL     1       8.049   2.081  22.424  0.00  0.00    -0.369 OA
ATOM      5  C   UNL     1       8.063   3.040  23.491  0.00  0.00    +0.194 C 
ENDROOT
BRANCH   1   6
ATOM      6  O   UNL     1       9.145   1.611  25.115  0.00  0.00    -0.387 OA
ATOM      7  H   UNL     1      10.016   1.203  25.274  0.00  0.00    +0.210 HD
ENDBRANCH   1   6
BRANCH   2   8
ATOM      8  O   UNL     1      11.043   3.538  22.713  0.00  0.00    -0.387 OA
ATOM      9  H   UNL     1      11.050   3.562  21.741  0.00  0.00    +0.210 HD
ENDBRANCH   2   8
BRANCH   3  10
ATOM     10  C   UNL     1       9.619   0.363  21.735  0.00  0.00    +0.206 C 
BRANCH  10  11
ATOM     11  O   UNL     1       8.778  -0.376  22.617  0.00  0.00    -0.284 OA
BRANCH  11  12
ATOM     12  P   UNL     1       9.491  -1.813  23.264  0.00  0.00    +0.472 P 
ATOM     13  O   UNL     1      10.129  -3.100  23.843  0.00  0.00    -0.228 OA
BRANCH  12  14
ATOM     14  O   UNL     1      10.319  -0.869  24.303  0.00  0.00    -0.303 OA
ATOM     15  H   UNL     1      10.340  -1.372  25.142  0.00  0.00    +0.222 HD
ENDBRANCH  12  14
BRANCH  12  16
ATOM     16  O   UNL     1      10.572  -1.664  22.048  0.00  0.00    -0.303 OA
ATOM     17  H   UNL     1      11.450  -1.548  22.454  0.00  0.00    +0.222 HD
ENDBRANCH  12  16
ENDBRANCH  11  12
ENDBRANCH  10  11
ENDBRANCH   3  10
TORSDOF 7
ENDMDL
MODEL 5
REMARK VINA RESULT:      -4.5      1.402      2.573
REMARK  Name = 
REMARK  7 active torsions:
REMARK  status: ('A' for Active; 'I' for Inactive)
REMARK    1  A    between atoms: O_1  and  C_2
REMARK    2  A    between atoms: C_6  and  C_8
REMARK    3  A    between atoms: C_8  and  O_9
REMARK    4  A    between atoms: O_9  and  P_10
REMARK    5  A    between atoms: P_10  and  O_11
REMARK    6  A    between atoms: P_10  and  O_12
REMARK    7  A    between atoms: C_14  and  O_16
REMARK                            x       y       z     vdW  Elec       q    Type
REMARK                         _______ _______ _______ _____ _____    ______ ____
ROOT
ATOM      1  C   UNL     1       8.668  -2.105  24.070  0.00  0.00    +0.171 C 
ATOM      2  C   UNL     1       8.065  -1.737  22.720  0.00  0.00    +0.176 C 
ATOM      3  C   UNL     1       9.286  -1.429  21.841  0.00  0.00    +0.175 C 
ATOM      4  O   UNL     1      10.462  -1.781  22.611  0.00  0.00    -0.369 OA
ATOM      5  C   UNL     1      10.042  -2.626  23.690  0.00  0.00    +0.194 C 
ENDROOT
BRANCH   1   6
ATOM      6  O   UNL     1       8.792  -0.932  24.880  0.00  0.00    -0.387 OA
ATOM      7  H   UNL     1       8.911  -0.168  24.287  0.00  0.00    +0.210 HD
ENDBRANCH   1   6
BRANCH   2   8
ATOM      8  O   UNL     1       7.321  -2.834  22.179  0.00  0.00    -0.387 OA
ATOM      9  H   UNL     1       7.581  -2.968  21.252  0.00  0.00    +0.210 HD
ENDBRANCH   2   8
BRANCH   3  10
ATOM     10  C   UNL     1       9.378   0.041  21.429  0.00  0.00    +0.206 C 
BRANCH  10  11
ATOM     11  O   UNL     1       8.680   0.823  22.394  0.00  0.00    -0.284 OA
BRANCH  11  12
ATOM     12  P   UNL     1       9.559   2.186  22.996  0.00  0.00    +0.472 P 
ATOM     13  O   UNL     1      10.346   3.405  23.536  0.00  0.00    -0.228 OA
BRANCH  12  14
ATOM     14  O   UNL     1      10.327   2.256  21.560  0.00  0.00    -0.303 OA
ATOM     15  H   UNL     1      10.100   3.133  21.192  0.00  0.00    +0.222 HD
ENDBRANCH  12  14
BRANCH  12  16
ATOM     16  O   UNL     1      10.573   1.078  23.642  0.00  0.00    -0.303 OA
ATOM     17  H   UNL     1      11.123   0.731  22.917  0.00  0.00    +0.222 HD
ENDBRANCH  12  16
ENDBRANCH  11  12
ENDBRANCH  10  11
ENDBRANCH   3  10
TORSDOF 7
ENDMDL
MODEL 6
REMARK VINA RESULT:      -4.5      2.267      4.494
REMARK  Name = 
REMARK  7 active torsions:
REMARK  status: ('A' for Active; 'I' for Inactive)
REMARK    1  A    between atoms: O_1  and  C_2
REMARK    2  A    between atoms: C_6  and  C_8
REMARK    3  A    between atoms: C_8  and  O_9
REMARK    4  A    between atoms: O_9  and  P_10
REMARK    5  A    between atoms: P_10  and  O_11
REMARK    6  A    between atoms: P_10  and  O_12
REMARK    7  A    between atoms: C_14  and  O_16
REMARK                            x       y       z     vdW  Elec       q    Type
REMARK                         _______ _______ _______ _____ _____    ______ ____
ROOT
ATOM      1  C   UNL     1      10.297   1.453  23.874  0.00  0.00    +0.171 C 
ATOM      2  C   UNL     1      10.131   1.092  22.403  0.00  0.00    +0.176 C 
ATOM      3  C   UNL     1       8.763   0.399  22.344  0.00  0.00    +0.175 C 
ATOM      4  O   UNL     1       8.160   0.538  23.654  0.00  0.00    -0.369 OA
ATOM      5  C   UNL     1       8.862   1.577  24.350  0.00  0.00    +0.194 C 
ENDROOT
BRANCH   1   6
ATOM      6  O   UNL     1      10.956   0.384  24.562  0.00  0.00    -0.387 OA
ATOM      7  H   UNL     1      11.004   0.620  25.507  0.00  0.00    +0.210 HD
ENDBRANCH   1   6
BRANCH   2   8
ATOM      8  O   UNL     1      10.133   2.270  21.587  0.00  0.00    -0.387 OA
ATOM      9  H   UNL     1      10.978   2.322  21.108  0.00  0.00    +0.210 HD
ENDBRANCH   2   8
BRANCH   3  10
ATOM     10  C   UNL     1       8.853  -1.086  21.989  0.00  0.00    +0.206 C 
BRANCH  10  11
ATOM     11  O   UNL     1       8.137  -1.827  22.973  0.00  0.00    -0.284 OA
BRANCH  11  12
ATOM     12  P   UNL     1       9.082  -2.993  23.833  0.00  0.00    +0.472 P 
ATOM     13  O   UNL     1       9.929  -4.036  24.603  0.00  0.00    -0.228 OA
BRANCH  12  14
ATOM     14  O   UNL     1       9.206  -1.914  25.050  0.00  0.00    -0.303 OA
ATOM     15  H   UNL     1      10.056  -2.120  25.487  0.00  0.00    +0.222 HD
ENDBRANCH  12  14
BRANCH  12  16
ATOM     16  O   UNL     1      10.347  -2.394  22.988  0.00  0.00    -0.303 OA
ATOM     17  H   UNL     1      10.557  -3.038  22.287  0.00  0.00    +0.222 HD
ENDBRANCH  12  16
ENDBRANCH  11  12
ENDBRANCH  10  11
ENDBRANCH   3  10
TORSDOF 7
ENDMDL
MODEL 7
REMARK VINA RESULT:      -4.3      2.919      5.470
REMARK  Name = 
REMARK  7 active torsions:
REMARK  status: ('A' for Active; 'I' for Inactive)
REMARK    1  A    between atoms: O_1  and  C_2
REMARK    2  A    between atoms: C_6  and  C_8
REMARK    3  A    between atoms: C_8  and  O_9
REMARK    4  A    between atoms: O_9  and  P_10
REMARK    5  A    between atoms: P_10  and  O_11
REMARK    6  A    between atoms: P_10  and  O_12
REMARK    7  A    between atoms: C_14  and  O_16
REMARK                            x       y       z     vdW  Elec       q    Type
REMARK                         _______ _______ _______ _____ _____    ______ ____
ROOT
ATOM      1  C   UNL     1       8.734   0.811  23.947  0.00  0.00    +0.171 C 
ATOM      2  C   UNL     1       9.004  -0.363  24.881  0.00  0.00    +0.176 C 
ATOM      3  C   UNL     1       9.924  -1.281  24.064  0.00  0.00    +0.175 C 
ATOM      4  O   UNL     1      10.267  -0.568  22.851  0.00  0.00    -0.369 OA
ATOM      5  C   UNL     1       9.963   0.818  23.058  0.00  0.00    +0.194 C 
ENDROOT
BRANCH   1   6
ATOM      6  O   UNL     1       7.562   0.549  23.168  0.00  0.00    -0.387 OA
ATOM      7  H   UNL     1       7.559   1.165  22.413  0.00  0.00    +0.210 HD
ENDBRANCH   1   6
BRANCH   2   8
ATOM      8  O   UNL     1       9.664   0.077  26.073  0.00  0.00    -0.387 OA
ATOM      9  H   UNL     1       9.198  -0.286  26.846  0.00  0.00    +0.210 HD
ENDBRANCH   2   8
BRANCH   3  10
ATOM     10  C   UNL     1       9.271  -2.614  23.694  0.00  0.00    +0.206 C 
BRANCH  10  11
ATOM     11  O   UNL     1       9.998  -3.662  24.330  0.00  0.00    -0.284 OA
BRANCH  11  12
ATOM     12  P   UNL     1       9.035  -4.738  25.283  0.00  0.00    +0.472 P 
ATOM     13  O   UNL     1       8.172  -5.700  26.136  0.00  0.00    -0.228 OA
BRANCH  12  14
ATOM     14  O   UNL     1      10.360  -5.668  25.475  0.00  0.00    -0.303 OA
ATOM     15  H   UNL     1      10.640  -5.523  26.401  0.00  0.00    +0.222 HD
ENDBRANCH  12  14
BRANCH  12  16
ATOM     16  O   UNL     1       8.603  -5.404  23.854  0.00  0.00    -0.303 OA
ATOM     17  H   UNL     1       9.023  -6.282  23.805  0.00  0.00    +0.222 HD
ENDBRANCH  12  16
ENDBRANCH  11  12
ENDBRANCH  10  11
ENDBRANCH   3  10
TORSDOF 7
ENDMDL
MODEL 8
REMARK VINA RESULT:      -4.2      2.627      4.733
REMARK  Name = 
REMARK  7 active torsions:
REMARK  status: ('A' for Active; 'I' for Inactive)
REMARK    1  A    between atoms: O_1  and  C_2
REMARK    2  A    between atoms: C_6  and  C_8
REMARK    3  A    between atoms: C_8  and  O_9
REMARK    4  A    between atoms: O_9  and  P_10
REMARK    5  A    between atoms: P_10  and  O_11
REMARK    6  A    between atoms: P_10  and  O_12
REMARK    7  A    between atoms: C_14  and  O_16
REMARK                            x       y       z     vdW  Elec       q    Type
REMARK                         _______ _______ _______ _____ _____    ______ ____
ROOT
ATOM      1  C   UNL     1      10.275  -0.245  21.972  0.00  0.00    +0.171 C 
ATOM      2  C   UNL     1       8.819   0.048  21.627  0.00  0.00    +0.176 C 
ATOM      3  C   UNL     1       8.093  -0.047  22.976  0.00  0.00    +0.175 C 
ATOM      4  O   UNL     1       9.111  -0.203  23.996  0.00  0.00    -0.369 OA
ATOM      5  C   UNL     1      10.367   0.187  23.423  0.00  0.00    +0.194 C 
ENDROOT
BRANCH   1   6
ATOM      6  O   UNL     1      10.524  -1.650  21.858  0.00  0.00    -0.387 OA
ATOM      7  H   UNL     1       9.720  -2.122  22.142  0.00  0.00    +0.210 HD
ENDBRANCH   1   6
BRANCH   2   8
ATOM      8  O   UNL     1       8.683   1.362  21.075  0.00  0.00    -0.387 OA
ATOM      9  H   UNL     1       8.778   2.018  21.788  0.00  0.00    +0.210 HD
ENDBRANCH   2   8
BRANCH   3  10
ATOM     10  C   UNL     1       7.120  -1.224  23.057  0.00  0.00    +0.206 C 
BRANCH  10  11
ATOM     11  O   UNL     1       7.440  -1.993  24.214  0.00  0.00    -0.284 OA
BRANCH  11  12
ATOM     12  P   UNL     1       7.913  -3.625  23.892  0.00  0.00    +0.472 P 
ATOM     13  O   UNL     1       8.337  -5.086  23.603  0.00  0.00    -0.228 OA
BRANCH  12  14
ATOM     14  O   UNL     1       9.462  -3.160  24.101  0.00  0.00    -0.303 OA
ATOM     15  H   UNL     1       9.453  -2.599  24.903  0.00  0.00    +0.222 HD
ENDBRANCH  12  14
BRANCH  12  16
ATOM     16  O   UNL     1       7.849  -3.192  22.317  0.00  0.00    -0.303 OA
ATOM     17  H   UNL     1       8.360  -3.852  21.815  0.00  0.00    +0.222 HD
ENDBRANCH  12  16
ENDBRANCH  11  12
ENDBRANCH  10  11
ENDBRANCH   3  10
TORSDOF 7
ENDMDL
MODEL 9
REMARK VINA RESULT:      -4.2      3.286      4.842
REMARK  Name = 
REMARK  7 active torsions:
REMARK  status: ('A' for Active; 'I' for Inactive)
REMARK    1  A    between atoms: O_1  and  C_2
REMARK    2  A    between atoms: C_6  and  C_8
REMARK    3  A    between atoms: C_8  and  O_9
REMARK    4  A    between atoms: O_9  and  P_10
REMARK    5  A    between atoms: P_10  and  O_11
REMARK    6  A    between atoms: P_10  and  O_12
REMARK    7  A    between atoms: C_14  and  O_16
REMARK                            x       y       z     vdW  Elec       q    Type
REMARK                         _______ _______ _______ _____ _____    ______ ____
ROOT
ATOM      1  C   UNL     1       8.406  -4.217  26.391  0.00  0.00    +0.171 C 
ATOM      2  C   UNL     1       7.257  -4.577  25.457  0.00  0.00    +0.176 C 
ATOM      3  C   UNL     1       7.957  -5.054  24.177  0.00  0.00    +0.175 C 
ATOM      4  O   UNL     1       9.375  -5.116  24.466  0.00  0.00    -0.369 OA
ATOM      5  C   UNL     1       9.532  -5.104  25.892  0.00  0.00    +0.194 C 
ENDROOT
BRANCH   1   6
ATOM      6  O   UNL     1       8.751  -2.838  26.223  0.00  0.00    -0.387 OA
ATOM      7  H   UNL     1       9.690  -2.732  26.464  0.00  0.00    +0.210 HD
ENDBRANCH   1   6
BRANCH   2   8
ATOM      8  O   UNL     1       6.459  -5.627  26.014  0.00  0.00    -0.387 OA
ATOM      9  H   UNL     1       6.644  -6.454  25.537  0.00  0.00    +0.210 HD
ENDBRANCH   2   8
BRANCH   3  10
ATOM     10  C   UNL     1       7.729  -4.126  22.983  0.00  0.00    +0.206 C 
BRANCH  10  11
ATOM     11  O   UNL     1       7.801  -2.778  23.441  0.00  0.00    -0.284 OA
BRANCH  11  12
ATOM     12  P   UNL     1       8.993  -1.806  22.649  0.00  0.00    +0.472 P 
ATOM     13  O   UNL     1      10.059  -0.935  21.941  0.00  0.00    -0.228 OA
BRANCH  12  14
ATOM     14  O   UNL     1      10.134  -2.633  23.470  0.00  0.00    -0.303 OA
ATOM     15  H   UNL     1       9.672  -2.996  24.252  0.00  0.00    +0.222 HD
ENDBRANCH  12  14
BRANCH  12  16
ATOM     16  O   UNL     1       8.715  -0.727  23.846  0.00  0.00    -0.303 OA
ATOM     17  H   UNL     1       9.582  -0.464  24.204  0.00  0.00    +0.222 HD
ENDBRANCH  12  16
ENDBRANCH  11  12
ENDBRANCH  10  11
ENDBRANCH   3  10
TORSDOF 7
ENDMDL
