MODEL 1
REMARK VINA RESULT:      -6.6      0.000      0.000
REMARK  Name = 
REMARK  4 active torsions:
REMARK  status: ('A' for Active; 'I' for Inactive)
REMARK    1  A    between atoms: C_1  and  O_2
REMARK    2  A    between atoms: O_2  and  C_3
REMARK    3  A    between atoms: C_8  and  C_10
REMARK    4  A    between atoms: C_11  and  C_12
REMARK                            x       y       z     vdW  Elec       q    Type
REMARK                         _______ _______ _______ _____ _____    ______ ____
ROOT
ATOM      1  C   UNL     1       7.725  -5.054  26.516  0.00  0.00    +0.108 C 
ATOM      2  C   UNL     1       9.066  -4.456  26.250  0.00  0.00    +0.123 C 
ATOM      3  C   UNL     1       9.345  -4.132  24.776  0.00  0.00    +0.207 C 
ATOM      4  O   UNL     1       8.452  -4.725  23.817  0.00  0.00    -0.454 OA
ATOM      5  C   UNL     1       7.227  -5.202  24.115  0.00  0.00    +0.336 C 
ATOM      6  O   UNL     1       6.430  -5.538  23.246  0.00  0.00    -0.245 OA
ATOM      7  C   UNL     1       6.884  -5.361  25.528  0.00  0.00    +0.132 C 
ENDROOT
BRANCH   1   9
ATOM      8  C   UNL     1       5.932  -4.978  28.078  0.00  0.00    +0.276 C 
ATOM      9  O   UNL     1       7.310  -5.245  27.825  0.00  0.00    -0.499 OA
ENDBRANCH   1   9
BRANCH   3  10
ATOM     10  C   UNL     1       9.495  -2.649  24.531  0.00  0.00    +0.018 C 
ATOM     11  C   UNL     1       9.830  -2.058  23.373  0.00  0.00    +0.007 C 
BRANCH  11  12
ATOM     12  C   UNL     1      10.027  -0.622  23.244  0.00  0.00    -0.029 C 
ATOM     13  C   UNL     1      10.541   0.210  24.321  0.00  0.00    +0.003 C 
ATOM     14  C   UNL     1      10.692   1.538  24.203  0.00  0.00    -0.026 C 
ATOM     15  C   UNL     1      10.347   2.289  22.954  0.00  0.00    +0.031 C 
ATOM     16  C   UNL     1       9.865   1.421  21.779  0.00  0.00    +0.032 C 
ATOM     17  C   UNL     1       9.710  -0.045  22.069  0.00  0.00    -0.019 C 
ENDBRANCH  11  12
ENDBRANCH   3  10
TORSDOF 3
ENDMDL
MODEL 2
REMARK VINA RESULT:      -6.3      1.380      2.202
REMARK  Name = 
REMARK  4 active torsions:
REMARK  status: ('A' for Active; 'I' for Inactive)
REMARK    1  A    between atoms: C_1  and  O_2
REMARK    2  A    between atoms: O_2  and  C_3
REMARK    3  A    between atoms: C_8  and  C_10
REMARK    4  A    between atoms: C_11  and  C_12
REMARK                            x       y       z     vdW  Elec       q    Type
REMARK                         _______ _______ _______ _____ _____    ______ ____
ROOT
ATOM      1  C   UNL     1       6.852  -5.251  24.796  0.00  0.00    +0.108 C 
ATOM      2  C   UNL     1       7.997  -4.857  23.924  0.00  0.00    +0.123 C 
ATOM      3  C   UNL     1       7.600  -4.136  22.629  0.00  0.00    +0.207 C 
ATOM      4  O   UNL     1       6.212  -4.214  22.259  0.00  0.00    -0.454 OA
ATOM      5  C   UNL     1       5.216  -4.526  23.112  0.00  0.00    +0.336 C 
ATOM      6  O   UNL     1       4.035  -4.413  22.803  0.00  0.00    -0.245 OA
ATOM      7  C   UNL     1       5.586  -5.064  24.421  0.00  0.00    +0.132 C 
ENDROOT
BRANCH   1   9
ATOM      8  C   UNL     1       7.996  -5.014  26.869  0.00  0.00    +0.276 C 
ATOM      9  O   UNL     1       7.101  -5.771  26.057  0.00  0.00    -0.499 OA
ENDBRANCH   1   9
BRANCH   3  10
ATOM     10  C   UNL     1       8.090  -2.707  22.593  0.00  0.00    +0.018 C 
ATOM     11  C   UNL     1       9.233  -2.238  23.118  0.00  0.00    +0.007 C 
BRANCH  11  12
ATOM     12  C   UNL     1       9.592  -0.828  23.105  0.00  0.00    -0.029 C 
ATOM     13  C   UNL     1       9.439   0.020  21.932  0.00  0.00    +0.003 C 
ATOM     14  C   UNL     1       9.800   1.312  21.919  0.00  0.00    -0.026 C 
ATOM     15  C   UNL     1      10.392   2.004  23.108  0.00  0.00    +0.031 C 
ATOM     16  C   UNL     1      10.500   1.145  24.380  0.00  0.00    +0.032 C 
ATOM     17  C   UNL     1      10.093  -0.294  24.235  0.00  0.00    -0.019 C 
ENDBRANCH  11  12
ENDBRANCH   3  10
TORSDOF 3
ENDMDL
MODEL 3
REMARK VINA RESULT:      -6.1      1.865      2.270
REMARK  Name = 
REMARK  4 active torsions:
REMARK  status: ('A' for Active; 'I' for Inactive)
REMARK    1  A    between atoms: C_1  and  O_2
REMARK    2  A    between atoms: O_2  and  C_3
REMARK    3  A    between atoms: C_8  and  C_10
REMARK    4  A    between atoms: C_11  and  C_12
REMARK                            x       y       z     vdW  Elec       q    Type
REMARK                         _______ _______ _______ _____ _____    ______ ____
ROOT
ATOM      1  C   UNL     1       5.554  -5.179  23.971  0.00  0.00    +0.108 C 
ATOM      2  C   UNL     1       6.904  -4.717  24.406  0.00  0.00    +0.123 C 
ATOM      3  C   UNL     1       7.886  -4.433  23.262  0.00  0.00    +0.207 C 
ATOM      4  O   UNL     1       7.517  -4.942  21.968  0.00  0.00    -0.454 OA
ATOM      5  C   UNL     1       6.263  -5.294  21.622  0.00  0.00    +0.336 C 
ATOM      6  O   UNL     1       5.958  -5.556  20.464  0.00  0.00    -0.245 OA
ATOM      7  C   UNL     1       5.269  -5.409  22.688  0.00  0.00    +0.132 C 
ENDROOT
BRANCH   1   9
ATOM      8  C   UNL     1       4.374  -6.632  25.439  0.00  0.00    +0.276 C 
ATOM      9  O   UNL     1       4.543  -5.319  24.910  0.00  0.00    -0.499 OA
ENDBRANCH   1   9
BRANCH   3  10
ATOM     10  C   UNL     1       8.268  -2.972  23.181  0.00  0.00    +0.018 C 
ATOM     11  C   UNL     1       9.493  -2.454  23.354  0.00  0.00    +0.007 C 
BRANCH  11  12
ATOM     12  C   UNL     1       9.759  -1.023  23.333  0.00  0.00    -0.029 C 
ATOM     13  C   UNL     1      10.133  -0.266  24.518  0.00  0.00    +0.003 C 
ATOM     14  C   UNL     1      10.347   1.057  24.495  0.00  0.00    -0.026 C 
ATOM     15  C   UNL     1      10.223   1.882  23.250  0.00  0.00    +0.031 C 
ATOM     16  C   UNL     1       9.895   1.092  21.972  0.00  0.00    +0.032 C 
ATOM     17  C   UNL     1       9.645  -0.378  22.156  0.00  0.00    -0.019 C 
ENDBRANCH  11  12
ENDBRANCH   3  10
TORSDOF 3
ENDMDL
MODEL 4
REMARK VINA RESULT:      -6.0      3.595      6.918
REMARK  Name = 
REMARK  4 active torsions:
REMARK  status: ('A' for Active; 'I' for Inactive)
REMARK    1  A    between atoms: C_1  and  O_2
REMARK    2  A    between atoms: O_2  and  C_3
REMARK    3  A    between atoms: C_8  and  C_10
REMARK    4  A    between atoms: C_11  and  C_12
REMARK                            x       y       z     vdW  Elec       q    Type
REMARK                         _______ _______ _______ _____ _____    ______ ____
ROOT
ATOM      1  C   UNL     1       9.010   1.667  22.436  0.00  0.00    +0.108 C 
ATOM      2  C   UNL     1       9.155   0.590  21.414  0.00  0.00    +0.123 C 
ATOM      3  C   UNL     1       9.844  -0.685  21.917  0.00  0.00    +0.207 C 
ATOM      4  O   UNL     1      10.542  -0.577  23.171  0.00  0.00    -0.454 OA
ATOM      5  C   UNL     1      10.325   0.397  24.077  0.00  0.00    +0.336 C 
ATOM      6  O   UNL     1      10.810   0.358  25.202  0.00  0.00    -0.245 OA
ATOM      7  C   UNL     1       9.526   1.549  23.660  0.00  0.00    +0.132 C 
ENDROOT
BRANCH   1   9
ATOM      8  C   UNL     1       6.859   2.671  22.285  0.00  0.00    +0.276 C 
ATOM      9  O   UNL     1       8.270   2.801  22.134  0.00  0.00    -0.499 OA
ENDBRANCH   1   9
BRANCH   3  10
ATOM     10  C   UNL     1       8.917  -1.879  21.915  0.00  0.00    +0.018 C 
ATOM     11  C   UNL     1       7.779  -2.010  22.614  0.00  0.00    +0.007 C 
BRANCH  11  12
ATOM     12  C   UNL     1       6.984  -3.229  22.612  0.00  0.00    -0.029 C 
ATOM     13  C   UNL     1       7.530  -4.535  22.273  0.00  0.00    +0.003 C 
ATOM     14  C   UNL     1       6.783  -5.648  22.245  0.00  0.00    -0.026 C 
ATOM     15  C   UNL     1       5.319  -5.655  22.560  0.00  0.00    +0.031 C 
ATOM     16  C   UNL     1       4.734  -4.298  22.986  0.00  0.00    +0.032 C 
ATOM     17  C   UNL     1       5.680  -3.133  22.935  0.00  0.00    -0.019 C 
ENDBRANCH  11  12
ENDBRANCH   3  10
TORSDOF 3
ENDMDL
MODEL 5
REMARK VINA RESULT:      -5.8      3.286      4.509
REMARK  Name = 
REMARK  4 active torsions:
REMARK  status: ('A' for Active; 'I' for Inactive)
REMARK    1  A    between atoms: C_1  and  O_2
REMARK    2  A    between atoms: O_2  and  C_3
REMARK    3  A    between atoms: C_8  and  C_10
REMARK    4  A    between atoms: C_11  and  C_12
REMARK                            x       y       z     vdW  Elec       q    Type
REMARK                         _______ _______ _______ _____ _____    ______ ____
ROOT
ATOM      1  C   UNL     1       7.406  -1.600  23.569  0.00  0.00    +0.108 C 
ATOM      2  C   UNL     1       7.620  -0.708  24.746  0.00  0.00    +0.123 C 
ATOM      3  C   UNL     1       9.078  -0.289  24.978  0.00  0.00    +0.207 C 
ATOM      4  O   UNL     1      10.076  -1.040  24.263  0.00  0.00    -0.454 OA
ATOM      5  C   UNL     1       9.823  -1.788  23.171  0.00  0.00    +0.336 C 
ATOM      6  O   UNL     1      10.721  -2.270  22.490  0.00  0.00    -0.245 OA
ATOM      7  C   UNL     1       8.424  -2.060  22.841  0.00  0.00    +0.132 C 
ENDROOT
BRANCH   1   9
ATOM      8  C   UNL     1       6.001  -2.970  22.224  0.00  0.00    +0.276 C 
ATOM      9  O   UNL     1       6.114  -1.917  23.178  0.00  0.00    -0.499 OA
ENDBRANCH   1   9
BRANCH   3  10
ATOM     10  C   UNL     1       9.285   1.197  24.795  0.00  0.00    +0.018 C 
ATOM     11  C   UNL     1       9.989   1.794  23.820  0.00  0.00    +0.007 C 
BRANCH  11  12
ATOM     12  C   UNL     1      10.201   3.232  23.762  0.00  0.00    -0.029 C 
ATOM     13  C   UNL     1      11.484   3.834  23.430  0.00  0.00    +0.003 C 
ATOM     14  C   UNL     1      11.678   5.161  23.408  0.00  0.00    -0.026 C 
ATOM     15  C   UNL     1      10.596   6.148  23.721  0.00  0.00    +0.031 C 
ATOM     16  C   UNL     1       9.214   5.536  24.010  0.00  0.00    +0.032 C 
ATOM     17  C   UNL     1       9.156   4.036  24.036  0.00  0.00    -0.019 C 
ENDBRANCH  11  12
ENDBRANCH   3  10
TORSDOF 3
ENDMDL
MODEL 6
REMARK VINA RESULT:      -5.7      3.060      4.862
REMARK  Name = 
REMARK  4 active torsions:
REMARK  status: ('A' for Active; 'I' for Inactive)
REMARK    1  A    between atoms: C_1  and  O_2
REMARK    2  A    between atoms: O_2  and  C_3
REMARK    3  A    between atoms: C_8  and  C_10
REMARK    4  A    between atoms: C_11  and  C_12
REMARK                            x       y       z     vdW  Elec       q    Type
REMARK                         _______ _______ _______ _____ _____    ______ ____
ROOT
ATOM      1  C   UNL     1       8.856  -1.154  25.111  0.00  0.00    +0.108 C 
ATOM      2  C   UNL     1       9.592   0.066  25.553  0.00  0.00    +0.123 C 
ATOM      3  C   UNL     1      10.564   0.641  24.514  0.00  0.00    +0.207 C 
ATOM      4  O   UNL     1      10.888  -0.217  23.405  0.00  0.00    -0.454 OA
ATOM      5  C   UNL     1      10.148  -1.278  23.026  0.00  0.00    +0.336 C 
ATOM      6  O   UNL     1      10.359  -1.877  21.977  0.00  0.00    -0.245 OA
ATOM      7  C   UNL     1       9.102  -1.738  23.938  0.00  0.00    +0.132 C 
ENDROOT
BRANCH   1   9
ATOM      8  C   UNL     1       8.069  -2.983  26.415  0.00  0.00    +0.276 C 
ATOM      9  O   UNL     1       7.845  -1.668  25.910  0.00  0.00    -0.499 OA
ENDBRANCH   1   9
BRANCH   3  10
ATOM     10  C   UNL     1      10.148   2.012  24.033  0.00  0.00    +0.018 C 
ATOM     11  C   UNL     1       8.991   2.638  24.302  0.00  0.00    +0.007 C 
BRANCH  11  12
ATOM     12  C   UNL     1       8.639   3.931  23.734  0.00  0.00    -0.029 C 
ATOM     13  C   UNL     1       7.511   4.123  22.835  0.00  0.00    +0.003 C 
ATOM     14  C   UNL     1       7.211   5.312  22.292  0.00  0.00    -0.026 C 
ATOM     15  C   UNL     1       8.005   6.554  22.560  0.00  0.00    +0.031 C 
ATOM     16  C   UNL     1       9.161   6.389  23.561  0.00  0.00    +0.032 C 
ATOM     17  C   UNL     1       9.402   4.992  24.059  0.00  0.00    -0.019 C 
ENDBRANCH  11  12
ENDBRANCH   3  10
TORSDOF 3
ENDMDL
MODEL 7
REMARK VINA RESULT:      -5.6      3.839      7.311
REMARK  Name = 
REMARK  4 active torsions:
REMARK  status: ('A' for Active; 'I' for Inactive)
REMARK    1  A    between atoms: C_1  and  O_2
REMARK    2  A    between atoms: O_2  and  C_3
REMARK    3  A    between atoms: C_8  and  C_10
REMARK    4  A    between atoms: C_11  and  C_12
REMARK                            x       y       z     vdW  Elec       q    Type
REMARK                         _______ _______ _______ _____ _____    ______ ____
ROOT
ATOM      1  C   UNL     1       7.884   2.667  22.306  0.00  0.00    +0.108 C 
ATOM      2  C   UNL     1       8.083   1.462  21.450  0.00  0.00    +0.123 C 
ATOM      3  C   UNL     1       9.475   0.825  21.549  0.00  0.00    +0.207 C 
ATOM      4  O   UNL     1      10.495   1.624  22.177  0.00  0.00    -0.454 OA
ATOM      5  C   UNL     1      10.245   2.673  22.984  0.00  0.00    +0.336 C 
ATOM      6  O   UNL     1      11.130   3.218  23.635  0.00  0.00    -0.245 OA
ATOM      7  C   UNL     1       8.878   3.190  23.025  0.00  0.00    +0.132 C 
ENDROOT
BRANCH   1   9
ATOM      8  C   UNL     1       6.594   4.630  22.684  0.00  0.00    +0.276 C 
ATOM      9  O   UNL     1       6.621   3.232  22.409  0.00  0.00    -0.499 OA
ENDBRANCH   1   9
BRANCH   3  10
ATOM     10  C   UNL     1       9.432  -0.563  22.146  0.00  0.00    +0.018 C 
ATOM     11  C   UNL     1       8.333  -1.284  22.419  0.00  0.00    +0.007 C 
BRANCH  11  12
ATOM     12  C   UNL     1       8.381  -2.586  23.066  0.00  0.00    -0.029 C 
ATOM     13  C   UNL     1       7.523  -3.697  22.680  0.00  0.00    +0.003 C 
ATOM     14  C   UNL     1       7.553  -4.886  23.301  0.00  0.00    -0.026 C 
ATOM     15  C   UNL     1       8.469  -5.183  24.449  0.00  0.00    +0.031 C 
ATOM     16  C   UNL     1       9.432  -4.045  24.830  0.00  0.00    +0.032 C 
ATOM     17  C   UNL     1       9.259  -2.760  24.072  0.00  0.00    -0.019 C 
ENDBRANCH  11  12
ENDBRANCH   3  10
TORSDOF 3
ENDMDL
MODEL 8
REMARK VINA RESULT:      -5.6      1.959      2.998
REMARK  Name = 
REMARK  4 active torsions:
REMARK  status: ('A' for Active; 'I' for Inactive)
REMARK    1  A    between atoms: C_1  and  O_2
REMARK    2  A    between atoms: O_2  and  C_3
REMARK    3  A    between atoms: C_8  and  C_10
REMARK    4  A    between atoms: C_11  and  C_12
REMARK                            x       y       z     vdW  Elec       q    Type
REMARK                         _______ _______ _______ _____ _____    ______ ____
ROOT
ATOM      1  C   UNL     1       8.975  -3.561  24.360  0.00  0.00    +0.108 C 
ATOM      2  C   UNL     1       9.835  -2.456  23.844  0.00  0.00    +0.123 C 
ATOM      3  C   UNL     1       9.315  -1.780  22.568  0.00  0.00    +0.207 C 
ATOM      4  O   UNL     1       8.277  -2.479  21.857  0.00  0.00    -0.454 OA
ATOM      5  C   UNL     1       7.498  -3.435  22.401  0.00  0.00    +0.336 C 
ATOM      6  O   UNL     1       6.515  -3.882  21.820  0.00  0.00    -0.245 OA
ATOM      7  C   UNL     1       7.892  -3.975  23.702  0.00  0.00    +0.132 C 
ENDROOT
BRANCH   1   9
ATOM      8  C   UNL     1       8.394  -5.188  25.996  0.00  0.00    +0.276 C 
ATOM      9  O   UNL     1       9.268  -4.138  25.587  0.00  0.00    -0.499 OA
ENDBRANCH   1   9
BRANCH   3  10
ATOM     10  C   UNL     1       8.937  -0.335  22.795  0.00  0.00    +0.018 C 
ATOM     11  C   UNL     1       9.542   0.743  22.272  0.00  0.00    +0.007 C 
BRANCH  11  12
ATOM     12  C   UNL     1       9.158   2.107  22.605  0.00  0.00    -0.029 C 
ATOM     13  C   UNL     1       9.971   2.981  23.437  0.00  0.00    +0.003 C 
ATOM     14  C   UNL     1       9.596   4.226  23.763  0.00  0.00    -0.026 C 
ATOM     15  C   UNL     1       8.308   4.836  23.302  0.00  0.00    +0.031 C 
ATOM     16  C   UNL     1       7.464   3.955  22.366  0.00  0.00    +0.032 C 
ATOM     17  C   UNL     1       7.991   2.570  22.119  0.00  0.00    -0.019 C 
ENDBRANCH  11  12
ENDBRANCH   3  10
TORSDOF 3
ENDMDL
MODEL 9
REMARK VINA RESULT:      -5.4      3.371      6.747
REMARK  Name = 
REMARK  4 active torsions:
REMARK  status: ('A' for Active; 'I' for Inactive)
REMARK    1  A    between atoms: C_1  and  O_2
REMARK    2  A    between atoms: O_2  and  C_3
REMARK    3  A    between atoms: C_8  and  C_10
REMARK    4  A    between atoms: C_11  and  C_12
REMARK                            x       y       z     vdW  Elec       q    Type
REMARK                         _______ _______ _______ _____ _____    ______ ____
ROOT
ATOM      1  C   UNL     1       9.957   1.841  23.881  0.00  0.00    +0.108 C 
ATOM      2  C   UNL     1      10.545   0.512  24.220  0.00  0.00    +0.123 C 
ATOM      3  C   UNL     1       9.686  -0.351  25.154  0.00  0.00    +0.207 C 
ATOM      4  O   UNL     1       8.614   0.326  25.835  0.00  0.00    -0.454 OA
ATOM      5  C   UNL     1       8.093   1.505  25.445  0.00  0.00    +0.336 C 
ATOM      6  O   UNL     1       7.071   1.963  25.945  0.00  0.00    -0.245 OA
ATOM      7  C   UNL     1       8.818   2.266  24.428  0.00  0.00    +0.132 C 
ENDROOT
BRANCH   1   9
ATOM      8  C   UNL     1      11.344   3.723  23.438  0.00  0.00    +0.276 C 
ATOM      9  O   UNL     1      10.574   2.637  22.927  0.00  0.00    -0.499 OA
ENDBRANCH   1   9
BRANCH   3  10
ATOM     10  C   UNL     1       9.190  -1.610  24.482  0.00  0.00    +0.018 C 
ATOM     11  C   UNL     1       8.044  -1.754  23.798  0.00  0.00    +0.007 C 
BRANCH  11  12
ATOM     12  C   UNL     1       7.606  -3.027  23.245  0.00  0.00    -0.029 C 
ATOM     13  C   UNL     1       8.087  -4.312  23.730  0.00  0.00    +0.003 C 
ATOM     14  C   UNL     1       7.700  -5.480  23.195  0.00  0.00    -0.026 C 
ATOM     15  C   UNL     1       6.739  -5.573  22.050  0.00  0.00    +0.031 C 
ATOM     16  C   UNL     1       6.166  -4.231  21.565  0.00  0.00    +0.032 C 
ATOM     17  C   UNL     1       6.718  -3.004  22.233  0.00  0.00    -0.019 C 
ENDBRANCH  11  12
ENDBRANCH   3  10
TORSDOF 3
ENDMDL
