MODEL 1
REMARK VINA RESULT:      -6.9      0.000      0.000
REMARK  Name = 
REMARK  7 active torsions:
REMARK  status: ('A' for Active; 'I' for Inactive)
REMARK    1  A    between atoms: C_1  and  N_2
REMARK    2  A    between atoms: C_4  and  C_13
REMARK    3  A    between atoms: C_6  and  C_7
REMARK    4  A    between atoms: C_8  and  C_9
REMARK    5  A    between atoms: N_11  and  O_12
REMARK    6  A    between atoms: C_13  and  C_15
REMARK    7  A    between atoms: C_15  and  C_16
REMARK                            x       y       z     vdW  Elec       q    Type
REMARK                         _______ _______ _______ _____ _____    ______ ____
ROOT
ATOM      1  C   UNL     1       5.244  -3.726  22.868  0.00  0.00    +0.149 C 
ATOM      2  N   UNL     1       6.578  -3.218  23.125  0.00  0.00    -0.349 N 
ATOM      3  C   UNL     1       7.282  -3.288  24.313  0.00  0.00    +0.042 A 
ATOM      4  C   UNL     1       8.516  -2.710  24.065  0.00  0.00    +0.038 A 
ATOM      5  C   UNL     1       8.549  -2.223  22.732  0.00  0.00    +0.036 A 
ATOM      6  C   UNL     1       7.334  -2.566  22.172  0.00  0.00    +0.097 A 
ENDROOT
BRANCH   3   7
ATOM      7  C   UNL     1       6.720  -3.866  25.487  0.00  0.00    +0.031 C 
ATOM      8  C   UNL     1       7.112  -5.084  25.894  0.00  0.00    +0.071 C 
BRANCH   8   9
ATOM      9  C   UNL     1       6.553  -5.694  27.121  0.00  0.00    +0.259 C 
ATOM     10  N   UNL     1       5.669  -6.710  26.866  0.00  0.00    -0.194 N 
ATOM     11  H   UNL     1       5.387  -7.038  25.950  0.00  0.00    +0.183 HD
ATOM     12  O   UNL     1       6.849  -5.333  28.255  0.00  0.00    -0.269 OA
BRANCH  10  13
ATOM     13  O   UNL     1       5.087  -7.347  27.982  0.00  0.00    -0.295 OA
ATOM     14  H   UNL     1       5.039  -8.282  27.689  0.00  0.00    +0.241 HD
ENDBRANCH  10  13
ENDBRANCH   8   9
ENDBRANCH   3   7
BRANCH   5  15
ATOM     15  C   UNL     1       9.666  -1.505  22.119  0.00  0.00    +0.169 C 
ATOM     16  O   UNL     1      10.827  -1.837  22.366  0.00  0.00    -0.292 OA
BRANCH  15  17
ATOM     17  C   UNL     1       9.383  -0.295  21.251  0.00  0.00    +0.114 C 
BRANCH  17  18
ATOM     18  C   UNL     1       9.250   1.028  21.961  0.00  0.00    -0.040 A 
ATOM     19  C   UNL     1      10.139   1.443  22.962  0.00  0.00    +0.004 A 
ATOM     20  C   UNL     1       9.941   2.656  23.627  0.00  0.00    +0.000 A 
ATOM     21  C   UNL     1       8.845   3.458  23.313  0.00  0.00    +0.000 A 
ATOM     22  C   UNL     1       7.937   3.043  22.344  0.00  0.00    +0.000 A 
ATOM     23  C   UNL     1       8.135   1.834  21.676  0.00  0.00    +0.004 A 
ENDBRANCH  17  18
ENDBRANCH  15  17
ENDBRANCH   5  15
TORSDOF 6
ENDMDL
MODEL 2
REMARK VINA RESULT:      -6.8      2.098      2.610
REMARK  Name = 
REMARK  7 active torsions:
REMARK  status: ('A' for Active; 'I' for Inactive)
REMARK    1  A    between atoms: C_1  and  N_2
REMARK    2  A    between atoms: C_4  and  C_13
REMARK    3  A    between atoms: C_6  and  C_7
REMARK    4  A    between atoms: C_8  and  C_9
REMARK    5  A    between atoms: N_11  and  O_12
REMARK    6  A    between atoms: C_13  and  C_15
REMARK    7  A    between atoms: C_15  and  C_16
REMARK                            x       y       z     vdW  Elec       q    Type
REMARK                         _______ _______ _______ _____ _____    ______ ____
ROOT
ATOM      1  C   UNL     1       7.211  -2.672  26.317  0.00  0.00    +0.149 C 
ATOM      2  N   UNL     1       7.621  -2.618  24.926  0.00  0.00    -0.349 N 
ATOM      3  C   UNL     1       7.062  -3.306  23.865  0.00  0.00    +0.042 A 
ATOM      4  C   UNL     1       7.757  -2.904  22.736  0.00  0.00    +0.038 A 
ATOM      5  C   UNL     1       8.793  -2.010  23.113  0.00  0.00    +0.036 A 
ATOM      6  C   UNL     1       8.673  -1.845  24.479  0.00  0.00    +0.097 A 
ENDROOT
BRANCH   3   7
ATOM      7  C   UNL     1       5.987  -4.222  24.046  0.00  0.00    +0.031 C 
ATOM      8  C   UNL     1       5.287  -4.660  22.986  0.00  0.00    +0.071 C 
BRANCH   8   9
ATOM      9  C   UNL     1       4.178  -5.626  23.151  0.00  0.00    +0.259 C 
ATOM     10  N   UNL     1       4.578  -6.823  23.688  0.00  0.00    -0.194 N 
ATOM     11  H   UNL     1       5.524  -7.071  23.950  0.00  0.00    +0.183 HD
ATOM     12  O   UNL     1       3.017  -5.386  22.842  0.00  0.00    -0.269 OA
BRANCH  10  13
ATOM     13  O   UNL     1       3.581  -7.803  23.877  0.00  0.00    -0.295 OA
ATOM     14  H   UNL     1       4.008  -8.415  24.514  0.00  0.00    +0.241 HD
ENDBRANCH  10  13
ENDBRANCH   8   9
ENDBRANCH   3   7
BRANCH   5  15
ATOM     15  C   UNL     1       9.770  -1.414  22.205  0.00  0.00    +0.169 C 
ATOM     16  O   UNL     1      10.945  -1.790  22.223  0.00  0.00    -0.292 OA
BRANCH  15  17
ATOM     17  C   UNL     1       9.346  -0.269  21.306  0.00  0.00    +0.114 C 
BRANCH  17  18
ATOM     18  C   UNL     1       9.181   1.078  21.961  0.00  0.00    -0.040 A 
ATOM     19  C   UNL     1      10.077   1.566  22.924  0.00  0.00    +0.004 A 
ATOM     20  C   UNL     1       9.850   2.800  23.540  0.00  0.00    +0.000 A 
ATOM     21  C   UNL     1       8.720   3.549  23.217  0.00  0.00    +0.000 A 
ATOM     22  C   UNL     1       7.807   3.061  22.287  0.00  0.00    +0.000 A 
ATOM     23  C   UNL     1       8.033   1.832  21.668  0.00  0.00    +0.004 A 
ENDBRANCH  17  18
ENDBRANCH  15  17
ENDBRANCH   5  15
TORSDOF 6
ENDMDL
MODEL 3
REMARK VINA RESULT:      -6.5      4.004      8.421
REMARK  Name = 
REMARK  7 active torsions:
REMARK  status: ('A' for Active; 'I' for Inactive)
REMARK    1  A    between atoms: C_1  and  N_2
REMARK    2  A    between atoms: C_4  and  C_13
REMARK    3  A    between atoms: C_6  and  C_7
REMARK    4  A    between atoms: C_8  and  C_9
REMARK    5  A    between atoms: N_11  and  O_12
REMARK    6  A    between atoms: C_13  and  C_15
REMARK    7  A    between atoms: C_15  and  C_16
REMARK                            x       y       z     vdW  Elec       q    Type
REMARK                         _______ _______ _______ _____ _____    ______ ____
ROOT
ATOM      1  C   UNL     1       7.957   2.623  25.226  0.00  0.00    +0.149 C 
ATOM      2  N   UNL     1       8.840   1.701  24.538  0.00  0.00    -0.349 N 
ATOM      3  C   UNL     1       9.999   2.013  23.850  0.00  0.00    +0.042 A 
ATOM      4  C   UNL     1      10.518   0.809  23.402  0.00  0.00    +0.038 A 
ATOM      5  C   UNL     1       9.639  -0.246  23.762  0.00  0.00    +0.036 A 
ATOM      6  C   UNL     1       8.613   0.341  24.476  0.00  0.00    +0.097 A 
ENDROOT
BRANCH   3   7
ATOM      7  C   UNL     1      10.449   3.357  23.707  0.00  0.00    +0.031 C 
ATOM      8  C   UNL     1      11.716   3.609  23.340  0.00  0.00    +0.071 C 
BRANCH   8   9
ATOM      9  C   UNL     1      12.198   4.997  23.168  0.00  0.00    +0.259 C 
ATOM     10  N   UNL     1      13.425   5.073  22.560  0.00  0.00    -0.194 N 
ATOM     11  H   UNL     1      13.987   4.288  22.253  0.00  0.00    +0.183 HD
ATOM     12  O   UNL     1      11.568   5.985  23.529  0.00  0.00    -0.269 OA
BRANCH  10  13
ATOM     13  O   UNL     1      13.960   6.363  22.359  0.00  0.00    -0.295 OA
ATOM     14  H   UNL     1      14.499   6.242  21.548  0.00  0.00    +0.241 HD
ENDBRANCH  10  13
ENDBRANCH   8   9
ENDBRANCH   3   7
BRANCH   5  15
ATOM     15  C   UNL     1       9.822  -1.655  23.419  0.00  0.00    +0.169 C 
ATOM     16  O   UNL     1      10.527  -1.973  22.458  0.00  0.00    -0.292 OA
BRANCH  15  17
ATOM     17  C   UNL     1       9.066  -2.713  24.197  0.00  0.00    +0.114 C 
BRANCH  17  18
ATOM     18  C   UNL     1       7.991  -3.462  23.451  0.00  0.00    -0.040 A 
ATOM     19  C   UNL     1       7.874  -4.858  23.493  0.00  0.00    +0.004 A 
ATOM     20  C   UNL     1       6.891  -5.509  22.741  0.00  0.00    +0.000 A 
ATOM     21  C   UNL     1       6.031  -4.776  21.925  0.00  0.00    +0.000 A 
ATOM     22  C   UNL     1       6.158  -3.392  21.850  0.00  0.00    +0.000 A 
ATOM     23  C   UNL     1       7.135  -2.740  22.603  0.00  0.00    +0.004 A 
ENDBRANCH  17  18
ENDBRANCH  15  17
ENDBRANCH   5  15
TORSDOF 6
ENDMDL
MODEL 4
REMARK VINA RESULT:      -6.4      3.347      7.843
REMARK  Name = 
REMARK  7 active torsions:
REMARK  status: ('A' for Active; 'I' for Inactive)
REMARK    1  A    between atoms: C_1  and  N_2
REMARK    2  A    between atoms: C_4  and  C_13
REMARK    3  A    between atoms: C_6  and  C_7
REMARK    4  A    between atoms: C_8  and  C_9
REMARK    5  A    between atoms: N_11  and  O_12
REMARK    6  A    between atoms: C_13  and  C_15
REMARK    7  A    between atoms: C_15  and  C_16
REMARK                            x       y       z     vdW  Elec       q    Type
REMARK                         _______ _______ _______ _____ _____    ______ ____
ROOT
ATOM      1  C   UNL     1       9.448  -0.381  21.316  0.00  0.00    +0.149 C 
ATOM      2  N   UNL     1       9.416  -0.849  22.689  0.00  0.00    -0.349 N 
ATOM      3  C   UNL     1       9.786  -0.143  23.819  0.00  0.00    +0.042 A 
ATOM      4  C   UNL     1       9.546  -0.983  24.894  0.00  0.00    +0.038 A 
ATOM      5  C   UNL     1       9.085  -2.238  24.418  0.00  0.00    +0.036 A 
ATOM      6  C   UNL     1       9.005  -2.117  23.045  0.00  0.00    +0.097 A 
ENDROOT
BRANCH   3   7
ATOM      7  C   UNL     1      10.302   1.182  23.742  0.00  0.00    +0.031 C 
ATOM      8  C   UNL     1       9.473   2.236  23.825  0.00  0.00    +0.071 C 
BRANCH   8   9
ATOM      9  C   UNL     1       9.991   3.621  23.766  0.00  0.00    +0.259 C 
ATOM     10  N   UNL     1      11.127   3.741  23.008  0.00  0.00    -0.194 N 
ATOM     11  H   UNL     1      11.606   2.988  22.528  0.00  0.00    +0.183 HD
ATOM     12  O   UNL     1       9.462   4.569  24.334  0.00  0.00    -0.269 OA
BRANCH  10  13
ATOM     13  O   UNL     1      11.689   5.031  22.899  0.00  0.00    -0.295 OA
ATOM     14  H   UNL     1      10.907   5.583  22.686  0.00  0.00    +0.241 HD
ENDBRANCH  10  13
ENDBRANCH   8   9
ENDBRANCH   3   7
BRANCH   5  15
ATOM     15  C   UNL     1       8.775  -3.399  25.251  0.00  0.00    +0.169 C 
ATOM     16  O   UNL     1       8.673  -3.275  26.474  0.00  0.00    -0.292 OA
BRANCH  15  17
ATOM     17  C   UNL     1       8.669  -4.767  24.608  0.00  0.00    +0.114 C 
BRANCH  17  18
ATOM     18  C   UNL     1       7.362  -5.097  23.935  0.00  0.00    -0.040 A 
ATOM     19  C   UNL     1       6.138  -5.098  24.619  0.00  0.00    +0.004 A 
ATOM     20  C   UNL     1       4.960  -5.463  23.960  0.00  0.00    +0.000 A 
ATOM     21  C   UNL     1       4.994  -5.848  22.622  0.00  0.00    +0.000 A 
ATOM     22  C   UNL     1       6.207  -5.882  21.940  0.00  0.00    +0.000 A 
ATOM     23  C   UNL     1       7.383  -5.515  22.594  0.00  0.00    +0.004 A 
ENDBRANCH  17  18
ENDBRANCH  15  17
ENDBRANCH   5  15
TORSDOF 6
ENDMDL
MODEL 5
REMARK VINA RESULT:      -6.4      3.401      7.856
REMARK  Name = 
REMARK  7 active torsions:
REMARK  status: ('A' for Active; 'I' for Inactive)
REMARK    1  A    between atoms: C_1  and  N_2
REMARK    2  A    between atoms: C_4  and  C_13
REMARK    3  A    between atoms: C_6  and  C_7
REMARK    4  A    between atoms: C_8  and  C_9
REMARK    5  A    between atoms: N_11  and  O_12
REMARK    6  A    between atoms: C_13  and  C_15
REMARK    7  A    between atoms: C_15  and  C_16
REMARK                            x       y       z     vdW  Elec       q    Type
REMARK                         _______ _______ _______ _____ _____    ______ ____
ROOT
ATOM      1  C   UNL     1       6.889   1.048  22.726  0.00  0.00    +0.149 C 
ATOM      2  N   UNL     1       7.851   0.185  23.385  0.00  0.00    -0.349 N 
ATOM      3  C   UNL     1       9.022   0.568  24.012  0.00  0.00    +0.042 A 
ATOM      4  C   UNL     1       9.583  -0.591  24.523  0.00  0.00    +0.038 A 
ATOM      5  C   UNL     1       8.785  -1.704  24.153  0.00  0.00    +0.036 A 
ATOM      6  C   UNL     1       7.711  -1.186  23.456  0.00  0.00    +0.097 A 
ENDROOT
BRANCH   3   7
ATOM      7  C   UNL     1       9.448   1.927  24.045  0.00  0.00    +0.031 C 
ATOM      8  C   UNL     1      10.502   2.323  23.314  0.00  0.00    +0.071 C 
BRANCH   8   9
ATOM      9  C   UNL     1      10.948   3.734  23.320  0.00  0.00    +0.259 C 
ATOM     10  N   UNL     1       9.914   4.629  23.231  0.00  0.00    -0.194 N 
ATOM     11  H   UNL     1       8.931   4.398  23.155  0.00  0.00    +0.183 HD
ATOM     12  O   UNL     1      12.123   4.074  23.399  0.00  0.00    -0.269 OA
BRANCH  10  13
ATOM     13  O   UNL     1      10.253   5.999  23.229  0.00  0.00    -0.295 OA
ATOM     14  H   UNL     1       9.834   6.319  24.057  0.00  0.00    +0.241 HD
ENDBRANCH  10  13
ENDBRANCH   8   9
ENDBRANCH   3   7
BRANCH   5  15
ATOM     15  C   UNL     1       9.082  -3.101  24.464  0.00  0.00    +0.169 C 
ATOM     16  O   UNL     1      10.199  -3.566  24.225  0.00  0.00    -0.292 OA
BRANCH  15  17
ATOM     17  C   UNL     1       7.979  -3.994  24.997  0.00  0.00    +0.114 C 
BRANCH  17  18
ATOM     18  C   UNL     1       7.142  -4.717  23.974  0.00  0.00    -0.040 A 
ATOM     19  C   UNL     1       7.653  -5.137  22.738  0.00  0.00    +0.004 A 
ATOM     20  C   UNL     1       6.821  -5.758  21.801  0.00  0.00    +0.000 A 
ATOM     21  C   UNL     1       5.469  -5.948  22.080  0.00  0.00    +0.000 A 
ATOM     22  C   UNL     1       4.942  -5.507  23.291  0.00  0.00    +0.000 A 
ATOM     23  C   UNL     1       5.771  -4.891  24.228  0.00  0.00    +0.004 A 
ENDBRANCH  17  18
ENDBRANCH  15  17
ENDBRANCH   5  15
TORSDOF 6
ENDMDL
MODEL 6
REMARK VINA RESULT:      -6.4      3.665      8.133
REMARK  Name = 
REMARK  7 active torsions:
REMARK  status: ('A' for Active; 'I' for Inactive)
REMARK    1  A    between atoms: C_1  and  N_2
REMARK    2  A    between atoms: C_4  and  C_13
REMARK    3  A    between atoms: C_6  and  C_7
REMARK    4  A    between atoms: C_8  and  C_9
REMARK    5  A    between atoms: N_11  and  O_12
REMARK    6  A    between atoms: C_13  and  C_15
REMARK    7  A    between atoms: C_15  and  C_16
REMARK                            x       y       z     vdW  Elec       q    Type
REMARK                         _______ _______ _______ _____ _____    ______ ____
ROOT
ATOM      1  C   UNL     1       8.043   1.717  21.572  0.00  0.00    +0.149 C 
ATOM      2  N   UNL     1       8.638   0.857  22.576  0.00  0.00    -0.349 N 
ATOM      3  C   UNL     1       9.450   1.241  23.627  0.00  0.00    +0.042 A 
ATOM      4  C   UNL     1       9.738   0.086  24.335  0.00  0.00    +0.038 A 
ATOM      5  C   UNL     1       9.152  -1.027  23.679  0.00  0.00    +0.036 A 
ATOM      6  C   UNL     1       8.466  -0.512  22.597  0.00  0.00    +0.097 A 
ENDROOT
BRANCH   3   7
ATOM      7  C   UNL     1       9.838   2.598  23.820  0.00  0.00    +0.031 C 
ATOM      8  C   UNL     1      11.019   3.036  23.353  0.00  0.00    +0.071 C 
BRANCH   8   9
ATOM      9  C   UNL     1      11.433   4.446  23.527  0.00  0.00    +0.259 C 
ATOM     10  N   UNL     1      12.787   4.630  23.416  0.00  0.00    -0.194 N 
ATOM     11  H   UNL     1      13.475   3.906  23.246  0.00  0.00    +0.183 HD
ATOM     12  O   UNL     1      10.648   5.362  23.746  0.00  0.00    -0.269 OA
BRANCH  10  13
ATOM     13  O   UNL     1      13.267   5.948  23.571  0.00  0.00    -0.295 OA
ATOM     14  H   UNL     1      14.212   5.857  23.321  0.00  0.00    +0.241 HD
ENDBRANCH  10  13
ENDBRANCH   8   9
ENDBRANCH   3   7
BRANCH   5  15
ATOM     15  C   UNL     1       9.279  -2.422  24.099  0.00  0.00    +0.169 C 
ATOM     16  O   UNL     1      10.302  -3.058  23.835  0.00  0.00    -0.292 OA
BRANCH  15  17
ATOM     17  C   UNL     1       8.109  -3.102  24.780  0.00  0.00    +0.114 C 
BRANCH  17  18
ATOM     18  C   UNL     1       7.158  -3.862  23.891  0.00  0.00    -0.040 A 
ATOM     19  C   UNL     1       5.789  -3.569  23.821  0.00  0.00    +0.004 A 
ATOM     20  C   UNL     1       4.941  -4.338  23.019  0.00  0.00    +0.000 A 
ATOM     21  C   UNL     1       5.445  -5.418  22.296  0.00  0.00    +0.000 A 
ATOM     22  C   UNL     1       6.797  -5.738  22.382  0.00  0.00    +0.000 A 
ATOM     23  C   UNL     1       7.646  -4.970  23.178  0.00  0.00    +0.004 A 
ENDBRANCH  17  18
ENDBRANCH  15  17
ENDBRANCH   5  15
TORSDOF 6
ENDMDL
MODEL 7
REMARK VINA RESULT:      -6.2      2.801      3.929
REMARK  Name = 
REMARK  7 active torsions:
REMARK  status: ('A' for Active; 'I' for Inactive)
REMARK    1  A    between atoms: C_1  and  N_2
REMARK    2  A    between atoms: C_4  and  C_13
REMARK    3  A    between atoms: C_6  and  C_7
REMARK    4  A    between atoms: C_8  and  C_9
REMARK    5  A    between atoms: N_11  and  O_12
REMARK    6  A    between atoms: C_13  and  C_15
REMARK    7  A    between atoms: C_15  and  C_16
REMARK                            x       y       z     vdW  Elec       q    Type
REMARK                         _______ _______ _______ _____ _____    ______ ____
ROOT
ATOM      1  C   UNL     1       8.470  -2.823  25.830  0.00  0.00    +0.149 C 
ATOM      2  N   UNL     1       8.632  -2.008  24.641  0.00  0.00    -0.349 N 
ATOM      3  C   UNL     1       8.126  -2.265  23.380  0.00  0.00    +0.042 A 
ATOM      4  C   UNL     1       8.503  -1.193  22.588  0.00  0.00    +0.038 A 
ATOM      5  C   UNL     1       9.301  -0.301  23.351  0.00  0.00    +0.036 A 
ATOM      6  C   UNL     1       9.352  -0.832  24.624  0.00  0.00    +0.097 A 
ENDROOT
BRANCH   3   7
ATOM      7  C   UNL     1       7.382  -3.445  23.094  0.00  0.00    +0.031 C 
ATOM      8  C   UNL     1       6.642  -3.523  21.976  0.00  0.00    +0.071 C 
BRANCH   8   9
ATOM      9  C   UNL     1       5.876  -4.748  21.652  0.00  0.00    +0.259 C 
ATOM     10  N   UNL     1       4.959  -5.083  22.615  0.00  0.00    -0.194 N 
ATOM     11  H   UNL     1       4.794  -4.583  23.481  0.00  0.00    +0.183 HD
ATOM     12  O   UNL     1       6.039  -5.399  20.627  0.00  0.00    -0.269 OA
BRANCH  10  13
ATOM     13  O   UNL     1       4.186  -6.241  22.385  0.00  0.00    -0.295 OA
ATOM     14  H   UNL     1       4.437  -6.482  21.468  0.00  0.00    +0.241 HD
ENDBRANCH  10  13
ENDBRANCH   8   9
ENDBRANCH   3   7
BRANCH   5  15
ATOM     15  C   UNL     1       9.928   0.919  22.845  0.00  0.00    +0.169 C 
ATOM     16  O   UNL     1       9.813   1.229  21.657  0.00  0.00    -0.292 OA
BRANCH  15  17
ATOM     17  C   UNL     1      10.791   1.750  23.773  0.00  0.00    +0.114 C 
BRANCH  17  18
ATOM     18  C   UNL     1      10.551   3.238  23.767  0.00  0.00    -0.040 A 
ATOM     19  C   UNL     1       9.284   3.801  23.972  0.00  0.00    +0.004 A 
ATOM     20  C   UNL     1       9.105   5.186  23.905  0.00  0.00    +0.000 A 
ATOM     21  C   UNL     1      10.183   6.019  23.613  0.00  0.00    +0.000 A 
ATOM     22  C   UNL     1      11.440   5.471  23.375  0.00  0.00    +0.000 A 
ATOM     23  C   UNL     1      11.621   4.089  23.446  0.00  0.00    +0.004 A 
ENDBRANCH  17  18
ENDBRANCH  15  17
ENDBRANCH   5  15
TORSDOF 6
ENDMDL
MODEL 8
REMARK VINA RESULT:      -6.1      3.323      7.420
REMARK  Name = 
REMARK  7 active torsions:
REMARK  status: ('A' for Active; 'I' for Inactive)
REMARK    1  A    between atoms: C_1  and  N_2
REMARK    2  A    between atoms: C_4  and  C_13
REMARK    3  A    between atoms: C_6  and  C_7
REMARK    4  A    between atoms: C_8  and  C_9
REMARK    5  A    between atoms: N_11  and  O_12
REMARK    6  A    between atoms: C_13  and  C_15
REMARK    7  A    between atoms: C_15  and  C_16
REMARK                            x       y       z     vdW  Elec       q    Type
REMARK                         _______ _______ _______ _____ _____    ______ ____
ROOT
ATOM      1  C   UNL     1       5.822   0.181  25.226  0.00  0.00    +0.149 C 
ATOM      2  N   UNL     1       6.437  -0.680  24.233  0.00  0.00    -0.349 N 
ATOM      3  C   UNL     1       7.637  -0.471  23.578  0.00  0.00    +0.042 A 
ATOM      4  C   UNL     1       7.827  -1.573  22.760  0.00  0.00    +0.038 A 
ATOM      5  C   UNL     1       6.704  -2.436  22.864  0.00  0.00    +0.036 A 
ATOM      6  C   UNL     1       5.866  -1.857  23.796  0.00  0.00    +0.097 A 
ENDROOT
BRANCH   3   7
ATOM      7  C   UNL     1       8.420   0.698  23.798  0.00  0.00    +0.031 C 
ATOM      8  C   UNL     1       8.441   1.678  22.880  0.00  0.00    +0.071 C 
BRANCH   8   9
ATOM      9  C   UNL     1       9.234   2.909  23.097  0.00  0.00    +0.259 C 
ATOM     10  N   UNL     1      10.514   2.821  22.613  0.00  0.00    -0.194 N 
ATOM     11  H   UNL     1      10.924   2.015  22.157  0.00  0.00    +0.183 HD
ATOM     12  O   UNL     1       8.795   3.910  23.652  0.00  0.00    -0.269 OA
BRANCH  10  13
ATOM     13  O   UNL     1      11.339   3.953  22.781  0.00  0.00    -0.295 OA
ATOM     14  H   UNL     1      11.981   3.855  22.045  0.00  0.00    +0.241 HD
ENDBRANCH  10  13
ENDBRANCH   8   9
ENDBRANCH   3   7
BRANCH   5  15
ATOM     15  C   UNL     1       6.516  -3.675  22.112  0.00  0.00    +0.169 C 
ATOM     16  O   UNL     1       5.736  -3.709  21.158  0.00  0.00    -0.292 OA
BRANCH  15  17
ATOM     17  C   UNL     1       7.219  -4.937  22.572  0.00  0.00    +0.114 C 
BRANCH  17  18
ATOM     18  C   UNL     1       7.411  -5.099  24.058  0.00  0.00    -0.040 A 
ATOM     19  C   UNL     1       6.352  -5.384  24.931  0.00  0.00    +0.004 A 
ATOM     20  C   UNL     1       6.574  -5.472  26.308  0.00  0.00    +0.000 A 
ATOM     21  C   UNL     1       7.849  -5.259  26.829  0.00  0.00    +0.000 A 
ATOM     22  C   UNL     1       8.902  -4.944  25.977  0.00  0.00    +0.000 A 
ATOM     23  C   UNL     1       8.684  -4.859  24.601  0.00  0.00    +0.004 A 
ENDBRANCH  17  18
ENDBRANCH  15  17
ENDBRANCH   5  15
TORSDOF 6
ENDMDL
MODEL 9
REMARK VINA RESULT:      -6.0      2.777      7.407
REMARK  Name = 
REMARK  7 active torsions:
REMARK  status: ('A' for Active; 'I' for Inactive)
REMARK    1  A    between atoms: C_1  and  N_2
REMARK    2  A    between atoms: C_4  and  C_13
REMARK    3  A    between atoms: C_6  and  C_7
REMARK    4  A    between atoms: C_8  and  C_9
REMARK    5  A    between atoms: N_11  and  O_12
REMARK    6  A    between atoms: C_13  and  C_15
REMARK    7  A    between atoms: C_15  and  C_16
REMARK                            x       y       z     vdW  Elec       q    Type
REMARK                         _______ _______ _______ _____ _____    ______ ____
ROOT
ATOM      1  C   UNL     1       6.155   0.488  26.301  0.00  0.00    +0.149 C 
ATOM      2  N   UNL     1       6.860  -0.780  26.303  0.00  0.00    -0.349 N 
ATOM      3  C   UNL     1       8.160  -1.011  25.895  0.00  0.00    +0.042 A 
ATOM      4  C   UNL     1       8.402  -2.357  26.118  0.00  0.00    +0.038 A 
ATOM      5  C   UNL     1       7.220  -2.972  26.608  0.00  0.00    +0.036 A 
ATOM      6  C   UNL     1       6.286  -1.962  26.722  0.00  0.00    +0.097 A 
ENDROOT
BRANCH   3   7
ATOM      7  C   UNL     1       8.978   0.027  25.363  0.00  0.00    +0.031 C 
ATOM      8  C   UNL     1       9.279   0.047  24.055  0.00  0.00    +0.071 C 
BRANCH   8   9
ATOM      9  C   UNL     1      10.111   1.127  23.479  0.00  0.00    +0.259 C 
ATOM     10  N   UNL     1       9.789   1.426  22.181  0.00  0.00    -0.194 N 
ATOM     11  H   UNL     1       9.071   0.974  21.626  0.00  0.00    +0.183 HD
ATOM     12  O   UNL     1      11.000   1.701  24.097  0.00  0.00    -0.269 OA
BRANCH  10  13
ATOM     13  O   UNL     1      10.536   2.445  21.555  0.00  0.00    -0.295 OA
ATOM     14  H   UNL     1      11.300   2.548  22.162  0.00  0.00    +0.241 HD
ENDBRANCH  10  13
ENDBRANCH   8   9
ENDBRANCH   3   7
BRANCH   5  15
ATOM     15  C   UNL     1       7.069  -4.394  26.912  0.00  0.00    +0.169 C 
ATOM     16  O   UNL     1       6.646  -4.752  28.013  0.00  0.00    -0.292 OA
BRANCH  15  17
ATOM     17  C   UNL     1       7.521  -5.423  25.894  0.00  0.00    +0.114 C 
BRANCH  17  18
ATOM     18  C   UNL     1       6.891  -5.342  24.527  0.00  0.00    -0.040 A 
ATOM     19  C   UNL     1       5.522  -5.551  24.311  0.00  0.00    +0.004 A 
ATOM     20  C   UNL     1       4.996  -5.516  23.016  0.00  0.00    +0.000 A 
ATOM     21  C   UNL     1       5.833  -5.292  21.924  0.00  0.00    +0.000 A 
ATOM     22  C   UNL     1       7.198  -5.114  22.122  0.00  0.00    +0.000 A 
ATOM     23  C   UNL     1       7.725  -5.144  23.414  0.00  0.00    +0.004 A 
ENDBRANCH  17  18
ENDBRANCH  15  17
ENDBRANCH   5  15
TORSDOF 6
ENDMDL
