MODEL 1
REMARK VINA RESULT:      -5.7      0.000      0.000
REMARK  Name = 
REMARK  8 active torsions:
REMARK  status: ('A' for Active; 'I' for Inactive)
REMARK    1  A    between atoms: C_1  and  N_2
REMARK    2  A    between atoms: N_2  and  C_3
REMARK    3  A    between atoms: N_2  and  C_4
REMARK    4  A    between atoms: N_2  and  C_5
REMARK    5  A    between atoms: C_9  and  C_11
REMARK    6  A    between atoms: C_11  and  O_12
REMARK    7  A    between atoms: C_11  and  O_13
REMARK    8  A    between atoms: C_11  and  C_14
REMARK                            x       y       z     vdW  Elec       q    Type
REMARK                         _______ _______ _______ _____ _____    ______ ____
ROOT
ATOM      1  C   UNL     1       8.709  -1.807  23.302  0.00  0.00    +0.146 A 
ATOM      2  C   UNL     1       7.657  -2.455  22.638  0.00  0.00    +0.083 A 
ATOM      3  C   UNL     1       7.265  -3.776  22.953  0.00  0.00    +0.050 A 
ATOM      4  C   UNL     1       8.001  -4.463  23.929  0.00  0.00    +0.012 A 
ATOM      5  C   UNL     1       9.067  -3.847  24.579  0.00  0.00    +0.007 A 
ATOM      6  C   UNL     1       9.421  -2.531  24.267  0.00  0.00    +0.072 A 
ENDROOT
BRANCH   1   8
ATOM      7  C   UNL     1       9.494  -0.332  21.427  0.00  0.00    +0.360 C 
ATOM      8  N   UNL     1       9.112  -0.395  22.909  0.00  0.00    -0.383 NA
ATOM      9  C   UNL     1       7.967   0.595  23.110  0.00  0.00    +0.360 C 
ATOM     10  C   UNL     1      10.299   0.007  23.774  0.00  0.00    +0.360 C 
ENDBRANCH   1   8
BRANCH   3  11
ATOM     11  C   UNL     1       6.130  -4.470  22.200  0.00  0.00    +0.364 C 
BRANCH  11  12
ATOM     12  C   UNL     1       6.541  -5.806  21.461  0.00  0.00    +0.473 C 
ATOM     13  F   UNL     1       5.793  -5.969  20.342  0.00  0.00    -0.163 F 
ATOM     14  F   UNL     1       6.283  -6.870  22.267  0.00  0.00    -0.163 F 
ATOM     15  F   UNL     1       7.841  -5.868  21.109  0.00  0.00    -0.163 F 
ENDBRANCH  11  12
BRANCH  11  16
ATOM     16  O   UNL     1       5.642  -3.468  21.293  0.00  0.00    -0.496 OA
ATOM     17  H   UNL     1       5.949  -3.707  20.397  0.00  0.00    +0.288 HD
ENDBRANCH  11  16
BRANCH  11  18
ATOM     18  O   UNL     1       5.060  -4.719  23.133  0.00  0.00    -0.496 OA
ATOM     19  H   UNL     1       4.971  -5.690  23.205  0.00  0.00    +0.288 HD
ENDBRANCH  11  18
ENDBRANCH   3  11
TORSDOF 5
ENDMDL
MODEL 2
REMARK VINA RESULT:      -5.5      3.710      5.372
REMARK  Name = 
REMARK  8 active torsions:
REMARK  status: ('A' for Active; 'I' for Inactive)
REMARK    1  A    between atoms: C_1  and  N_2
REMARK    2  A    between atoms: N_2  and  C_3
REMARK    3  A    between atoms: N_2  and  C_4
REMARK    4  A    between atoms: N_2  and  C_5
REMARK    5  A    between atoms: C_9  and  C_11
REMARK    6  A    between atoms: C_11  and  O_12
REMARK    7  A    between atoms: C_11  and  O_13
REMARK    8  A    between atoms: C_11  and  C_14
REMARK                            x       y       z     vdW  Elec       q    Type
REMARK                         _______ _______ _______ _____ _____    ______ ____
ROOT
ATOM      1  C   UNL     1       7.560  -3.536  23.329  0.00  0.00    +0.146 A 
ATOM      2  C   UNL     1       7.409  -2.193  22.957  0.00  0.00    +0.083 A 
ATOM      3  C   UNL     1       8.396  -1.218  23.227  0.00  0.00    +0.050 A 
ATOM      4  C   UNL     1       9.534  -1.618  23.942  0.00  0.00    +0.012 A 
ATOM      5  C   UNL     1       9.689  -2.941  24.348  0.00  0.00    +0.007 A 
ATOM      6  C   UNL     1       8.710  -3.893  24.047  0.00  0.00    +0.072 A 
ENDROOT
BRANCH   1   8
ATOM      7  C   UNL     1       5.161  -3.830  22.650  0.00  0.00    +0.360 C 
ATOM      8  N   UNL     1       6.459  -4.543  23.041  0.00  0.00    -0.383 NA
ATOM      9  C   UNL     1       6.824  -5.459  21.876  0.00  0.00    +0.360 C 
ATOM     10  C   UNL     1       6.244  -5.370  24.300  0.00  0.00    +0.360 C 
ENDBRANCH   1   8
BRANCH   3  11
ATOM     11  C   UNL     1       8.200   0.246  22.831  0.00  0.00    +0.364 C 
BRANCH  11  12
ATOM     12  C   UNL     1       8.980   0.693  21.531  0.00  0.00    +0.473 C 
ATOM     13  F   UNL     1       9.323  -0.394  20.796  0.00  0.00    -0.163 F 
ATOM     14  F   UNL     1      10.138   1.311  21.885  0.00  0.00    -0.163 F 
ATOM     15  F   UNL     1       8.294   1.538  20.736  0.00  0.00    -0.163 F 
ENDBRANCH  11  12
BRANCH  11  16
ATOM     16  O   UNL     1       8.602   0.984  23.996  0.00  0.00    -0.496 OA
ATOM     17  H   UNL     1       9.486   1.359  23.816  0.00  0.00    +0.288 HD
ENDBRANCH  11  16
BRANCH  11  18
ATOM     18  O   UNL     1       6.786   0.482  22.677  0.00  0.00    -0.496 OA
ATOM     19  H   UNL     1       6.507   0.002  21.872  0.00  0.00    +0.288 HD
ENDBRANCH  11  18
ENDBRANCH   3  11
TORSDOF 5
ENDMDL
MODEL 3
REMARK VINA RESULT:      -5.4      3.958      5.472
REMARK  Name = 
REMARK  8 active torsions:
REMARK  status: ('A' for Active; 'I' for Inactive)
REMARK    1  A    between atoms: C_1  and  N_2
REMARK    2  A    between atoms: N_2  and  C_3
REMARK    3  A    between atoms: N_2  and  C_4
REMARK    4  A    between atoms: N_2  and  C_5
REMARK    5  A    between atoms: C_9  and  C_11
REMARK    6  A    between atoms: C_11  and  O_12
REMARK    7  A    between atoms: C_11  and  O_13
REMARK    8  A    between atoms: C_11  and  C_14
REMARK                            x       y       z     vdW  Elec       q    Type
REMARK                         _______ _______ _______ _____ _____    ______ ____
ROOT
ATOM      1  C   UNL     1       7.252  -3.097  23.887  0.00  0.00    +0.146 A 
ATOM      2  C   UNL     1       8.196  -2.419  23.102  0.00  0.00    +0.083 A 
ATOM      3  C   UNL     1       9.001  -1.379  23.617  0.00  0.00    +0.050 A 
ATOM      4  C   UNL     1       8.795  -0.989  24.948  0.00  0.00    +0.012 A 
ATOM      5  C   UNL     1       7.842  -1.628  25.736  0.00  0.00    +0.007 A 
ATOM      6  C   UNL     1       7.074  -2.672  25.210  0.00  0.00    +0.072 A 
ENDROOT
BRANCH   1   8
ATOM      7  C   UNL     1       7.247  -5.180  22.485  0.00  0.00    +0.360 C 
ATOM      8  N   UNL     1       6.390  -4.191  23.280  0.00  0.00    -0.383 NA
ATOM      9  C   UNL     1       5.669  -5.002  24.355  0.00  0.00    +0.360 C 
ATOM     10  C   UNL     1       5.371  -3.527  22.366  0.00  0.00    +0.360 C 
ENDBRANCH   1   8
BRANCH   3  11
ATOM     11  C   UNL     1      10.008  -0.639  22.736  0.00  0.00    +0.364 C 
BRANCH  11  12
ATOM     12  C   UNL     1       9.373   0.401  21.730  0.00  0.00    +0.473 C 
ATOM     13  F   UNL     1      10.180   1.486  21.609  0.00  0.00    -0.163 F 
ATOM     14  F   UNL     1       8.187   0.846  22.222  0.00  0.00    -0.163 F 
ATOM     15  F   UNL     1       9.143  -0.089  20.496  0.00  0.00    -0.163 F 
ENDBRANCH  11  12
BRANCH  11  16
ATOM     16  O   UNL     1      10.726  -1.687  22.064  0.00  0.00    -0.496 OA
ATOM     17  H   UNL     1      11.042  -2.311  22.747  0.00  0.00    +0.288 HD
ENDBRANCH  11  16
BRANCH  11  18
ATOM     18  O   UNL     1      10.964   0.011  23.597  0.00  0.00    -0.496 OA
ATOM     19  H   UNL     1      11.616   0.448  23.014  0.00  0.00    +0.288 HD
ENDBRANCH  11  18
ENDBRANCH   3  11
TORSDOF 5
ENDMDL
MODEL 4
REMARK VINA RESULT:      -5.3      4.198      6.066
REMARK  Name = 
REMARK  8 active torsions:
REMARK  status: ('A' for Active; 'I' for Inactive)
REMARK    1  A    between atoms: C_1  and  N_2
REMARK    2  A    between atoms: N_2  and  C_3
REMARK    3  A    between atoms: N_2  and  C_4
REMARK    4  A    between atoms: N_2  and  C_5
REMARK    5  A    between atoms: C_9  and  C_11
REMARK    6  A    between atoms: C_11  and  O_12
REMARK    7  A    between atoms: C_11  and  O_13
REMARK    8  A    between atoms: C_11  and  C_14
REMARK                            x       y       z     vdW  Elec       q    Type
REMARK                         _______ _______ _______ _____ _____    ______ ____
ROOT
ATOM      1  C   UNL     1       4.938  -5.792  23.742  0.00  0.00    +0.146 A 
ATOM      2  C   UNL     1       6.009  -5.549  24.614  0.00  0.00    +0.083 A 
ATOM      3  C   UNL     1       7.324  -5.318  24.152  0.00  0.00    +0.050 A 
ATOM      4  C   UNL     1       7.555  -5.394  22.771  0.00  0.00    +0.012 A 
ATOM      5  C   UNL     1       6.511  -5.664  21.890  0.00  0.00    +0.007 A 
ATOM      6  C   UNL     1       5.214  -5.865  22.370  0.00  0.00    +0.072 A 
ENDROOT
BRANCH   1   8
ATOM      7  C   UNL     1       3.530  -7.346  25.123  0.00  0.00    +0.360 C 
ATOM      8  N   UNL     1       3.546  -6.062  24.289  0.00  0.00    -0.383 NA
ATOM      9  C   UNL     1       3.073  -4.937  25.206  0.00  0.00    +0.360 C 
ATOM     10  C   UNL     1       2.599  -6.195  23.105  0.00  0.00    +0.360 C 
ENDBRANCH   1   8
BRANCH   3  11
ATOM     11  C   UNL     1       8.480  -5.077  25.123  0.00  0.00    +0.364 C 
BRANCH  11  12
ATOM     12  C   UNL     1       8.786  -3.557  25.428  0.00  0.00    +0.473 C 
ATOM     13  F   UNL     1       9.030  -3.386  26.752  0.00  0.00    -0.163 F 
ATOM     14  F   UNL     1       7.695  -2.803  25.128  0.00  0.00    -0.163 F 
ATOM     15  F   UNL     1       9.830  -3.052  24.741  0.00  0.00    -0.163 F 
ENDBRANCH  11  12
BRANCH  11  16
ATOM     16  O   UNL     1       9.594  -5.753  24.520  0.00  0.00    -0.496 OA
ATOM     17  H   UNL     1       9.374  -5.904  23.580  0.00  0.00    +0.288 HD
ENDBRANCH  11  16
BRANCH  11  18
ATOM     18  O   UNL     1       8.194  -5.788  26.344  0.00  0.00    -0.496 OA
ATOM     19  H   UNL     1       7.564  -6.500  26.113  0.00  0.00    +0.288 HD
ENDBRANCH  11  18
ENDBRANCH   3  11
TORSDOF 5
ENDMDL
MODEL 5
REMARK VINA RESULT:      -5.3      1.558      2.202
REMARK  Name = 
REMARK  8 active torsions:
REMARK  status: ('A' for Active; 'I' for Inactive)
REMARK    1  A    between atoms: C_1  and  N_2
REMARK    2  A    between atoms: N_2  and  C_3
REMARK    3  A    between atoms: N_2  and  C_4
REMARK    4  A    between atoms: N_2  and  C_5
REMARK    5  A    between atoms: C_9  and  C_11
REMARK    6  A    between atoms: C_11  and  O_12
REMARK    7  A    between atoms: C_11  and  O_13
REMARK    8  A    between atoms: C_11  and  C_14
REMARK                            x       y       z     vdW  Elec       q    Type
REMARK                         _______ _______ _______ _____ _____    ______ ____
ROOT
ATOM      1  C   UNL     1       8.634  -2.518  23.513  0.00  0.00    +0.146 A 
ATOM      2  C   UNL     1       7.600  -3.196  22.851  0.00  0.00    +0.083 A 
ATOM      3  C   UNL     1       7.272  -4.540  23.137  0.00  0.00    +0.050 A 
ATOM      4  C   UNL     1       8.056  -5.218  24.081  0.00  0.00    +0.012 A 
ATOM      5  C   UNL     1       9.107  -4.573  24.728  0.00  0.00    +0.007 A 
ATOM      6  C   UNL     1       9.396  -3.234  24.445  0.00  0.00    +0.072 A 
ENDROOT
BRANCH   1   8
ATOM      7  C   UNL     1       9.853  -0.441  24.224  0.00  0.00    +0.360 C 
ATOM      8  N   UNL     1       8.967  -1.080  23.151  0.00  0.00    -0.383 NA
ATOM      9  C   UNL     1       9.738  -0.994  21.837  0.00  0.00    +0.360 C 
ATOM     10  C   UNL     1       7.656  -0.316  23.030  0.00  0.00    +0.360 C 
ENDBRANCH   1   8
BRANCH   3  11
ATOM     11  C   UNL     1       6.155  -5.265  22.387  0.00  0.00    +0.364 C 
BRANCH  11  12
ATOM     12  C   UNL     1       4.955  -5.755  23.291  0.00  0.00    +0.473 C 
ATOM     13  F   UNL     1       3.820  -5.843  22.553  0.00  0.00    -0.163 F 
ATOM     14  F   UNL     1       4.719  -4.841  24.270  0.00  0.00    -0.163 F 
ATOM     15  F   UNL     1       5.160  -6.946  23.888  0.00  0.00    -0.163 F 
ENDBRANCH  11  12
BRANCH  11  16
ATOM     16  O   UNL     1       6.823  -6.350  21.723  0.00  0.00    -0.496 OA
ATOM     17  H   UNL     1       6.671  -6.246  20.763  0.00  0.00    +0.288 HD
ENDBRANCH  11  16
BRANCH  11  18
ATOM     18  O   UNL     1       5.677  -4.392  21.344  0.00  0.00    -0.496 OA
ATOM     19  H   UNL     1       4.928  -4.851  20.915  0.00  0.00    +0.288 HD
ENDBRANCH  11  18
ENDBRANCH   3  11
TORSDOF 5
ENDMDL
MODEL 6
REMARK VINA RESULT:      -5.3      5.135      6.531
REMARK  Name = 
REMARK  8 active torsions:
REMARK  status: ('A' for Active; 'I' for Inactive)
REMARK    1  A    between atoms: C_1  and  N_2
REMARK    2  A    between atoms: N_2  and  C_3
REMARK    3  A    between atoms: N_2  and  C_4
REMARK    4  A    between atoms: N_2  and  C_5
REMARK    5  A    between atoms: C_9  and  C_11
REMARK    6  A    between atoms: C_11  and  O_12
REMARK    7  A    between atoms: C_11  and  O_13
REMARK    8  A    between atoms: C_11  and  C_14
REMARK                            x       y       z     vdW  Elec       q    Type
REMARK                         _______ _______ _______ _____ _____    ______ ____
ROOT
ATOM      1  C   UNL     1       8.252  -1.562  24.009  0.00  0.00    +0.146 A 
ATOM      2  C   UNL     1       8.270  -0.175  23.800  0.00  0.00    +0.083 A 
ATOM      3  C   UNL     1       9.161   0.441  22.893  0.00  0.00    +0.050 A 
ATOM      4  C   UNL     1      10.089  -0.375  22.230  0.00  0.00    +0.012 A 
ATOM      5  C   UNL     1      10.108  -1.750  22.446  0.00  0.00    +0.007 A 
ATOM      6  C   UNL     1       9.199  -2.340  23.331  0.00  0.00    +0.072 A 
ENDROOT
BRANCH   1   8
ATOM      7  C   UNL     1       7.317  -3.704  24.927  0.00  0.00    +0.360 C 
ATOM      8  N   UNL     1       7.292  -2.175  25.016  0.00  0.00    -0.383 NA
ATOM      9  C   UNL     1       7.673  -1.814  26.449  0.00  0.00    +0.360 C 
ATOM     10  C   UNL     1       5.897  -1.654  24.706  0.00  0.00    +0.360 C 
ENDBRANCH   1   8
BRANCH   3  11
ATOM     11  C   UNL     1       9.178   1.957  22.698  0.00  0.00    +0.364 C 
BRANCH  11  12
ATOM     12  C   UNL     1       9.988   2.760  23.792  0.00  0.00    +0.473 C 
ATOM     13  F   UNL     1      11.074   2.047  24.185  0.00  0.00    -0.163 F 
ATOM     14  F   UNL     1       9.213   2.935  24.896  0.00  0.00    -0.163 F 
ATOM     15  F   UNL     1      10.407   3.976  23.393  0.00  0.00    -0.163 F 
ENDBRANCH  11  12
BRANCH  11  16
ATOM     16  O   UNL     1       7.789   2.323  22.662  0.00  0.00    -0.496 OA
ATOM     17  H   UNL     1       7.510   2.326  21.725  0.00  0.00    +0.288 HD
ENDBRANCH  11  16
BRANCH  11  18
ATOM     18  O   UNL     1       9.698   2.233  21.382  0.00  0.00    -0.496 OA
ATOM     19  H   UNL     1       8.935   2.229  20.772  0.00  0.00    +0.288 HD
ENDBRANCH  11  18
ENDBRANCH   3  11
TORSDOF 5
ENDMDL
MODEL 7
REMARK VINA RESULT:      -5.3      4.054      5.588
REMARK  Name = 
REMARK  8 active torsions:
REMARK  status: ('A' for Active; 'I' for Inactive)
REMARK    1  A    between atoms: C_1  and  N_2
REMARK    2  A    between atoms: N_2  and  C_3
REMARK    3  A    between atoms: N_2  and  C_4
REMARK    4  A    between atoms: N_2  and  C_5
REMARK    5  A    between atoms: C_9  and  C_11
REMARK    6  A    between atoms: C_11  and  O_12
REMARK    7  A    between atoms: C_11  and  O_13
REMARK    8  A    between atoms: C_11  and  C_14
REMARK                            x       y       z     vdW  Elec       q    Type
REMARK                         _______ _______ _______ _____ _____    ______ ____
ROOT
ATOM      1  C   UNL     1       6.914  -3.815  24.661  0.00  0.00    +0.146 A 
ATOM      2  C   UNL     1       8.122  -3.168  24.362  0.00  0.00    +0.083 A 
ATOM      3  C   UNL     1       8.309  -2.427  23.173  0.00  0.00    +0.050 A 
ATOM      4  C   UNL     1       7.255  -2.397  22.248  0.00  0.00    +0.012 A 
ATOM      5  C   UNL     1       6.059  -3.058  22.512  0.00  0.00    +0.007 A 
ATOM      6  C   UNL     1       5.889  -3.764  23.707  0.00  0.00    +0.072 A 
ENDROOT
BRANCH   1   8
ATOM      7  C   UNL     1       6.267  -3.739  27.087  0.00  0.00    +0.360 C 
ATOM      8  N   UNL     1       6.770  -4.623  25.941  0.00  0.00    -0.383 NA
ATOM      9  C   UNL     1       5.756  -5.753  25.782  0.00  0.00    +0.360 C 
ATOM     10  C   UNL     1       8.136  -5.199  26.283  0.00  0.00    +0.360 C 
ENDBRANCH   1   8
BRANCH   3  11
ATOM     11  C   UNL     1       9.642  -1.749  22.859  0.00  0.00    +0.364 C 
BRANCH  11  12
ATOM     12  C   UNL     1       9.833  -0.322  23.512  0.00  0.00    +0.473 C 
ATOM     13  F   UNL     1      10.504   0.494  22.662  0.00  0.00    -0.163 F 
ATOM     14  F   UNL     1      10.593  -0.433  24.634  0.00  0.00    -0.163 F 
ATOM     15  F   UNL     1       8.683   0.288  23.859  0.00  0.00    -0.163 F 
ENDBRANCH  11  12
BRANCH  11  16
ATOM     16  O   UNL     1       9.687  -1.707  21.423  0.00  0.00    -0.496 OA
ATOM     17  H   UNL     1      10.587  -1.427  21.164  0.00  0.00    +0.288 HD
ENDBRANCH  11  16
BRANCH  11  18
ATOM     18  O   UNL     1      10.703  -2.636  23.266  0.00  0.00    -0.496 OA
ATOM     19  H   UNL     1      11.081  -2.263  24.086  0.00  0.00    +0.288 HD
ENDBRANCH  11  18
ENDBRANCH   3  11
TORSDOF 5
ENDMDL
MODEL 8
REMARK VINA RESULT:      -5.2      5.010      6.511
REMARK  Name = 
REMARK  8 active torsions:
REMARK  status: ('A' for Active; 'I' for Inactive)
REMARK    1  A    between atoms: C_1  and  N_2
REMARK    2  A    between atoms: N_2  and  C_3
REMARK    3  A    between atoms: N_2  and  C_4
REMARK    4  A    between atoms: N_2  and  C_5
REMARK    5  A    between atoms: C_9  and  C_11
REMARK    6  A    between atoms: C_11  and  O_12
REMARK    7  A    between atoms: C_11  and  O_13
REMARK    8  A    between atoms: C_11  and  C_14
REMARK                            x       y       z     vdW  Elec       q    Type
REMARK                         _______ _______ _______ _____ _____    ______ ____
ROOT
ATOM      1  C   UNL     1       7.617  -1.852  23.250  0.00  0.00    +0.146 A 
ATOM      2  C   UNL     1       8.026  -0.775  24.051  0.00  0.00    +0.083 A 
ATOM      3  C   UNL     1       9.168   0.000  23.748  0.00  0.00    +0.050 A 
ATOM      4  C   UNL     1       9.936  -0.370  22.635  0.00  0.00    +0.012 A 
ATOM      5  C   UNL     1       9.563  -1.454  21.845  0.00  0.00    +0.007 A 
ATOM      6  C   UNL     1       8.415  -2.192  22.150  0.00  0.00    +0.072 A 
ENDROOT
BRANCH   1   8
ATOM      7  C   UNL     1       5.583  -3.046  22.389  0.00  0.00    +0.360 C 
ATOM      8  N   UNL     1       6.397  -2.674  23.632  0.00  0.00    -0.383 NA
ATOM      9  C   UNL     1       6.790  -3.985  24.307  0.00  0.00    +0.360 C 
ATOM     10  C   UNL     1       5.552  -1.838  24.582  0.00  0.00    +0.360 C 
ENDBRANCH   1   8
BRANCH   3  11
ATOM     11  C   UNL     1       9.608   1.156  24.648  0.00  0.00    +0.364 C 
BRANCH  11  12
ATOM     12  C   UNL     1       9.784   2.543  23.911  0.00  0.00    +0.473 C 
ATOM     13  F   UNL     1      11.098   2.774  23.662  0.00  0.00    -0.163 F 
ATOM     14  F   UNL     1       9.355   3.547  24.721  0.00  0.00    -0.163 F 
ATOM     15  F   UNL     1       9.113   2.642  22.747  0.00  0.00    -0.163 F 
ENDBRANCH  11  12
BRANCH  11  16
ATOM     16  O   UNL     1      10.828   0.691  25.248  0.00  0.00    -0.496 OA
ATOM     17  H   UNL     1      11.568   1.146  24.799  0.00  0.00    +0.288 HD
ENDBRANCH  11  16
BRANCH  11  18
ATOM     18  O   UNL     1       8.655   1.273  25.723  0.00  0.00    -0.496 OA
ATOM     19  H   UNL     1       7.768   1.165  25.325  0.00  0.00    +0.288 HD
ENDBRANCH  11  18
ENDBRANCH   3  11
TORSDOF 5
ENDMDL
MODEL 9
REMARK VINA RESULT:      -5.2      3.041      3.975
REMARK  Name = 
REMARK  8 active torsions:
REMARK  status: ('A' for Active; 'I' for Inactive)
REMARK    1  A    between atoms: C_1  and  N_2
REMARK    2  A    between atoms: N_2  and  C_3
REMARK    3  A    between atoms: N_2  and  C_4
REMARK    4  A    between atoms: N_2  and  C_5
REMARK    5  A    between atoms: C_9  and  C_11
REMARK    6  A    between atoms: C_11  and  O_12
REMARK    7  A    between atoms: C_11  and  O_13
REMARK    8  A    between atoms: C_11  and  C_14
REMARK                            x       y       z     vdW  Elec       q    Type
REMARK                         _______ _______ _______ _____ _____    ______ ____
ROOT
ATOM      1  C   UNL     1       8.728  -0.317  23.660  0.00  0.00    +0.146 A 
ATOM      2  C   UNL     1       9.183  -1.561  24.123  0.00  0.00    +0.083 A 
ATOM      3  C   UNL     1       8.372  -2.718  24.100  0.00  0.00    +0.050 A 
ATOM      4  C   UNL     1       7.052  -2.584  23.646  0.00  0.00    +0.012 A 
ATOM      5  C   UNL     1       6.572  -1.353  23.210  0.00  0.00    +0.007 A 
ATOM      6  C   UNL     1       7.401  -0.227  23.220  0.00  0.00    +0.072 A 
ENDROOT
BRANCH   1   8
ATOM      7  C   UNL     1       8.913   2.066  24.428  0.00  0.00    +0.360 C 
ATOM      8  N   UNL     1       9.628   0.906  23.731  0.00  0.00    -0.383 NA
ATOM      9  C   UNL     1      10.897   0.626  24.533  0.00  0.00    +0.360 C 
ATOM     10  C   UNL     1       9.994   1.296  22.306  0.00  0.00    +0.360 C 
ENDBRANCH   1   8
BRANCH   3  11
ATOM     11  C   UNL     1       8.882  -4.059  24.631  0.00  0.00    +0.364 C 
BRANCH  11  12
ATOM     12  C   UNL     1       8.503  -4.366  26.134  0.00  0.00    +0.473 C 
ATOM     13  F   UNL     1       7.604  -5.381  26.190  0.00  0.00    -0.163 F 
ATOM     14  F   UNL     1       7.902  -3.278  26.685  0.00  0.00    -0.163 F 
ATOM     15  F   UNL     1       9.551  -4.691  26.916  0.00  0.00    -0.163 F 
ENDBRANCH  11  12
BRANCH  11  16
ATOM     16  O   UNL     1      10.302  -4.004  24.421  0.00  0.00    -0.496 OA
ATOM     17  H   UNL     1      10.734  -4.183  25.280  0.00  0.00    +0.288 HD
ENDBRANCH  11  16
BRANCH  11  18
ATOM     18  O   UNL     1       8.390  -5.099  23.764  0.00  0.00    -0.496 OA
ATOM     19  H   UNL     1       8.539  -4.794  22.847  0.00  0.00    +0.288 HD
ENDBRANCH  11  18
ENDBRANCH   3  11
TORSDOF 5
ENDMDL
