MODEL 1
REMARK VINA RESULT:      -4.5      0.000      0.000
REMARK  Name = 
REMARK  1 active torsions:
REMARK  status: ('A' for Active; 'I' for Inactive)
REMARK    1  A    between atoms: C_1  and  N_2
REMARK                            x       y       z     vdW  Elec       q    Type
REMARK                         _______ _______ _______ _____ _____    ______ ____
ROOT
ATOM      1  C   UNL     1       7.015   0.422  23.067  0.00  0.00    +0.105 C 
ATOM      2  N   UNL     1       8.221   1.231  23.082  0.00  0.00    -0.299 NA
ATOM      3  C   UNL     1       9.203   0.898  24.116  0.00  0.00    +0.064 C 
ATOM      4  C   UNL     1       9.702  -0.546  24.024  0.00  0.00    +0.093 C 
ATOM      5  C   UNL     1      10.070  -0.946  22.610  0.00  0.00    +0.136 C 
ATOM      6  C   UNL     1       9.484  -0.173  21.445  0.00  0.00    +0.093 C 
ATOM      7  O   UNL     1      10.746  -1.958  22.407  0.00  0.00    -0.297 OA
ATOM      8  C   UNL     1      10.319   1.893  23.771  0.00  0.00    +0.021 C 
ATOM      9  C   UNL     1      10.186   2.112  22.262  0.00  0.00    +0.021 C 
ATOM     10  C   UNL     1       9.008   1.224  21.843  0.00  0.00    +0.064 C 
ENDROOT
TORSDOF 0
ENDMDL
MODEL 2
REMARK VINA RESULT:      -4.3      0.957      1.421
REMARK  Name = 
REMARK  1 active torsions:
REMARK  status: ('A' for Active; 'I' for Inactive)
REMARK    1  A    between atoms: C_1  and  N_2
REMARK                            x       y       z     vdW  Elec       q    Type
REMARK                         _______ _______ _______ _____ _____    ______ ____
ROOT
ATOM      1  C   UNL     1       8.090   0.706  25.047  0.00  0.00    +0.105 C 
ATOM      2  N   UNL     1       8.524   1.195  23.750  0.00  0.00    -0.299 NA
ATOM      3  C   UNL     1       9.972   1.273  23.548  0.00  0.00    +0.064 C 
ATOM      4  C   UNL     1      10.674  -0.077  23.711  0.00  0.00    +0.093 C 
ATOM      5  C   UNL     1       9.963  -1.195  22.975  0.00  0.00    +0.136 C 
ATOM      6  C   UNL     1       8.498  -1.035  22.621  0.00  0.00    +0.093 C 
ATOM      7  O   UNL     1      10.538  -2.267  22.769  0.00  0.00    -0.297 OA
ATOM      8  C   UNL     1      10.025   1.752  22.090  0.00  0.00    +0.021 C 
ATOM      9  C   UNL     1       8.749   1.194  21.456  0.00  0.00    +0.021 C 
ATOM     10  C   UNL     1       8.054   0.428  22.591  0.00  0.00    +0.064 C 
ENDROOT
TORSDOF 0
ENDMDL
MODEL 3
REMARK VINA RESULT:      -4.3      1.718      3.021
REMARK  Name = 
REMARK  1 active torsions:
REMARK  status: ('A' for Active; 'I' for Inactive)
REMARK    1  A    between atoms: C_1  and  N_2
REMARK                            x       y       z     vdW  Elec       q    Type
REMARK                         _______ _______ _______ _____ _____    ______ ____
ROOT
ATOM      1  C   UNL     1       7.070   0.933  22.722  0.00  0.00    +0.105 C 
ATOM      2  N   UNL     1       8.158  -0.022  22.839  0.00  0.00    -0.299 NA
ATOM      3  C   UNL     1       9.247   0.129  21.873  0.00  0.00    +0.064 C 
ATOM      4  C   UNL     1       9.923   1.500  21.941  0.00  0.00    +0.093 C 
ATOM      5  C   UNL     1      10.235   1.925  23.361  0.00  0.00    +0.136 C 
ATOM      6  C   UNL     1       9.470   1.296  24.508  0.00  0.00    +0.093 C 
ATOM      7  O   UNL     1      11.021   2.853  23.574  0.00  0.00    -0.297 OA
ATOM      8  C   UNL     1      10.196  -0.980  22.348  0.00  0.00    +0.021 C 
ATOM      9  C   UNL     1       9.926  -1.100  23.849  0.00  0.00    +0.021 C 
ATOM     10  C   UNL     1       8.846  -0.049  24.135  0.00  0.00    +0.064 C 
ENDROOT
TORSDOF 0
ENDMDL
MODEL 4
REMARK VINA RESULT:      -4.1      2.085      3.003
REMARK  Name = 
REMARK  1 active torsions:
REMARK  status: ('A' for Active; 'I' for Inactive)
REMARK    1  A    between atoms: C_1  and  N_2
REMARK                            x       y       z     vdW  Elec       q    Type
REMARK                         _______ _______ _______ _____ _____    ______ ____
ROOT
ATOM      1  C   UNL     1       8.544  -2.218  22.556  0.00  0.00    +0.105 C 
ATOM      2  N   UNL     1       9.248  -1.287  23.420  0.00  0.00    -0.299 NA
ATOM      3  C   UNL     1      10.210  -0.402  22.758  0.00  0.00    +0.064 C 
ATOM      4  C   UNL     1       9.573   0.473  21.676  0.00  0.00    +0.093 C 
ATOM      5  C   UNL     1       8.285   1.124  22.138  0.00  0.00    +0.136 C 
ATOM      6  C   UNL     1       7.523   0.518  23.299  0.00  0.00    +0.093 C 
ATOM      7  O   UNL     1       7.804   2.067  21.504  0.00  0.00    -0.297 OA
ATOM      8  C   UNL     1      10.677   0.443  23.951  0.00  0.00    +0.021 C 
ATOM      9  C   UNL     1       9.477   0.464  24.901  0.00  0.00    +0.021 C 
ATOM     10  C   UNL     1       8.402  -0.365  24.186  0.00  0.00    +0.064 C 
ENDROOT
TORSDOF 0
ENDMDL
MODEL 5
REMARK VINA RESULT:      -4.0      1.556      2.287
REMARK  Name = 
REMARK  1 active torsions:
REMARK  status: ('A' for Active; 'I' for Inactive)
REMARK    1  A    between atoms: C_1  and  N_2
REMARK                            x       y       z     vdW  Elec       q    Type
REMARK                         _______ _______ _______ _____ _____    ______ ____
ROOT
ATOM      1  C   UNL     1       9.378  -0.012  25.295  0.00  0.00    +0.105 C 
ATOM      2  N   UNL     1       9.311   0.587  23.973  0.00  0.00    -0.299 NA
ATOM      3  C   UNL     1      10.167  -0.021  22.952  0.00  0.00    +0.064 C 
ATOM      4  C   UNL     1       9.868  -1.505  22.726  0.00  0.00    +0.093 C 
ATOM      5  C   UNL     1       8.385  -1.787  22.598  0.00  0.00    +0.136 C 
ATOM      6  C   UNL     1       7.390  -0.797  23.171  0.00  0.00    +0.093 C 
ATOM      7  O   UNL     1       7.994  -2.863  22.137  0.00  0.00    -0.297 OA
ATOM      8  C   UNL     1       9.776   0.816  21.727  0.00  0.00    +0.021 C 
ATOM      9  C   UNL     1       8.327   1.233  21.992  0.00  0.00    +0.021 C 
ATOM     10  C   UNL     1       7.984   0.601  23.348  0.00  0.00    +0.064 C 
ENDROOT
TORSDOF 0
ENDMDL
MODEL 6
REMARK VINA RESULT:      -3.9      2.517      3.502
REMARK  Name = 
REMARK  1 active torsions:
REMARK  status: ('A' for Active; 'I' for Inactive)
REMARK    1  A    between atoms: C_1  and  N_2
REMARK                            x       y       z     vdW  Elec       q    Type
REMARK                         _______ _______ _______ _____ _____    ______ ____
ROOT
ATOM      1  C   UNL     1      10.475   0.267  24.874  0.00  0.00    +0.105 C 
ATOM      2  N   UNL     1       9.580   0.459  23.746  0.00  0.00    -0.299 NA
ATOM      3  C   UNL     1       8.301   1.105  24.046  0.00  0.00    +0.064 C 
ATOM      4  C   UNL     1       8.462   2.498  24.658  0.00  0.00    +0.093 C 
ATOM      5  C   UNL     1       9.472   3.347  23.915  0.00  0.00    +0.136 C 
ATOM      6  C   UNL     1      10.521   2.669  23.055  0.00  0.00    +0.093 C 
ATOM      7  O   UNL     1       9.513   4.567  24.097  0.00  0.00    -0.297 OA
ATOM      8  C   UNL     1       7.692   1.185  22.639  0.00  0.00    +0.021 C 
ATOM      9  C   UNL     1       8.899   1.281  21.703  0.00  0.00    +0.021 C 
ATOM     10  C   UNL     1      10.117   1.255  22.636  0.00  0.00    +0.064 C 
ENDROOT
TORSDOF 0
ENDMDL
MODEL 7
REMARK VINA RESULT:      -3.9      5.248      6.456
REMARK  Name = 
REMARK  1 active torsions:
REMARK  status: ('A' for Active; 'I' for Inactive)
REMARK    1  A    between atoms: C_1  and  N_2
REMARK                            x       y       z     vdW  Elec       q    Type
REMARK                         _______ _______ _______ _____ _____    ______ ____
ROOT
ATOM      1  C   UNL     1       5.797  -5.156  25.156  0.00  0.00    +0.105 C 
ATOM      2  N   UNL     1       6.088  -5.574  23.796  0.00  0.00    -0.299 NA
ATOM      3  C   UNL     1       5.266  -4.964  22.749  0.00  0.00    +0.064 C 
ATOM      4  C   UNL     1       5.369  -3.438  22.719  0.00  0.00    +0.093 C 
ATOM      5  C   UNL     1       6.801  -2.949  22.803  0.00  0.00    +0.136 C 
ATOM      6  C   UNL     1       7.863  -3.862  23.383  0.00  0.00    +0.093 C 
ATOM      7  O   UNL     1       7.078  -1.783  22.510  0.00  0.00    -0.297 OA
ATOM      8  C   UNL     1       5.901  -5.587  21.498  0.00  0.00    +0.021 C 
ATOM      9  C   UNL     1       7.358  -5.838  21.891  0.00  0.00    +0.021 C 
ATOM     10  C   UNL     1       7.462  -5.337  23.338  0.00  0.00    +0.064 C 
ENDROOT
TORSDOF 0
ENDMDL
MODEL 8
REMARK VINA RESULT:      -3.9      2.543      3.126
REMARK  Name = 
REMARK  1 active torsions:
REMARK  status: ('A' for Active; 'I' for Inactive)
REMARK    1  A    between atoms: C_1  and  N_2
REMARK                            x       y       z     vdW  Elec       q    Type
REMARK                         _______ _______ _______ _____ _____    ______ ____
ROOT
ATOM      1  C   UNL     1       7.857  -0.648  25.118  0.00  0.00    +0.105 C 
ATOM      2  N   UNL     1       8.680  -0.748  23.926  0.00  0.00    -0.299 NA
ATOM      3  C   UNL     1       9.804  -1.683  24.001  0.00  0.00    +0.064 C 
ATOM      4  C   UNL     1       9.370  -3.120  24.298  0.00  0.00    +0.093 C 
ATOM      5  C   UNL     1       8.199  -3.562  23.444  0.00  0.00    +0.136 C 
ATOM      6  C   UNL     1       7.300  -2.514  22.818  0.00  0.00    +0.093 C 
ATOM      7  O   UNL     1       7.913  -4.759  23.353  0.00  0.00    -0.297 OA
ATOM      8  C   UNL     1      10.367  -1.557  22.578  0.00  0.00    +0.021 C 
ATOM      9  C   UNL     1       9.155  -1.198  21.716  0.00  0.00    +0.021 C 
ATOM     10  C   UNL     1       7.979  -1.149  22.700  0.00  0.00    +0.064 C 
ENDROOT
TORSDOF 0
ENDMDL
MODEL 9
REMARK VINA RESULT:      -3.9      2.092      3.210
REMARK  Name = 
REMARK  1 active torsions:
REMARK  status: ('A' for Active; 'I' for Inactive)
REMARK    1  A    between atoms: C_1  and  N_2
REMARK                            x       y       z     vdW  Elec       q    Type
REMARK                         _______ _______ _______ _____ _____    ______ ____
ROOT
ATOM      1  C   UNL     1       7.430  -1.637  24.694  0.00  0.00    +0.105 C 
ATOM      2  N   UNL     1       8.358  -1.617  23.576  0.00  0.00    -0.299 NA
ATOM      3  C   UNL     1       8.154  -0.550  22.595  0.00  0.00    +0.064 C 
ATOM      4  C   UNL     1       8.246   0.851  23.205  0.00  0.00    +0.093 C 
ATOM      5  C   UNL     1       9.446   1.011  24.116  0.00  0.00    +0.136 C 
ATOM      6  C   UNL     1      10.091  -0.222  24.717  0.00  0.00    +0.093 C 
ATOM      7  O   UNL     1       9.823   2.136  24.456  0.00  0.00    -0.297 OA
ATOM      8  C   UNL     1       9.328  -0.818  21.644  0.00  0.00    +0.021 C 
ATOM      9  C   UNL     1      10.404  -1.449  22.530  0.00  0.00    +0.021 C 
ATOM     10  C   UNL     1       9.777  -1.495  23.930  0.00  0.00    +0.064 C 
ENDROOT
TORSDOF 0
ENDMDL
