MODEL 1
REMARK VINA RESULT:      -6.9      0.000      0.000
REMARK  Name = 
REMARK  9 active torsions:
REMARK  status: ('A' for Active; 'I' for Inactive)
REMARK    1  A    between atoms: C_4  and  C_26
REMARK    2  A    between atoms: C_5  and  C_15
REMARK    3  A    between atoms: C_9  and  C_11
REMARK    4  A    between atoms: C_11  and  C_13
REMARK    5  A    between atoms: C_11  and  O_14
REMARK    6  A    between atoms: C_15  and  O_17
REMARK    7  A    between atoms: O_17  and  C_18
REMARK    8  A    between atoms: C_18  and  C_19
REMARK    9  A    between atoms: C_20  and  C_21
REMARK                            x       y       z     vdW  Elec       q    Type
REMARK                         _______ _______ _______ _____ _____    ______ ____
ROOT
ATOM      1  C   UNL     1       9.314   0.421  24.704  0.00  0.00    +0.158 C 
ATOM      2  C   UNL     1       8.732   0.933  23.375  0.00  0.00    +0.135 C 
ATOM      3  C   UNL     1       9.136  -0.440  22.826  0.00  0.00    +0.229 C 
ATOM      4  O   UNL     1       8.989  -0.998  21.762  0.00  0.00    -0.275 OA
ATOM      5  N   UNL     1       9.519  -0.892  24.066  0.00  0.00    -0.251 N 
ATOM      6  C   UNL     1       8.804  -1.940  24.670  0.00  0.00    +0.134 C 
ATOM      7  C   UNL     1       7.970  -1.571  25.675  0.00  0.00    +0.044 C 
ATOM      8  S   UNL     1       8.109   0.165  26.025  0.00  0.00    -0.101 S 
ENDROOT
BRANCH   7   9
ATOM      9  C   UNL     1       6.970  -2.337  26.528  0.00  0.00    +0.157 C 
ATOM     10  O   UNL     1       7.391  -3.670  26.825  0.00  0.00    -0.371 OA
ATOM     11  C   UNL     1       6.246  -4.490  27.076  0.00  0.00    +0.161 C 
ATOM     12  C   UNL     1       5.023  -3.709  26.655  0.00  0.00    +0.031 C 
ATOM     13  C   UNL     1       5.600  -2.554  25.879  0.00  0.00    +0.039 C 
ENDBRANCH   7   9
BRANCH   2  14
ATOM     14  C   UNL     1       9.405   2.160  22.791  0.00  0.00    +0.126 C 
ATOM     15  C   UNL     1      10.650   2.538  23.582  0.00  0.00    +0.038 C 
BRANCH  14  16
ATOM     16  O   UNL     1       9.780   1.842  21.449  0.00  0.00    -0.391 OA
ATOM     17  H   UNL     1      10.658   1.421  21.463  0.00  0.00    +0.210 HD
ENDBRANCH  14  16
ENDBRANCH   2  14
BRANCH   6  18
ATOM     18  C   UNL     1       9.118  -3.310  24.118  0.00  0.00    +0.355 C 
ATOM     19  O   UNL     1      10.087  -3.972  24.480  0.00  0.00    -0.243 OA
BRANCH  18  20
ATOM     20  O   UNL     1       8.173  -3.776  23.277  0.00  0.00    -0.452 OA
BRANCH  20  21
ATOM     21  C   UNL     1       7.629  -5.077  23.554  0.00  0.00    +0.310 C 
BRANCH  21  22
ATOM     22  C   UNL     1       6.150  -5.120  23.330  0.00  0.00    +0.187 A 
ATOM     23  O   UNL     1       5.457  -6.225  23.796  0.00  0.00    -0.392 OA
ATOM     24  C   UNL     1       4.167  -5.944  23.380  0.00  0.00    +0.521 A 
ATOM     25  O   UNL     1       3.219  -6.693  23.584  0.00  0.00    -0.202 OA
ATOM     26  O   UNL     1       4.046  -4.749  22.687  0.00  0.00    -0.396 OA
ATOM     27  C   UNL     1       5.351  -4.290  22.693  0.00  0.00    +0.151 A 
ATOM     28  C   UNL     1       5.622  -3.010  21.996  0.00  0.00    +0.090 C 
ENDBRANCH  21  22
ENDBRANCH  20  21
ENDBRANCH  18  20
ENDBRANCH   6  18
TORSDOF 7
ENDMDL
MODEL 2
REMARK VINA RESULT:      -6.9      1.621      2.282
REMARK  Name = 
REMARK  9 active torsions:
REMARK  status: ('A' for Active; 'I' for Inactive)
REMARK    1  A    between atoms: C_4  and  C_26
REMARK    2  A    between atoms: C_5  and  C_15
REMARK    3  A    between atoms: C_9  and  C_11
REMARK    4  A    between atoms: C_11  and  C_13
REMARK    5  A    between atoms: C_11  and  O_14
REMARK    6  A    between atoms: C_15  and  O_17
REMARK    7  A    between atoms: O_17  and  C_18
REMARK    8  A    between atoms: C_18  and  C_19
REMARK    9  A    between atoms: C_20  and  C_21
REMARK                            x       y       z     vdW  Elec       q    Type
REMARK                         _______ _______ _______ _____ _____    ______ ____
ROOT
ATOM      1  C   UNL     1       9.238   0.791  24.563  0.00  0.00    +0.158 C 
ATOM      2  C   UNL     1       8.863   1.316  23.166  0.00  0.00    +0.135 C 
ATOM      3  C   UNL     1       9.311  -0.065  22.675  0.00  0.00    +0.229 C 
ATOM      4  O   UNL     1       9.305  -0.619  21.599  0.00  0.00    -0.275 OA
ATOM      5  N   UNL     1       9.503  -0.526  23.956  0.00  0.00    -0.251 N 
ATOM      6  C   UNL     1       8.687  -1.559  24.447  0.00  0.00    +0.134 C 
ATOM      7  C   UNL     1       7.726  -1.171  25.324  0.00  0.00    +0.044 C 
ATOM      8  S   UNL     1       7.851   0.560  25.698  0.00  0.00    -0.101 S 
ENDROOT
BRANCH   7   9
ATOM      9  C   UNL     1       6.598  -1.916  26.024  0.00  0.00    +0.157 C 
ATOM     10  O   UNL     1       5.472  -2.154  25.177  0.00  0.00    -0.371 OA
ATOM     11  C   UNL     1       4.291  -2.286  25.973  0.00  0.00    +0.161 C 
ATOM     12  C   UNL     1       4.634  -1.842  27.376  0.00  0.00    +0.031 C 
ATOM     13  C   UNL     1       5.974  -1.174  27.210  0.00  0.00    +0.039 C 
ENDBRANCH   7   9
BRANCH   2  14
ATOM     14  C   UNL     1       9.639   2.529  22.689  0.00  0.00    +0.126 C 
ATOM     15  C   UNL     1      10.791   2.854  23.631  0.00  0.00    +0.038 C 
BRANCH  14  16
ATOM     16  O   UNL     1      10.163   2.216  21.397  0.00  0.00    -0.391 OA
ATOM     17  H   UNL     1       9.424   2.163  20.765  0.00  0.00    +0.210 HD
ENDBRANCH  14  16
ENDBRANCH   2  14
BRANCH   6  18
ATOM     18  C   UNL     1       9.046  -2.935  23.941  0.00  0.00    +0.355 C 
ATOM     19  O   UNL     1      10.148  -3.447  24.117  0.00  0.00    -0.243 OA
BRANCH  18  20
ATOM     20  O   UNL     1       8.008  -3.584  23.377  0.00  0.00    -0.452 OA
BRANCH  20  21
ATOM     21  C   UNL     1       7.903  -4.996  23.621  0.00  0.00    +0.310 C 
BRANCH  21  22
ATOM     22  C   UNL     1       7.161  -5.289  24.887  0.00  0.00    +0.187 A 
ATOM     23  O   UNL     1       7.893  -5.393  26.058  0.00  0.00    -0.392 OA
ATOM     24  C   UNL     1       6.908  -5.706  26.978  0.00  0.00    +0.521 A 
ATOM     25  O   UNL     1       7.139  -5.900  28.166  0.00  0.00    -0.202 OA
ATOM     26  O   UNL     1       5.638  -5.809  26.433  0.00  0.00    -0.396 OA
ATOM     27  C   UNL     1       5.884  -5.536  25.099  0.00  0.00    +0.151 A 
ATOM     28  C   UNL     1       4.729  -5.586  24.172  0.00  0.00    +0.090 C 
ENDBRANCH  21  22
ENDBRANCH  20  21
ENDBRANCH  18  20
ENDBRANCH   6  18
TORSDOF 7
ENDMDL
MODEL 3
REMARK VINA RESULT:      -6.9      1.971      6.327
REMARK  Name = 
REMARK  9 active torsions:
REMARK  status: ('A' for Active; 'I' for Inactive)
REMARK    1  A    between atoms: C_4  and  C_26
REMARK    2  A    between atoms: C_5  and  C_15
REMARK    3  A    between atoms: C_9  and  C_11
REMARK    4  A    between atoms: C_11  and  C_13
REMARK    5  A    between atoms: C_11  and  O_14
REMARK    6  A    between atoms: C_15  and  O_17
REMARK    7  A    between atoms: O_17  and  C_18
REMARK    8  A    between atoms: C_18  and  C_19
REMARK    9  A    between atoms: C_20  and  C_21
REMARK                            x       y       z     vdW  Elec       q    Type
REMARK                         _______ _______ _______ _____ _____    ______ ____
ROOT
ATOM      1  C   UNL     1       5.586  -3.615  23.681  0.00  0.00    +0.158 C 
ATOM      2  C   UNL     1       5.911  -5.021  24.214  0.00  0.00    +0.135 C 
ATOM      3  C   UNL     1       7.254  -4.833  23.500  0.00  0.00    +0.229 C 
ATOM      4  O   UNL     1       8.269  -5.489  23.430  0.00  0.00    -0.275 OA
ATOM      5  N   UNL     1       6.964  -3.532  23.164  0.00  0.00    -0.251 N 
ATOM      6  C   UNL     1       7.724  -2.490  23.720  0.00  0.00    +0.134 C 
ATOM      7  C   UNL     1       7.111  -1.787  24.707  0.00  0.00    +0.044 C 
ATOM      8  S   UNL     1       5.435  -2.328  24.941  0.00  0.00    -0.101 S 
ENDROOT
BRANCH   7   9
ATOM      9  C   UNL     1       7.572  -0.662  25.621  0.00  0.00    +0.157 C 
ATOM     10  O   UNL     1       7.306  -0.915  27.002  0.00  0.00    -0.371 OA
ATOM     11  C   UNL     1       7.195   0.325  27.705  0.00  0.00    +0.161 C 
ATOM     12  C   UNL     1       7.117   1.428  26.676  0.00  0.00    +0.031 C 
ATOM     13  C   UNL     1       6.880   0.684  25.387  0.00  0.00    +0.039 C 
ENDBRANCH   7   9
BRANCH   2  14
ATOM     14  C   UNL     1       4.998  -6.133  23.734  0.00  0.00    +0.126 C 
ATOM     15  C   UNL     1       3.641  -5.590  23.308  0.00  0.00    +0.038 C 
BRANCH  14  16
ATOM     16  O   UNL     1       5.632  -6.748  22.611  0.00  0.00    -0.391 OA
ATOM     17  H   UNL     1       4.978  -7.304  22.150  0.00  0.00    +0.210 HD
ENDBRANCH  14  16
ENDBRANCH   2  14
BRANCH   6  18
ATOM     18  C   UNL     1       9.086  -2.305  23.095  0.00  0.00    +0.355 C 
ATOM     19  O   UNL     1      10.121  -2.714  23.613  0.00  0.00    -0.243 OA
BRANCH  18  20
ATOM     20  O   UNL     1       9.038  -1.749  21.868  0.00  0.00    -0.452 OA
BRANCH  20  21
ATOM     21  C   UNL     1       9.951  -0.673  21.596  0.00  0.00    +0.310 C 
BRANCH  21  22
ATOM     22  C   UNL     1       9.490   0.615  22.201  0.00  0.00    +0.187 A 
ATOM     23  O   UNL     1       8.565   1.367  21.496  0.00  0.00    -0.392 OA
ATOM     24  C   UNL     1       8.418   2.472  22.315  0.00  0.00    +0.521 A 
ATOM     25  O   UNL     1       7.679   3.412  22.046  0.00  0.00    -0.202 OA
ATOM     26  O   UNL     1       9.201   2.436  23.458  0.00  0.00    -0.396 OA
ATOM     27  C   UNL     1       9.858   1.227  23.308  0.00  0.00    +0.151 A 
ATOM     28  C   UNL     1      10.834   0.850  24.357  0.00  0.00    +0.090 C 
ENDBRANCH  21  22
ENDBRANCH  20  21
ENDBRANCH  18  20
ENDBRANCH   6  18
TORSDOF 7
ENDMDL
MODEL 4
REMARK VINA RESULT:      -6.9      2.323      4.270
REMARK  Name = 
REMARK  9 active torsions:
REMARK  status: ('A' for Active; 'I' for Inactive)
REMARK    1  A    between atoms: C_4  and  C_26
REMARK    2  A    between atoms: C_5  and  C_15
REMARK    3  A    between atoms: C_9  and  C_11
REMARK    4  A    between atoms: C_11  and  C_13
REMARK    5  A    between atoms: C_11  and  O_14
REMARK    6  A    between atoms: C_15  and  O_17
REMARK    7  A    between atoms: O_17  and  C_18
REMARK    8  A    between atoms: C_18  and  C_19
REMARK    9  A    between atoms: C_20  and  C_21
REMARK                            x       y       z     vdW  Elec       q    Type
REMARK                         _______ _______ _______ _____ _____    ______ ____
ROOT
ATOM      1  C   UNL     1       8.498  -0.288  22.705  0.00  0.00    +0.158 C 
ATOM      2  C   UNL     1       9.604  -0.109  23.759  0.00  0.00    +0.135 C 
ATOM      3  C   UNL     1       8.447   0.050  24.750  0.00  0.00    +0.229 C 
ATOM      4  O   UNL     1       8.378   0.180  25.952  0.00  0.00    -0.275 OA
ATOM      5  N   UNL     1       7.505  -0.248  23.794  0.00  0.00    -0.251 N 
ATOM      6  C   UNL     1       6.743  -1.422  23.918  0.00  0.00    +0.134 C 
ATOM      7  C   UNL     1       7.099  -2.436  23.088  0.00  0.00    +0.044 C 
ATOM      8  S   UNL     1       8.389  -1.936  21.974  0.00  0.00    -0.101 S 
ENDROOT
BRANCH   7   9
ATOM      9  C   UNL     1       6.620  -3.872  22.939  0.00  0.00    +0.157 C 
ATOM     10  O   UNL     1       7.670  -4.832  23.076  0.00  0.00    -0.371 OA
ATOM     11  C   UNL     1       7.323  -6.026  22.369  0.00  0.00    +0.161 C 
ATOM     12  C   UNL     1       6.116  -5.718  21.515  0.00  0.00    +0.031 C 
ATOM     13  C   UNL     1       6.028  -4.215  21.568  0.00  0.00    +0.039 C 
ENDBRANCH   7   9
BRANCH   2  14
ATOM     14  C   UNL     1      10.529   1.074  23.547  0.00  0.00    +0.126 C 
ATOM     15  C   UNL     1      10.179   1.830  22.272  0.00  0.00    +0.038 C 
BRANCH  14  16
ATOM     16  O   UNL     1      10.367   1.946  24.668  0.00  0.00    -0.391 OA
ATOM     17  H   UNL     1       9.887   1.467  25.368  0.00  0.00    +0.210 HD
ENDBRANCH  14  16
ENDBRANCH   2  14
BRANCH   6  18
ATOM     18  C   UNL     1       5.627  -1.339  24.932  0.00  0.00    +0.355 C 
ATOM     19  O   UNL     1       4.900  -0.356  25.049  0.00  0.00    -0.243 OA
BRANCH  18  20
ATOM     20  O   UNL     1       5.441  -2.486  25.614  0.00  0.00    -0.452 OA
BRANCH  20  21
ATOM     21  C   UNL     1       6.256  -2.701  26.778  0.00  0.00    +0.310 C 
BRANCH  21  22
ATOM     22  C   UNL     1       7.182  -3.863  26.602  0.00  0.00    +0.187 A 
ATOM     23  O   UNL     1       8.506  -3.596  26.300  0.00  0.00    -0.392 OA
ATOM     24  C   UNL     1       9.028  -4.871  26.170  0.00  0.00    +0.521 A 
ATOM     25  O   UNL     1      10.199  -5.090  25.886  0.00  0.00    -0.202 OA
ATOM     26  O   UNL     1       8.100  -5.883  26.364  0.00  0.00    -0.396 OA
ATOM     27  C   UNL     1       6.950  -5.159  26.628  0.00  0.00    +0.151 A 
ATOM     28  C   UNL     1       5.705  -5.928  26.863  0.00  0.00    +0.090 C 
ENDBRANCH  21  22
ENDBRANCH  20  21
ENDBRANCH  18  20
ENDBRANCH   6  18
TORSDOF 7
ENDMDL
MODEL 5
REMARK VINA RESULT:      -6.8      2.085      3.462
REMARK  Name = 
REMARK  9 active torsions:
REMARK  status: ('A' for Active; 'I' for Inactive)
REMARK    1  A    between atoms: C_4  and  C_26
REMARK    2  A    between atoms: C_5  and  C_15
REMARK    3  A    between atoms: C_9  and  C_11
REMARK    4  A    between atoms: C_11  and  C_13
REMARK    5  A    between atoms: C_11  and  O_14
REMARK    6  A    between atoms: C_15  and  O_17
REMARK    7  A    between atoms: O_17  and  C_18
REMARK    8  A    between atoms: C_18  and  C_19
REMARK    9  A    between atoms: C_20  and  C_21
REMARK                            x       y       z     vdW  Elec       q    Type
REMARK                         _______ _______ _______ _____ _____    ______ ____
ROOT
ATOM      1  C   UNL     1       8.890  -0.202  22.238  0.00  0.00    +0.158 C 
ATOM      2  C   UNL     1       8.555   1.071  23.035  0.00  0.00    +0.135 C 
ATOM      3  C   UNL     1       7.174   0.431  23.216  0.00  0.00    +0.229 C 
ATOM      4  O   UNL     1       6.178   0.738  23.831  0.00  0.00    -0.275 OA
ATOM      5  N   UNL     1       7.568  -0.739  22.611  0.00  0.00    -0.251 N 
ATOM      6  C   UNL     1       7.622  -1.922  23.366  0.00  0.00    +0.134 C 
ATOM      7  C   UNL     1       8.869  -2.332  23.714  0.00  0.00    +0.044 C 
ATOM      8  S   UNL     1      10.116  -1.288  23.000  0.00  0.00    -0.101 S 
ENDROOT
BRANCH   7   9
ATOM      9  C   UNL     1       9.382  -3.477  24.574  0.00  0.00    +0.157 C 
ATOM     10  O   UNL     1       8.928  -4.759  24.131  0.00  0.00    -0.371 OA
ATOM     11  C   UNL     1       8.919  -5.671  25.232  0.00  0.00    +0.161 C 
ATOM     12  C   UNL     1       9.117  -4.865  26.495  0.00  0.00    +0.031 C 
ATOM     13  C   UNL     1       8.922  -3.445  26.034  0.00  0.00    +0.039 C 
ENDBRANCH   7   9
BRANCH   2  14
ATOM     14  C   UNL     1       8.642   2.373  22.262  0.00  0.00    +0.126 C 
ATOM     15  C   UNL     1       8.711   3.570  23.201  0.00  0.00    +0.038 C 
BRANCH  14  16
ATOM     16  O   UNL     1       9.834   2.322  21.476  0.00  0.00    -0.391 OA
ATOM     17  H   UNL     1      10.163   3.231  21.350  0.00  0.00    +0.210 HD
ENDBRANCH  14  16
ENDBRANCH   2  14
BRANCH   6  18
ATOM     18  C   UNL     1       6.279  -2.559  23.629  0.00  0.00    +0.355 C 
ATOM     19  O   UNL     1       5.667  -3.204  22.782  0.00  0.00    -0.243 OA
BRANCH  18  20
ATOM     20  O   UNL     1       5.874  -2.441  24.909  0.00  0.00    -0.452 OA
BRANCH  20  21
ATOM     21  C   UNL     1       4.762  -3.250  25.326  0.00  0.00    +0.310 C 
BRANCH  21  22
ATOM     22  C   UNL     1       5.206  -4.447  26.107  0.00  0.00    +0.187 A 
ATOM     23  O   UNL     1       5.680  -4.242  27.392  0.00  0.00    -0.392 OA
ATOM     24  C   UNL     1       6.028  -5.526  27.771  0.00  0.00    +0.521 A 
ATOM     25  O   UNL     1       6.514  -5.793  28.864  0.00  0.00    -0.202 OA
ATOM     26  O   UNL     1       5.805  -6.483  26.794  0.00  0.00    -0.396 OA
ATOM     27  C   UNL     1       5.287  -5.716  25.765  0.00  0.00    +0.151 A 
ATOM     28  C   UNL     1       4.947  -6.415  24.503  0.00  0.00    +0.090 C 
ENDBRANCH  21  22
ENDBRANCH  20  21
ENDBRANCH  18  20
ENDBRANCH   6  18
TORSDOF 7
ENDMDL
MODEL 6
REMARK VINA RESULT:      -6.8      2.406      5.862
REMARK  Name = 
REMARK  9 active torsions:
REMARK  status: ('A' for Active; 'I' for Inactive)
REMARK    1  A    between atoms: C_4  and  C_26
REMARK    2  A    between atoms: C_5  and  C_15
REMARK    3  A    between atoms: C_9  and  C_11
REMARK    4  A    between atoms: C_11  and  C_13
REMARK    5  A    between atoms: C_11  and  O_14
REMARK    6  A    between atoms: C_15  and  O_17
REMARK    7  A    between atoms: O_17  and  C_18
REMARK    8  A    between atoms: C_18  and  C_19
REMARK    9  A    between atoms: C_20  and  C_21
REMARK                            x       y       z     vdW  Elec       q    Type
REMARK                         _______ _______ _______ _____ _____    ______ ____
ROOT
ATOM      1  C   UNL     1       7.520  -3.705  22.720  0.00  0.00    +0.158 C 
ATOM      2  C   UNL     1       6.425  -4.147  21.734  0.00  0.00    +0.135 C 
ATOM      3  C   UNL     1       5.455  -3.820  22.874  0.00  0.00    +0.229 C 
ATOM      4  O   UNL     1       4.249  -3.810  22.977  0.00  0.00    -0.275 OA
ATOM      5  N   UNL     1       6.458  -3.312  23.665  0.00  0.00    -0.251 N 
ATOM      6  C   UNL     1       6.457  -1.945  23.989  0.00  0.00    +0.134 C 
ATOM      7  C   UNL     1       7.361  -1.188  23.317  0.00  0.00    +0.044 C 
ATOM      8  S   UNL     1       8.394  -2.188  22.273  0.00  0.00    -0.101 S 
ENDROOT
BRANCH   7   9
ATOM      9  C   UNL     1       7.647   0.306  23.288  0.00  0.00    +0.157 C 
ATOM     10  O   UNL     1       6.768   1.029  22.424  0.00  0.00    -0.371 OA
ATOM     11  C   UNL     1       7.410   2.228  21.980  0.00  0.00    +0.161 C 
ATOM     12  C   UNL     1       8.869   2.133  22.361  0.00  0.00    +0.031 C 
ATOM     13  C   UNL     1       9.031   0.688  22.754  0.00  0.00    +0.039 C 
ENDBRANCH   7   9
BRANCH   2  14
ATOM     14  C   UNL     1       6.508  -5.586  21.260  0.00  0.00    +0.126 C 
ATOM     15  C   UNL     1       7.516  -6.381  22.079  0.00  0.00    +0.038 C 
BRANCH  14  16
ATOM     16  O   UNL     1       5.211  -6.163  21.423  0.00  0.00    -0.391 OA
ATOM     17  H   UNL     1       5.246  -7.094  21.139  0.00  0.00    +0.210 HD
ENDBRANCH  14  16
ENDBRANCH   2  14
BRANCH   6  18
ATOM     18  C   UNL     1       5.470  -1.558  25.064  0.00  0.00    +0.355 C 
ATOM     19  O   UNL     1       4.966  -0.441  25.139  0.00  0.00    -0.243 OA
BRANCH  18  20
ATOM     20  O   UNL     1       5.116  -2.587  25.860  0.00  0.00    -0.452 OA
BRANCH  20  21
ATOM     21  C   UNL     1       5.763  -2.684  27.139  0.00  0.00    +0.310 C 
BRANCH  21  22
ATOM     22  C   UNL     1       6.283  -4.063  27.398  0.00  0.00    +0.187 A 
ATOM     23  O   UNL     1       5.478  -4.934  28.114  0.00  0.00    -0.392 OA
ATOM     24  C   UNL     1       6.282  -6.057  28.193  0.00  0.00    +0.521 A 
ATOM     25  O   UNL     1       5.944  -7.083  28.772  0.00  0.00    -0.202 OA
ATOM     26  O   UNL     1       7.518  -5.911  27.583  0.00  0.00    -0.396 OA
ATOM     27  C   UNL     1       7.443  -4.614  27.107  0.00  0.00    +0.151 A 
ATOM     28  C   UNL     1       8.632  -4.080  26.402  0.00  0.00    +0.090 C 
ENDBRANCH  21  22
ENDBRANCH  20  21
ENDBRANCH  18  20
ENDBRANCH   6  18
TORSDOF 7
ENDMDL
MODEL 7
REMARK VINA RESULT:      -6.8      2.289      5.762
REMARK  Name = 
REMARK  9 active torsions:
REMARK  status: ('A' for Active; 'I' for Inactive)
REMARK    1  A    between atoms: C_4  and  C_26
REMARK    2  A    between atoms: C_5  and  C_15
REMARK    3  A    between atoms: C_9  and  C_11
REMARK    4  A    between atoms: C_11  and  C_13
REMARK    5  A    between atoms: C_11  and  O_14
REMARK    6  A    between atoms: C_15  and  O_17
REMARK    7  A    between atoms: O_17  and  C_18
REMARK    8  A    between atoms: C_18  and  C_19
REMARK    9  A    between atoms: C_20  and  C_21
REMARK                            x       y       z     vdW  Elec       q    Type
REMARK                         _______ _______ _______ _____ _____    ______ ____
ROOT
ATOM      1  C   UNL     1       7.621  -3.713  22.919  0.00  0.00    +0.158 C 
ATOM      2  C   UNL     1       6.250  -3.713  22.222  0.00  0.00    +0.135 C 
ATOM      3  C   UNL     1       5.683  -3.525  23.633  0.00  0.00    +0.229 C 
ATOM      4  O   UNL     1       4.572  -3.345  24.078  0.00  0.00    -0.275 OA
ATOM      5  N   UNL     1       6.936  -3.398  24.186  0.00  0.00    -0.251 N 
ATOM      6  C   UNL     1       7.319  -2.173  24.755  0.00  0.00    +0.134 C 
ATOM      7  C   UNL     1       8.179  -1.430  24.011  0.00  0.00    +0.044 C 
ATOM      8  S   UNL     1       8.677  -2.296  22.543  0.00  0.00    -0.101 S 
ENDROOT
BRANCH   7   9
ATOM      9  C   UNL     1       8.776  -0.043  24.192  0.00  0.00    +0.157 C 
ATOM     10  O   UNL     1       8.894   0.682  22.966  0.00  0.00    -0.371 OA
ATOM     11  C   UNL     1       9.942   1.648  23.077  0.00  0.00    +0.161 C 
ATOM     12  C   UNL     1      10.712   1.343  24.341  0.00  0.00    +0.031 C 
ATOM     13  C   UNL     1      10.210  -0.023  24.732  0.00  0.00    +0.039 C 
ENDBRANCH   7   9
BRANCH   2  14
ATOM     14  C   UNL     1       5.891  -4.984  21.474  0.00  0.00    +0.126 C 
ATOM     15  C   UNL     1       7.037  -5.987  21.508  0.00  0.00    +0.038 C 
BRANCH  14  16
ATOM     16  O   UNL     1       4.751  -5.551  22.123  0.00  0.00    -0.391 OA
ATOM     17  H   UNL     1       4.540  -6.400  21.694  0.00  0.00    +0.210 HD
ENDBRANCH  14  16
ENDBRANCH   2  14
BRANCH   6  18
ATOM     18  C   UNL     1       6.735  -1.908  26.122  0.00  0.00    +0.355 C 
ATOM     19  O   UNL     1       6.186  -0.852  26.422  0.00  0.00    -0.243 OA
BRANCH  18  20
ATOM     20  O   UNL     1       6.778  -2.980  26.937  0.00  0.00    -0.452 OA
BRANCH  20  21
ATOM     21  C   UNL     1       5.523  -3.514  27.391  0.00  0.00    +0.310 C 
BRANCH  21  22
ATOM     22  C   UNL     1       5.658  -4.926  27.866  0.00  0.00    +0.187 A 
ATOM     23  O   UNL     1       6.073  -5.134  29.171  0.00  0.00    -0.392 OA
ATOM     24  C   UNL     1       6.125  -6.515  29.233  0.00  0.00    +0.521 A 
ATOM     25  O   UNL     1       6.468  -7.128  30.237  0.00  0.00    -0.202 OA
ATOM     26  O   UNL     1       5.779  -7.147  28.049  0.00  0.00    -0.396 OA
ATOM     27  C   UNL     1       5.502  -6.068  27.228  0.00  0.00    +0.151 A 
ATOM     28  C   UNL     1       5.114  -6.363  25.828  0.00  0.00    +0.090 C 
ENDBRANCH  21  22
ENDBRANCH  20  21
ENDBRANCH  18  20
ENDBRANCH   6  18
TORSDOF 7
ENDMDL
MODEL 8
REMARK VINA RESULT:      -6.8      1.094      1.254
REMARK  Name = 
REMARK  9 active torsions:
REMARK  status: ('A' for Active; 'I' for Inactive)
REMARK    1  A    between atoms: C_4  and  C_26
REMARK    2  A    between atoms: C_5  and  C_15
REMARK    3  A    between atoms: C_9  and  C_11
REMARK    4  A    between atoms: C_11  and  C_13
REMARK    5  A    between atoms: C_11  and  O_14
REMARK    6  A    between atoms: C_15  and  O_17
REMARK    7  A    between atoms: O_17  and  C_18
REMARK    8  A    between atoms: C_18  and  C_19
REMARK    9  A    between atoms: C_20  and  C_21
REMARK                            x       y       z     vdW  Elec       q    Type
REMARK                         _______ _______ _______ _____ _____    ______ ____
ROOT
ATOM      1  C   UNL     1       8.761   0.721  24.386  0.00  0.00    +0.158 C 
ATOM      2  C   UNL     1       8.471   1.178  22.946  0.00  0.00    +0.135 C 
ATOM      3  C   UNL     1       9.102  -0.158  22.539  0.00  0.00    +0.229 C 
ATOM      4  O   UNL     1       9.257  -0.729  21.483  0.00  0.00    -0.275 OA
ATOM      5  N   UNL     1       9.215  -0.573  23.845  0.00  0.00    -0.251 N 
ATOM      6  C   UNL     1       8.465  -1.675  24.286  0.00  0.00    +0.134 C 
ATOM      7  C   UNL     1       7.389  -1.373  25.057  0.00  0.00    +0.044 C 
ATOM      8  S   UNL     1       7.301   0.369  25.391  0.00  0.00    -0.101 S 
ENDROOT
BRANCH   7   9
ATOM      9  C   UNL     1       6.281  -2.217  25.668  0.00  0.00    +0.157 C 
ATOM     10  O   UNL     1       5.290  -1.439  26.345  0.00  0.00    -0.371 OA
ATOM     11  C   UNL     1       4.659  -2.236  27.351  0.00  0.00    +0.161 C 
ATOM     12  C   UNL     1       5.471  -3.500  27.508  0.00  0.00    +0.031 C 
ATOM     13  C   UNL     1       6.739  -3.195  26.755  0.00  0.00    +0.039 C 
ENDBRANCH   7   9
BRANCH   2  14
ATOM     14  C   UNL     1       9.163   2.456  22.509  0.00  0.00    +0.126 C 
ATOM     15  C   UNL     1       9.896   3.113  23.672  0.00  0.00    +0.038 C 
BRANCH  14  16
ATOM     16  O   UNL     1      10.108   2.103  21.498  0.00  0.00    -0.391 OA
ATOM     17  H   UNL     1      10.905   2.651  21.611  0.00  0.00    +0.210 HD
ENDBRANCH  14  16
ENDBRANCH   2  14
BRANCH   6  18
ATOM     18  C   UNL     1       9.009  -3.016  23.855  0.00  0.00    +0.355 C 
ATOM     19  O   UNL     1      10.089  -3.455  24.240  0.00  0.00    -0.243 OA
BRANCH  18  20
ATOM     20  O   UNL     1       8.146  -3.724  23.100  0.00  0.00    -0.452 OA
BRANCH  20  21
ATOM     21  C   UNL     1       7.786  -5.035  23.565  0.00  0.00    +0.310 C 
BRANCH  21  22
ATOM     22  C   UNL     1       6.341  -5.335  23.320  0.00  0.00    +0.187 A 
ATOM     23  O   UNL     1       5.502  -5.423  24.418  0.00  0.00    -0.392 OA
ATOM     24  C   UNL     1       4.295  -5.749  23.824  0.00  0.00    +0.521 A 
ATOM     25  O   UNL     1       3.265  -5.935  24.460  0.00  0.00    -0.202 OA
ATOM     26  O   UNL     1       4.360  -5.873  22.445  0.00  0.00    -0.396 OA
ATOM     27  C   UNL     1       5.695  -5.601  22.203  0.00  0.00    +0.151 A 
ATOM     28  C   UNL     1       6.157  -5.672  20.797  0.00  0.00    +0.090 C 
ENDBRANCH  21  22
ENDBRANCH  20  21
ENDBRANCH  18  20
ENDBRANCH   6  18
TORSDOF 7
ENDMDL
MODEL 9
REMARK VINA RESULT:      -6.5      2.178      3.759
REMARK  Name = 
REMARK  9 active torsions:
REMARK  status: ('A' for Active; 'I' for Inactive)
REMARK    1  A    between atoms: C_4  and  C_26
REMARK    2  A    between atoms: C_5  and  C_15
REMARK    3  A    between atoms: C_9  and  C_11
REMARK    4  A    between atoms: C_11  and  C_13
REMARK    5  A    between atoms: C_11  and  O_14
REMARK    6  A    between atoms: C_15  and  O_17
REMARK    7  A    between atoms: O_17  and  C_18
REMARK    8  A    between atoms: C_18  and  C_19
REMARK    9  A    between atoms: C_20  and  C_21
REMARK                            x       y       z     vdW  Elec       q    Type
REMARK                         _______ _______ _______ _____ _____    ______ ____
ROOT
ATOM      1  C   UNL     1       8.297  -0.487  22.899  0.00  0.00    +0.158 C 
ATOM      2  C   UNL     1       9.512  -0.196  23.796  0.00  0.00    +0.135 C 
ATOM      3  C   UNL     1       8.481  -0.076  24.923  0.00  0.00    +0.229 C 
ATOM      4  O   UNL     1       8.555   0.095  26.119  0.00  0.00    -0.275 OA
ATOM      5  N   UNL     1       7.449  -0.472  24.104  0.00  0.00    -0.251 N 
ATOM      6  C   UNL     1       6.793  -1.687  24.360  0.00  0.00    +0.134 C 
ATOM      7  C   UNL     1       7.112  -2.706  23.521  0.00  0.00    +0.044 C 
ATOM      8  S   UNL     1       8.212  -2.166  22.236  0.00  0.00    -0.101 S 
ENDROOT
BRANCH   7   9
ATOM      9  C   UNL     1       6.720  -4.175  23.477  0.00  0.00    +0.157 C 
ATOM     10  O   UNL     1       7.417  -4.913  22.471  0.00  0.00    -0.371 OA
ATOM     11  C   UNL     1       6.636  -6.045  22.077  0.00  0.00    +0.161 C 
ATOM     12  C   UNL     1       5.255  -5.873  22.664  0.00  0.00    +0.031 C 
ATOM     13  C   UNL     1       5.251  -4.441  23.130  0.00  0.00    +0.039 C 
ENDBRANCH   7   9
BRANCH   2  14
ATOM     14  C   UNL     1      10.317   1.038  23.432  0.00  0.00    +0.126 C 
ATOM     15  C   UNL     1       9.961   1.541  22.040  0.00  0.00    +0.038 C 
BRANCH  14  16
ATOM     16  O   UNL     1      10.002   2.049  24.392  0.00  0.00    -0.391 OA
ATOM     17  H   UNL     1      10.690   2.049  25.082  0.00  0.00    +0.210 HD
ENDBRANCH  14  16
ENDBRANCH   2  14
BRANCH   6  18
ATOM     18  C   UNL     1       5.811  -1.640  25.506  0.00  0.00    +0.355 C 
ATOM     19  O   UNL     1       4.698  -1.131  25.413  0.00  0.00    -0.243 OA
BRANCH  18  20
ATOM     20  O   UNL     1       6.235  -2.305  26.599  0.00  0.00    -0.452 OA
BRANCH  20  21
ATOM     21  C   UNL     1       5.262  -3.082  27.316  0.00  0.00    +0.310 C 
BRANCH  21  22
ATOM     22  C   UNL     1       5.249  -4.509  26.866  0.00  0.00    +0.187 A 
ATOM     23  O   UNL     1       4.025  -5.079  26.554  0.00  0.00    -0.392 OA
ATOM     24  C   UNL     1       4.392  -6.375  26.236  0.00  0.00    +0.521 A 
ATOM     25  O   UNL     1       3.585  -7.237  25.907  0.00  0.00    -0.202 OA
ATOM     26  O   UNL     1       5.751  -6.621  26.350  0.00  0.00    -0.396 OA
ATOM     27  C   UNL     1       6.224  -5.388  26.761  0.00  0.00    +0.151 A 
ATOM     28  C   UNL     1       7.679  -5.273  27.022  0.00  0.00    +0.090 C 
ENDBRANCH  21  22
ENDBRANCH  20  21
ENDBRANCH  18  20
ENDBRANCH   6  18
TORSDOF 7
ENDMDL
