MODEL 1
REMARK VINA RESULT:      -7.3      0.000      0.000
REMARK  Name = 
REMARK  8 active torsions:
REMARK  status: ('A' for Active; 'I' for Inactive)
REMARK    1  A    between atoms: C_1  and  C_2
REMARK    2  A    between atoms: C_5  and  C_8
REMARK    3  A    between atoms: N_10  and  C_11
REMARK    4  A    between atoms: C_11  and  C_12
REMARK    5  A    between atoms: C_12  and  C_13
REMARK    6  A    between atoms: C_16  and  S_19
REMARK    7  A    between atoms: S_19  and  N_22
REMARK    8  A    between atoms: N_25  and  C_26
REMARK                            x       y       z     vdW  Elec       q    Type
REMARK                         _______ _______ _______ _____ _____    ______ ____
ROOT
ATOM      1  C   UNL     1       6.952  -2.445  25.326  0.00  0.00    -0.046 A 
ATOM      2  C   UNL     1       7.083  -3.822  25.572  0.00  0.00    +0.005 A 
ATOM      3  C   UNL     1       6.917  -4.755  24.541  0.00  0.00    +0.029 A 
ATOM      4  C   UNL     1       6.651  -4.316  23.242  0.00  0.00    +0.109 A 
ATOM      5  C   UNL     1       6.563  -2.951  22.970  0.00  0.00    +0.029 A 
ATOM      6  C   UNL     1       6.731  -2.025  24.005  0.00  0.00    +0.005 A 
ENDROOT
BRANCH   4   7
ATOM      7  S   UNL     1       6.296  -5.488  21.955  0.00  0.00    +0.076 S 
ATOM      8  O   UNL     1       7.449  -6.359  21.835  0.00  0.00    -0.150 OA
ATOM      9  O   UNL     1       5.789  -4.787  20.796  0.00  0.00    -0.150 OA
BRANCH   7  10
ATOM     10  N   UNL     1       5.094  -6.451  22.587  0.00  0.00    -0.169 N 
ATOM     11  H   UNL     1       5.366  -7.419  22.691  0.00  0.00    +0.178 HD
ATOM     12  C   UNL     1       3.830  -5.991  22.902  0.00  0.00    +0.319 C 
ATOM     13  N   UNL     1       2.983  -6.969  23.343  0.00  0.00    -0.295 N 
ATOM     14  H   UNL     1       3.342  -7.897  23.499  0.00  0.00    +0.151 HD
ATOM     15  O   UNL     1       3.509  -4.816  22.815  0.00  0.00    -0.251 OA
BRANCH  13  16
ATOM     16  C   UNL     1       1.659  -6.618  23.846  0.00  0.00    +0.074 C 
ATOM     17  C   UNL     1       1.669  -6.484  25.375  0.00  0.00    +0.022 C 
ATOM     18  C   UNL     1       1.763  -7.836  26.080  0.00  0.00    +0.002 C 
ATOM     19  C   UNL     1       0.670  -8.790  25.612  0.00  0.00    +0.000 C 
ATOM     20  C   UNL     1       0.676  -8.958  24.096  0.00  0.00    +0.002 C 
ATOM     21  C   UNL     1       0.595  -7.614  23.377  0.00  0.00    +0.022 C 
ENDBRANCH  13  16
ENDBRANCH   7  10
ENDBRANCH   4   7
BRANCH   1  22
ATOM     22  C   UNL     1       7.094  -1.460  26.474  0.00  0.00    +0.054 C 
BRANCH  22  23
ATOM     23  C   UNL     1       8.526  -0.950  26.712  0.00  0.00    +0.109 C 
BRANCH  23  25
ATOM     24  C   UNL     1       9.357   0.602  24.975  0.00  0.00    +0.264 C 
ATOM     25  N   UNL     1       8.749   0.387  26.196  0.00  0.00    -0.310 N 
ATOM     26  H   UNL     1       8.419   1.203  26.706  0.00  0.00    +0.149 HD
ATOM     27  O   UNL     1       9.781  -0.302  24.262  0.00  0.00    -0.268 OA
BRANCH  24  32
ATOM     28  C   UNL     1      10.127   6.042  23.555  0.00  0.00    +0.067 C 
ATOM     29  C   UNL     1       9.866   4.600  23.861  0.00  0.00    +0.056 A 
ATOM     30  N   UNL     1      10.788   3.704  23.429  0.00  0.00    -0.256 NA
ATOM     31  C   UNL     1      10.573   2.414  23.789  0.00  0.00    +0.144 A 
ATOM     32  C   UNL     1       9.482   2.026  24.554  0.00  0.00    +0.143 A 
ATOM     33  N   UNL     1       8.530   2.909  24.972  0.00  0.00    -0.247 NA
ATOM     34  C   UNL     1       8.757   4.198  24.604  0.00  0.00    +0.134 A 
ENDBRANCH  24  32
ENDBRANCH  23  25
ENDBRANCH  22  23
ENDBRANCH   1  22
TORSDOF 7
ENDMDL
MODEL 2
REMARK VINA RESULT:      -7.2      2.864      3.820
REMARK  Name = 
REMARK  8 active torsions:
REMARK  status: ('A' for Active; 'I' for Inactive)
REMARK    1  A    between atoms: C_1  and  C_2
REMARK    2  A    between atoms: C_5  and  C_8
REMARK    3  A    between atoms: N_10  and  C_11
REMARK    4  A    between atoms: C_11  and  C_12
REMARK    5  A    between atoms: C_12  and  C_13
REMARK    6  A    between atoms: C_16  and  S_19
REMARK    7  A    between atoms: S_19  and  N_22
REMARK    8  A    between atoms: N_25  and  C_26
REMARK                            x       y       z     vdW  Elec       q    Type
REMARK                         _______ _______ _______ _____ _____    ______ ____
ROOT
ATOM      1  C   UNL     1       9.264  -1.089  22.177  0.00  0.00    -0.046 A 
ATOM      2  C   UNL     1       9.992  -1.041  23.377  0.00  0.00    +0.005 A 
ATOM      3  C   UNL     1       9.818  -2.020  24.362  0.00  0.00    +0.029 A 
ATOM      4  C   UNL     1       8.935  -3.080  24.140  0.00  0.00    +0.109 A 
ATOM      5  C   UNL     1       8.239  -3.169  22.936  0.00  0.00    +0.029 A 
ATOM      6  C   UNL     1       8.419  -2.187  21.956  0.00  0.00    +0.005 A 
ENDROOT
BRANCH   4   7
ATOM      7  S   UNL     1       8.595  -4.248  25.435  0.00  0.00    +0.076 S 
ATOM      8  O   UNL     1       8.464  -3.498  26.669  0.00  0.00    -0.150 OA
ATOM      9  O   UNL     1       9.534  -5.345  25.347  0.00  0.00    -0.150 OA
BRANCH   7  10
ATOM     10  N   UNL     1       7.062  -4.804  25.105  0.00  0.00    -0.169 N 
ATOM     11  H   UNL     1       6.698  -4.481  24.219  0.00  0.00    +0.178 HD
ATOM     12  C   UNL     1       6.331  -5.595  25.970  0.00  0.00    +0.319 C 
ATOM     13  N   UNL     1       5.070  -5.878  25.526  0.00  0.00    -0.295 N 
ATOM     14  H   UNL     1       4.800  -5.591  24.598  0.00  0.00    +0.151 HD
ATOM     15  O   UNL     1       6.780  -6.020  27.024  0.00  0.00    -0.251 OA
BRANCH  13  16
ATOM     16  C   UNL     1       4.227  -6.814  26.261  0.00  0.00    +0.074 C 
ATOM     17  C   UNL     1       3.271  -7.553  25.314  0.00  0.00    +0.022 C 
ATOM     18  C   UNL     1       2.135  -6.661  24.816  0.00  0.00    +0.002 C 
ATOM     19  C   UNL     1       1.383  -6.013  25.973  0.00  0.00    +0.000 C 
ATOM     20  C   UNL     1       2.321  -5.246  26.900  0.00  0.00    +0.002 C 
ATOM     21  C   UNL     1       3.469  -6.122  27.396  0.00  0.00    +0.022 C 
ENDBRANCH  13  16
ENDBRANCH   7  10
ENDBRANCH   4   7
BRANCH   1  22
ATOM     22  C   UNL     1       9.443   0.013  21.145  0.00  0.00    +0.054 C 
BRANCH  22  23
ATOM     23  C   UNL     1       8.550   1.247  21.358  0.00  0.00    +0.109 C 
BRANCH  23  25
ATOM     24  C   UNL     1       9.056   2.861  23.163  0.00  0.00    +0.264 C 
ATOM     25  N   UNL     1       9.273   2.390  21.882  0.00  0.00    -0.310 N 
ATOM     26  H   UNL     1       9.994   2.848  21.331  0.00  0.00    +0.149 HD
ATOM     27  O   UNL     1       8.225   2.382  23.928  0.00  0.00    -0.268 OA
BRANCH  24  32
ATOM     28  C   UNL     1      12.441   7.042  24.967  0.00  0.00    +0.067 C 
ATOM     29  C   UNL     1      11.527   5.991  24.420  0.00  0.00    +0.056 A 
ATOM     30  N   UNL     1      12.102   4.971  23.737  0.00  0.00    -0.256 NA
ATOM     31  C   UNL     1      11.262   3.989  23.324  0.00  0.00    +0.144 A 
ATOM     32  C   UNL     1       9.899   4.016  23.581  0.00  0.00    +0.143 A 
ATOM     33  N   UNL     1       9.300   5.048  24.242  0.00  0.00    -0.247 NA
ATOM     34  C   UNL     1      10.151   6.025  24.650  0.00  0.00    +0.134 A 
ENDBRANCH  24  32
ENDBRANCH  23  25
ENDBRANCH  22  23
ENDBRANCH   1  22
TORSDOF 7
ENDMDL
MODEL 3
REMARK VINA RESULT:      -7.2      3.497      7.678
REMARK  Name = 
REMARK  8 active torsions:
REMARK  status: ('A' for Active; 'I' for Inactive)
REMARK    1  A    between atoms: C_1  and  C_2
REMARK    2  A    between atoms: C_5  and  C_8
REMARK    3  A    between atoms: N_10  and  C_11
REMARK    4  A    between atoms: C_11  and  C_12
REMARK    5  A    between atoms: C_12  and  C_13
REMARK    6  A    between atoms: C_16  and  S_19
REMARK    7  A    between atoms: S_19  and  N_22
REMARK    8  A    between atoms: N_25  and  C_26
REMARK                            x       y       z     vdW  Elec       q    Type
REMARK                         _______ _______ _______ _____ _____    ______ ____
ROOT
ATOM      1  C   UNL     1       5.198  -5.588  27.359  0.00  0.00    -0.046 A 
ATOM      2  C   UNL     1       5.059  -5.858  25.988  0.00  0.00    +0.005 A 
ATOM      3  C   UNL     1       6.115  -5.621  25.099  0.00  0.00    +0.029 A 
ATOM      4  C   UNL     1       7.335  -5.142  25.582  0.00  0.00    +0.109 A 
ATOM      5  C   UNL     1       7.506  -4.912  26.946  0.00  0.00    +0.029 A 
ATOM      6  C   UNL     1       6.447  -5.151  27.828  0.00  0.00    +0.005 A 
ENDROOT
BRANCH   4   7
ATOM      7  S   UNL     1       8.634  -4.700  24.452  0.00  0.00    +0.076 S 
ATOM      8  O   UNL     1       8.213  -5.117  23.128  0.00  0.00    -0.150 OA
ATOM      9  O   UNL     1       9.903  -5.143  24.986  0.00  0.00    -0.150 OA
BRANCH   7  10
ATOM     10  N   UNL     1       8.602  -3.036  24.408  0.00  0.00    -0.169 N 
ATOM     11  H   UNL     1       7.804  -2.636  24.880  0.00  0.00    +0.178 HD
ATOM     12  C   UNL     1       9.547  -2.270  23.755  0.00  0.00    +0.319 C 
ATOM     13  N   UNL     1       9.288  -0.928  23.790  0.00  0.00    -0.295 N 
ATOM     14  H   UNL     1       8.518  -0.591  24.347  0.00  0.00    +0.151 HD
ATOM     15  O   UNL     1      10.535  -2.746  23.216  0.00  0.00    -0.251 OA
BRANCH  13  16
ATOM     16  C   UNL     1      10.264   0.021  23.267  0.00  0.00    +0.074 C 
ATOM     17  C   UNL     1      10.591   1.103  24.306  0.00  0.00    +0.022 C 
ATOM     18  C   UNL     1       9.455   2.109  24.479  0.00  0.00    +0.002 C 
ATOM     19  C   UNL     1       9.042   2.724  23.147  0.00  0.00    +0.000 C 
ATOM     20  C   UNL     1       8.680   1.657  22.119  0.00  0.00    +0.002 C 
ATOM     21  C   UNL     1       9.801   0.635  21.943  0.00  0.00    +0.022 C 
ENDBRANCH  13  16
ENDBRANCH   7  10
ENDBRANCH   4   7
BRANCH   1  22
ATOM     22  C   UNL     1       4.020  -5.814  28.292  0.00  0.00    +0.054 C 
BRANCH  22  23
ATOM     23  C   UNL     1       2.995  -4.667  28.328  0.00  0.00    +0.109 C 
BRANCH  23  25
ATOM     24  C   UNL     1       3.912  -2.379  28.119  0.00  0.00    +0.264 C 
ATOM     25  N   UNL     1       3.395  -3.520  27.535  0.00  0.00    -0.310 N 
ATOM     26  H   UNL     1       3.345  -3.546  26.520  0.00  0.00    +0.149 HD
ATOM     27  O   UNL     1       4.036  -2.237  29.331  0.00  0.00    -0.268 OA
BRANCH  24  32
ATOM     28  C   UNL     1       5.789   1.629  24.568  0.00  0.00    +0.067 C 
ATOM     29  C   UNL     1       5.211   0.587  25.473  0.00  0.00    +0.056 A 
ATOM     30  N   UNL     1       5.335  -0.705  25.081  0.00  0.00    -0.256 NA
ATOM     31  C   UNL     1       4.878  -1.636  25.956  0.00  0.00    +0.144 A 
ATOM     32  C   UNL     1       4.319  -1.297  27.179  0.00  0.00    +0.143 A 
ATOM     33  N   UNL     1       4.160  -0.002  27.578  0.00  0.00    -0.247 NA
ATOM     34  C   UNL     1       4.622   0.920  26.693  0.00  0.00    +0.134 A 
ENDBRANCH  24  32
ENDBRANCH  23  25
ENDBRANCH  22  23
ENDBRANCH   1  22
TORSDOF 7
ENDMDL
MODEL 4
REMARK VINA RESULT:      -7.2      3.147      4.395
REMARK  Name = 
REMARK  8 active torsions:
REMARK  status: ('A' for Active; 'I' for Inactive)
REMARK    1  A    between atoms: C_1  and  C_2
REMARK    2  A    between atoms: C_5  and  C_8
REMARK    3  A    between atoms: N_10  and  C_11
REMARK    4  A    between atoms: C_11  and  C_12
REMARK    5  A    between atoms: C_12  and  C_13
REMARK    6  A    between atoms: C_16  and  S_19
REMARK    7  A    between atoms: S_19  and  N_22
REMARK    8  A    between atoms: N_25  and  C_26
REMARK                            x       y       z     vdW  Elec       q    Type
REMARK                         _______ _______ _______ _____ _____    ______ ____
ROOT
ATOM      1  C   UNL     1      10.071   0.110  23.989  0.00  0.00    -0.046 A 
ATOM      2  C   UNL     1      10.223  -1.011  23.156  0.00  0.00    +0.005 A 
ATOM      3  C   UNL     1       9.823  -2.283  23.583  0.00  0.00    +0.029 A 
ATOM      4  C   UNL     1       9.232  -2.440  24.839  0.00  0.00    +0.109 A 
ATOM      5  C   UNL     1       9.031  -1.332  25.661  0.00  0.00    +0.029 A 
ATOM      6  C   UNL     1       9.432  -0.065  25.227  0.00  0.00    +0.005 A 
ENDROOT
BRANCH   4   7
ATOM      7  S   UNL     1       8.852  -4.064  25.453  0.00  0.00    +0.076 S 
ATOM      8  O   UNL     1       8.770  -3.971  26.898  0.00  0.00    -0.150 OA
ATOM      9  O   UNL     1       9.737  -5.027  24.835  0.00  0.00    -0.150 OA
BRANCH   7  10
ATOM     10  N   UNL     1       7.291  -4.346  24.951  0.00  0.00    -0.169 N 
ATOM     11  H   UNL     1       6.995  -3.743  24.196  0.00  0.00    +0.178 HD
ATOM     12  C   UNL     1       6.456  -5.280  25.533  0.00  0.00    +0.319 C 
ATOM     13  N   UNL     1       5.195  -5.295  25.007  0.00  0.00    -0.295 N 
ATOM     14  H   UNL     1       4.991  -4.724  24.202  0.00  0.00    +0.151 HD
ATOM     15  O   UNL     1       6.820  -6.037  26.420  0.00  0.00    -0.251 OA
BRANCH  13  16
ATOM     16  C   UNL     1       4.241  -6.319  25.419  0.00  0.00    +0.074 C 
ATOM     17  C   UNL     1       3.676  -7.066  24.203  0.00  0.00    +0.022 C 
ATOM     18  C   UNL     1       2.682  -6.222  23.408  0.00  0.00    +0.002 C 
ATOM     19  C   UNL     1       1.567  -5.682  24.297  0.00  0.00    +0.000 C 
ATOM     20  C   UNL     1       2.119  -4.907  25.490  0.00  0.00    +0.002 C 
ATOM     21  C   UNL     1       3.124  -5.734  26.287  0.00  0.00    +0.022 C 
ENDBRANCH  13  16
ENDBRANCH   7  10
ENDBRANCH   4   7
BRANCH   1  22
ATOM     22  C   UNL     1      10.555   1.470  23.514  0.00  0.00    +0.054 C 
BRANCH  22  23
ATOM     23  C   UNL     1      10.021   1.900  22.137  0.00  0.00    +0.109 C 
BRANCH  23  25
ATOM     24  C   UNL     1       7.636   2.550  22.245  0.00  0.00    +0.264 C 
ATOM     25  N   UNL     1       8.972   2.900  22.218  0.00  0.00    -0.310 N 
ATOM     26  H   UNL     1       9.200   3.887  22.303  0.00  0.00    +0.149 HD
ATOM     27  O   UNL     1       7.239   1.392  22.166  0.00  0.00    -0.268 OA
BRANCH  24  32
ATOM     28  C   UNL     1       4.139   6.951  23.011  0.00  0.00    +0.067 C 
ATOM     29  C   UNL     1       5.031   5.785  22.724  0.00  0.00    +0.056 A 
ATOM     30  N   UNL     1       6.331   6.058  22.449  0.00  0.00    -0.256 NA
ATOM     31  C   UNL     1       7.138   4.982  22.274  0.00  0.00    +0.144 A 
ATOM     32  C   UNL     1       6.672   3.678  22.372  0.00  0.00    +0.143 A 
ATOM     33  N   UNL     1       5.363   3.385  22.619  0.00  0.00    -0.247 NA
ATOM     34  C   UNL     1       4.566   4.472  22.791  0.00  0.00    +0.134 A 
ENDBRANCH  24  32
ENDBRANCH  23  25
ENDBRANCH  22  23
ENDBRANCH   1  22
TORSDOF 7
ENDMDL
MODEL 5
REMARK VINA RESULT:      -7.1      2.854     10.558
REMARK  Name = 
REMARK  8 active torsions:
REMARK  status: ('A' for Active; 'I' for Inactive)
REMARK    1  A    between atoms: C_1  and  C_2
REMARK    2  A    between atoms: C_5  and  C_8
REMARK    3  A    between atoms: N_10  and  C_11
REMARK    4  A    between atoms: C_11  and  C_12
REMARK    5  A    between atoms: C_12  and  C_13
REMARK    6  A    between atoms: C_16  and  S_19
REMARK    7  A    between atoms: S_19  and  N_22
REMARK    8  A    between atoms: N_25  and  C_26
REMARK                            x       y       z     vdW  Elec       q    Type
REMARK                         _______ _______ _______ _____ _____    ______ ____
ROOT
ATOM      1  C   UNL     1       8.906  -3.219  25.436  0.00  0.00    -0.046 A 
ATOM      2  C   UNL     1       9.392  -3.228  24.118  0.00  0.00    +0.005 A 
ATOM      3  C   UNL     1       9.251  -2.106  23.292  0.00  0.00    +0.029 A 
ATOM      4  C   UNL     1       8.651  -0.948  23.791  0.00  0.00    +0.109 A 
ATOM      5  C   UNL     1       8.204  -0.904  25.110  0.00  0.00    +0.029 A 
ATOM      6  C   UNL     1       8.349  -2.028  25.929  0.00  0.00    +0.005 A 
ENDROOT
BRANCH   4   7
ATOM      7  S   UNL     1       8.335   0.431  22.714  0.00  0.00    +0.076 S 
ATOM      8  O   UNL     1       6.896   0.555  22.584  0.00  0.00    -0.150 OA
ATOM      9  O   UNL     1       9.165   0.316  21.536  0.00  0.00    -0.150 OA
BRANCH   7  10
ATOM     10  N   UNL     1       8.803   1.764  23.594  0.00  0.00    -0.169 N 
ATOM     11  H   UNL     1       9.319   1.533  24.432  0.00  0.00    +0.178 HD
ATOM     12  C   UNL     1       8.485   3.062  23.245  0.00  0.00    +0.319 C 
ATOM     13  N   UNL     1       8.914   3.995  24.147  0.00  0.00    -0.295 N 
ATOM     14  H   UNL     1       9.492   3.703  24.919  0.00  0.00    +0.151 HD
ATOM     15  O   UNL     1       7.896   3.349  22.214  0.00  0.00    -0.251 OA
BRANCH  13  16
ATOM     16  C   UNL     1       8.777   5.417  23.851  0.00  0.00    +0.074 C 
ATOM     17  C   UNL     1      10.125   6.025  23.436  0.00  0.00    +0.022 C 
ATOM     18  C   UNL     1      11.079   6.191  24.617  0.00  0.00    +0.002 C 
ATOM     19  C   UNL     1      10.436   6.982  25.751  0.00  0.00    +0.000 C 
ATOM     20  C   UNL     1       9.114   6.364  26.194  0.00  0.00    +0.002 C 
ATOM     21  C   UNL     1       8.153   6.180  25.021  0.00  0.00    +0.022 C 
ENDBRANCH  13  16
ENDBRANCH   7  10
ENDBRANCH   4   7
BRANCH   1  22
ATOM     22  C   UNL     1       9.035  -4.466  26.294  0.00  0.00    +0.054 C 
BRANCH  22  23
ATOM     23  C   UNL     1       7.733  -4.916  26.978  0.00  0.00    +0.109 C 
BRANCH  23  25
ATOM     24  C   UNL     1       5.689  -6.133  26.297  0.00  0.00    +0.264 C 
ATOM     25  N   UNL     1       6.658  -5.182  26.040  0.00  0.00    -0.310 N 
ATOM     26  H   UNL     1       6.567  -4.638  25.185  0.00  0.00    +0.149 HD
ATOM     27  O   UNL     1       5.684  -6.839  27.300  0.00  0.00    -0.268 OA
BRANCH  24  32
ATOM     28  C   UNL     1       1.444  -6.416  22.543  0.00  0.00    +0.067 C 
ATOM     29  C   UNL     1       2.617  -6.379  23.471  0.00  0.00    +0.056 A 
ATOM     30  N   UNL     1       3.265  -5.194  23.595  0.00  0.00    -0.256 NA
ATOM     31  C   UNL     1       4.272  -5.163  24.503  0.00  0.00    +0.144 A 
ATOM     32  C   UNL     1       4.624  -6.268  25.264  0.00  0.00    +0.143 A 
ATOM     33  N   UNL     1       4.003  -7.475  25.132  0.00  0.00    -0.247 NA
ATOM     34  C   UNL     1       2.996  -7.493  24.219  0.00  0.00    +0.134 A 
ENDBRANCH  24  32
ENDBRANCH  23  25
ENDBRANCH  22  23
ENDBRANCH   1  22
TORSDOF 7
ENDMDL
MODEL 6
REMARK VINA RESULT:      -7.0      2.936      4.165
REMARK  Name = 
REMARK  8 active torsions:
REMARK  status: ('A' for Active; 'I' for Inactive)
REMARK    1  A    between atoms: C_1  and  C_2
REMARK    2  A    between atoms: C_5  and  C_8
REMARK    3  A    between atoms: N_10  and  C_11
REMARK    4  A    between atoms: C_11  and  C_12
REMARK    5  A    between atoms: C_12  and  C_13
REMARK    6  A    between atoms: C_16  and  S_19
REMARK    7  A    between atoms: S_19  and  N_22
REMARK    8  A    between atoms: N_25  and  C_26
REMARK                            x       y       z     vdW  Elec       q    Type
REMARK                         _______ _______ _______ _____ _____    ______ ____
ROOT
ATOM      1  C   UNL     1       9.170  -0.583  22.331  0.00  0.00    -0.046 A 
ATOM      2  C   UNL     1      10.300  -1.290  22.773  0.00  0.00    +0.005 A 
ATOM      3  C   UNL     1      10.168  -2.404  23.611  0.00  0.00    +0.029 A 
ATOM      4  C   UNL     1       8.896  -2.843  23.988  0.00  0.00    +0.109 A 
ATOM      5  C   UNL     1       7.762  -2.181  23.522  0.00  0.00    +0.029 A 
ATOM      6  C   UNL     1       7.902  -1.070  22.685  0.00  0.00    +0.005 A 
ENDROOT
BRANCH   4   7
ATOM      7  S   UNL     1       8.717  -4.163  25.164  0.00  0.00    +0.076 S 
ATOM      8  O   UNL     1       8.774  -3.572  26.487  0.00  0.00    -0.150 OA
ATOM      9  O   UNL     1       9.612  -5.243  24.811  0.00  0.00    -0.150 OA
BRANCH   7  10
ATOM     10  N   UNL     1       7.142  -4.670  24.987  0.00  0.00    -0.169 N 
ATOM     11  H   UNL     1       6.667  -4.245  24.203  0.00  0.00    +0.178 HD
ATOM     12  C   UNL     1       6.520  -5.553  25.849  0.00  0.00    +0.319 C 
ATOM     13  N   UNL     1       5.205  -5.776  25.553  0.00  0.00    -0.295 N 
ATOM     14  H   UNL     1       4.817  -5.383  24.710  0.00  0.00    +0.151 HD
ATOM     15  O   UNL     1       7.100  -6.099  26.775  0.00  0.00    -0.251 OA
BRANCH  13  16
ATOM     16  C   UNL     1       4.451  -6.788  26.285  0.00  0.00    +0.074 C 
ATOM     17  C   UNL     1       3.460  -7.512  25.361  0.00  0.00    +0.022 C 
ATOM     18  C   UNL     1       2.260  -6.641  24.995  0.00  0.00    +0.002 C 
ATOM     19  C   UNL     1       1.565  -6.093  26.236  0.00  0.00    +0.000 C 
ATOM     20  C   UNL     1       2.535  -5.341  27.143  0.00  0.00    +0.002 C 
ATOM     21  C   UNL     1       3.747  -6.194  27.507  0.00  0.00    +0.022 C 
ENDBRANCH  13  16
ENDBRANCH   7  10
ENDBRANCH   4   7
BRANCH   1  22
ATOM     22  C   UNL     1       9.348   0.648  21.458  0.00  0.00    +0.054 C 
BRANCH  22  23
ATOM     23  C   UNL     1      10.024   1.841  22.155  0.00  0.00    +0.109 C 
BRANCH  23  25
ATOM     24  C   UNL     1       8.396   3.041  23.580  0.00  0.00    +0.264 C 
ATOM     25  N   UNL     1       9.444   2.151  23.448  0.00  0.00    -0.310 N 
ATOM     26  H   UNL     1       9.768   1.681  24.290  0.00  0.00    +0.149 HD
ATOM     27  O   UNL     1       7.909   3.656  22.636  0.00  0.00    -0.268 OA
BRANCH  24  32
ATOM     28  C   UNL     1       6.734   3.819  28.949  0.00  0.00    +0.067 C 
ATOM     29  C   UNL     1       7.087   3.627  27.507  0.00  0.00    +0.056 A 
ATOM     30  N   UNL     1       7.638   4.685  26.863  0.00  0.00    -0.256 NA
ATOM     31  C   UNL     1       8.026   4.462  25.582  0.00  0.00    +0.144 A 
ATOM     32  C   UNL     1       7.874   3.230  24.962  0.00  0.00    +0.143 A 
ATOM     33  N   UNL     1       7.296   2.163  25.585  0.00  0.00    -0.247 NA
ATOM     34  C   UNL     1       6.912   2.400  26.867  0.00  0.00    +0.134 A 
ENDBRANCH  24  32
ENDBRANCH  23  25
ENDBRANCH  22  23
ENDBRANCH   1  22
TORSDOF 7
ENDMDL
MODEL 7
REMARK VINA RESULT:      -7.0      3.952      9.576
REMARK  Name = 
REMARK  8 active torsions:
REMARK  status: ('A' for Active; 'I' for Inactive)
REMARK    1  A    between atoms: C_1  and  C_2
REMARK    2  A    between atoms: C_5  and  C_8
REMARK    3  A    between atoms: N_10  and  C_11
REMARK    4  A    between atoms: C_11  and  C_12
REMARK    5  A    between atoms: C_12  and  C_13
REMARK    6  A    between atoms: C_16  and  S_19
REMARK    7  A    between atoms: S_19  and  N_22
REMARK    8  A    between atoms: N_25  and  C_26
REMARK                            x       y       z     vdW  Elec       q    Type
REMARK                         _______ _______ _______ _____ _____    ______ ____
ROOT
ATOM      1  C   UNL     1       9.725   0.088  22.552  0.00  0.00    -0.046 A 
ATOM      2  C   UNL     1       8.930   0.927  21.753  0.00  0.00    +0.005 A 
ATOM      3  C   UNL     1       8.750   2.275  22.086  0.00  0.00    +0.029 A 
ATOM      4  C   UNL     1       9.393   2.806  23.206  0.00  0.00    +0.109 A 
ATOM      5  C   UNL     1      10.222   2.000  23.984  0.00  0.00    +0.029 A 
ATOM      6  C   UNL     1      10.398   0.655  23.646  0.00  0.00    +0.005 A 
ENDROOT
BRANCH   4   7
ATOM      7  S   UNL     1       9.060   4.474  23.723  0.00  0.00    +0.076 S 
ATOM      8  O   UNL     1       7.892   4.926  22.993  0.00  0.00    -0.150 OA
ATOM      9  O   UNL     1      10.286   5.241  23.681  0.00  0.00    -0.150 OA
BRANCH   7  10
ATOM     10  N   UNL     1       8.552   4.329  25.301  0.00  0.00    -0.169 N 
ATOM     11  H   UNL     1       9.140   4.820  25.961  0.00  0.00    +0.178 HD
ATOM     12  C   UNL     1       7.460   3.578  25.688  0.00  0.00    +0.319 C 
ATOM     13  N   UNL     1       7.265   3.544  27.040  0.00  0.00    -0.295 N 
ATOM     14  H   UNL     1       7.840   4.121  27.634  0.00  0.00    +0.151 HD
ATOM     15  O   UNL     1       6.724   3.014  24.892  0.00  0.00    -0.251 OA
BRANCH  13  16
ATOM     16  C   UNL     1       6.075   2.909  27.594  0.00  0.00    +0.074 C 
ATOM     17  C   UNL     1       5.480   3.751  28.732  0.00  0.00    +0.022 C 
ATOM     18  C   UNL     1       6.316   3.682  30.009  0.00  0.00    +0.002 C 
ATOM     19  C   UNL     1       6.552   2.241  30.447  0.00  0.00    +0.000 C 
ATOM     20  C   UNL     1       7.177   1.405  29.334  0.00  0.00    +0.002 C 
ATOM     21  C   UNL     1       6.359   1.474  28.047  0.00  0.00    +0.022 C 
ENDBRANCH  13  16
ENDBRANCH   7  10
ENDBRANCH   4   7
BRANCH   1  22
ATOM     22  C   UNL     1       9.867  -1.381  22.189  0.00  0.00    +0.054 C 
BRANCH  22  23
ATOM     23  C   UNL     1      10.199  -2.308  23.371  0.00  0.00    +0.109 C 
BRANCH  23  25
ATOM     24  C   UNL     1       9.169  -4.190  24.602  0.00  0.00    +0.264 C 
ATOM     25  N   UNL     1       9.042  -3.017  23.883  0.00  0.00    -0.310 N 
ATOM     26  H   UNL     1       8.105  -2.641  23.762  0.00  0.00    +0.149 HD
ATOM     27  O   UNL     1      10.246  -4.732  24.826  0.00  0.00    -0.268 OA
BRANCH  24  32
ATOM     28  C   UNL     1       4.491  -6.766  26.520  0.00  0.00    +0.067 C 
ATOM     29  C   UNL     1       5.688  -6.008  26.038  0.00  0.00    +0.056 A 
ATOM     30  N   UNL     1       6.763  -5.968  26.863  0.00  0.00    -0.256 NA
ATOM     31  C   UNL     1       7.864  -5.347  26.370  0.00  0.00    +0.144 A 
ATOM     32  C   UNL     1       7.898  -4.786  25.101  0.00  0.00    +0.143 A 
ATOM     33  N   UNL     1       6.817  -4.791  24.270  0.00  0.00    -0.247 NA
ATOM     34  C   UNL     1       5.721  -5.416  24.775  0.00  0.00    +0.134 A 
ENDBRANCH  24  32
ENDBRANCH  23  25
ENDBRANCH  22  23
ENDBRANCH   1  22
TORSDOF 7
ENDMDL
MODEL 8
REMARK VINA RESULT:      -7.0      2.731     10.018
REMARK  Name = 
REMARK  8 active torsions:
REMARK  status: ('A' for Active; 'I' for Inactive)
REMARK    1  A    between atoms: C_1  and  C_2
REMARK    2  A    between atoms: C_5  and  C_8
REMARK    3  A    between atoms: N_10  and  C_11
REMARK    4  A    between atoms: C_11  and  C_12
REMARK    5  A    between atoms: C_12  and  C_13
REMARK    6  A    between atoms: C_16  and  S_19
REMARK    7  A    between atoms: S_19  and  N_22
REMARK    8  A    between atoms: N_25  and  C_26
REMARK                            x       y       z     vdW  Elec       q    Type
REMARK                         _______ _______ _______ _____ _____    ______ ____
ROOT
ATOM      1  C   UNL     1       6.238  -4.740  27.687  0.00  0.00    -0.046 A 
ATOM      2  C   UNL     1       5.776  -3.666  26.909  0.00  0.00    +0.005 A 
ATOM      3  C   UNL     1       6.450  -3.281  25.744  0.00  0.00    +0.029 A 
ATOM      4  C   UNL     1       7.579  -3.991  25.327  0.00  0.00    +0.109 A 
ATOM      5  C   UNL     1       8.025  -5.088  26.062  0.00  0.00    +0.029 A 
ATOM      6  C   UNL     1       7.346  -5.467  27.224  0.00  0.00    +0.005 A 
ENDROOT
BRANCH   4   7
ATOM      7  S   UNL     1       8.528  -3.426  23.935  0.00  0.00    +0.076 S 
ATOM      8  O   UNL     1       7.915  -3.979  22.743  0.00  0.00    -0.150 OA
ATOM      9  O   UNL     1       9.934  -3.640  24.197  0.00  0.00    -0.150 OA
BRANCH   7  10
ATOM     10  N   UNL     1       8.222  -1.792  23.856  0.00  0.00    -0.169 N 
ATOM     11  H   UNL     1       7.658  -1.450  24.621  0.00  0.00    +0.178 HD
ATOM     12  C   UNL     1       8.657  -0.980  22.826  0.00  0.00    +0.319 C 
ATOM     13  N   UNL     1       8.234   0.315  22.930  0.00  0.00    -0.295 N 
ATOM     14  H   UNL     1       7.741   0.606  23.759  0.00  0.00    +0.151 HD
ATOM     15  O   UNL     1       9.372  -1.380  21.920  0.00  0.00    -0.251 OA
BRANCH  13  16
ATOM     16  C   UNL     1       8.724   1.323  21.996  0.00  0.00    +0.074 C 
ATOM     17  C   UNL     1      10.144   1.772  22.367  0.00  0.00    +0.022 C 
ATOM     18  C   UNL     1      10.170   2.665  23.606  0.00  0.00    +0.002 C 
ATOM     19  C   UNL     1       9.229   3.857  23.458  0.00  0.00    +0.000 C 
ATOM     20  C   UNL     1       7.807   3.418  23.125  0.00  0.00    +0.002 C 
ATOM     21  C   UNL     1       7.767   2.513  21.895  0.00  0.00    +0.022 C 
ENDBRANCH  13  16
ENDBRANCH   7  10
ENDBRANCH   4   7
BRANCH   1  22
ATOM     22  C   UNL     1       5.510  -5.108  28.969  0.00  0.00    +0.054 C 
BRANCH  22  23
ATOM     23  C   UNL     1       5.055  -6.575  29.055  0.00  0.00    +0.109 C 
BRANCH  23  25
ATOM     24  C   UNL     1       3.030  -6.755  27.645  0.00  0.00    +0.264 C 
ATOM     25  N   UNL     1       4.367  -7.029  27.862  0.00  0.00    -0.310 N 
ATOM     26  H   UNL     1       4.868  -7.526  27.129  0.00  0.00    +0.149 HD
ATOM     27  O   UNL     1       2.326  -6.151  28.447  0.00  0.00    -0.268 OA
BRANCH  24  32
ATOM     28  C   UNL     1       1.026  -8.357  22.584  0.00  0.00    +0.067 C 
ATOM     29  C   UNL     1       1.541  -8.019  23.948  0.00  0.00    +0.056 A 
ATOM     30  N   UNL     1       2.887  -7.982  24.105  0.00  0.00    -0.256 NA
ATOM     31  C   UNL     1       3.330  -7.593  25.327  0.00  0.00    +0.144 A 
ATOM     32  C   UNL     1       2.467  -7.249  26.357  0.00  0.00    +0.143 A 
ATOM     33  N   UNL     1       1.110  -7.307  26.226  0.00  0.00    -0.247 NA
ATOM     34  C   UNL     1       0.680  -7.699  24.998  0.00  0.00    +0.134 A 
ENDBRANCH  24  32
ENDBRANCH  23  25
ENDBRANCH  22  23
ENDBRANCH   1  22
TORSDOF 7
ENDMDL
MODEL 9
REMARK VINA RESULT:      -6.9      3.228      9.926
REMARK  Name = 
REMARK  8 active torsions:
REMARK  status: ('A' for Active; 'I' for Inactive)
REMARK    1  A    between atoms: C_1  and  C_2
REMARK    2  A    between atoms: C_5  and  C_8
REMARK    3  A    between atoms: N_10  and  C_11
REMARK    4  A    between atoms: C_11  and  C_12
REMARK    5  A    between atoms: C_12  and  C_13
REMARK    6  A    between atoms: C_16  and  S_19
REMARK    7  A    between atoms: S_19  and  N_22
REMARK    8  A    between atoms: N_25  and  C_26
REMARK                            x       y       z     vdW  Elec       q    Type
REMARK                         _______ _______ _______ _____ _____    ______ ____
ROOT
ATOM      1  C   UNL     1       6.867  -2.388  22.510  0.00  0.00    -0.046 A 
ATOM      2  C   UNL     1       6.292  -1.559  23.488  0.00  0.00    +0.005 A 
ATOM      3  C   UNL     1       7.094  -0.768  24.321  0.00  0.00    +0.029 A 
ATOM      4  C   UNL     1       8.481  -0.773  24.159  0.00  0.00    +0.109 A 
ATOM      5  C   UNL     1       9.066  -1.555  23.164  0.00  0.00    +0.029 A 
ATOM      6  C   UNL     1       8.259  -2.341  22.335  0.00  0.00    +0.005 A 
ENDROOT
BRANCH   4   7
ATOM      7  S   UNL     1       9.518   0.111  25.299  0.00  0.00    +0.076 S 
ATOM      8  O   UNL     1      10.842   0.183  24.711  0.00  0.00    -0.150 OA
ATOM      9  O   UNL     1       9.341  -0.434  26.627  0.00  0.00    -0.150 OA
BRANCH   7  10
ATOM     10  N   UNL     1       8.945   1.673  25.262  0.00  0.00    -0.169 N 
ATOM     11  H   UNL     1       8.497   1.959  26.121  0.00  0.00    +0.178 HD
ATOM     12  C   UNL     1       9.029   2.493  24.153  0.00  0.00    +0.319 C 
ATOM     13  N   UNL     1       8.433   3.711  24.323  0.00  0.00    -0.295 N 
ATOM     14  H   UNL     1       8.076   3.961  25.231  0.00  0.00    +0.151 HD
ATOM     15  O   UNL     1       9.603   2.166  23.125  0.00  0.00    -0.251 OA
BRANCH  13  16
ATOM     16  C   UNL     1       8.558   4.738  23.294  0.00  0.00    +0.074 C 
ATOM     17  C   UNL     1       8.933   6.092  23.912  0.00  0.00    +0.022 C 
ATOM     18  C   UNL     1       7.765   6.740  24.653  0.00  0.00    +0.002 C 
ATOM     19  C   UNL     1       6.532   6.855  23.765  0.00  0.00    +0.000 C 
ATOM     20  C   UNL     1       6.130   5.507  23.175  0.00  0.00    +0.002 C 
ATOM     21  C   UNL     1       7.292   4.841  22.441  0.00  0.00    +0.022 C 
ENDBRANCH  13  16
ENDBRANCH   7  10
ENDBRANCH   4   7
BRANCH   1  22
ATOM     22  C   UNL     1       5.974  -3.267  21.651  0.00  0.00    +0.054 C 
BRANCH  22  23
ATOM     23  C   UNL     1       6.021  -4.766  21.995  0.00  0.00    +0.109 C 
BRANCH  23  25
ATOM     24  C   UNL     1       6.895  -5.312  24.244  0.00  0.00    +0.264 C 
ATOM     25  N   UNL     1       5.831  -5.033  23.408  0.00  0.00    -0.310 N 
ATOM     26  H   UNL     1       4.906  -4.978  23.828  0.00  0.00    +0.149 HD
ATOM     27  O   UNL     1       8.056  -5.389  23.857  0.00  0.00    -0.268 OA
BRANCH  24  32
ATOM     28  C   UNL     1       5.817  -6.392  29.709  0.00  0.00    +0.067 C 
ATOM     29  C   UNL     1       6.066  -6.025  28.280  0.00  0.00    +0.056 A 
ATOM     30  N   UNL     1       7.328  -5.650  27.953  0.00  0.00    -0.256 NA
ATOM     31  C   UNL     1       7.549  -5.403  26.637  0.00  0.00    +0.144 A 
ATOM     32  C   UNL     1       6.554  -5.525  25.679  0.00  0.00    +0.143 A 
ATOM     33  N   UNL     1       5.273  -5.872  25.993  0.00  0.00    -0.247 NA
ATOM     34  C   UNL     1       5.065  -6.117  27.314  0.00  0.00    +0.134 A 
ENDBRANCH  24  32
ENDBRANCH  23  25
ENDBRANCH  22  23
ENDBRANCH   1  22
TORSDOF 7
ENDMDL
