MODEL 1
REMARK VINA RESULT:      -7.8      0.000      0.000
REMARK  Name = 
REMARK  17 active torsions:
REMARK  status: ('A' for Active; 'I' for Inactive)
REMARK    1  A    between atoms: O_1  and  C_2
REMARK    2  A    between atoms: C_2  and  C_3
REMARK    3  A    between atoms: C_6  and  O_8
REMARK    4  A    between atoms: O_8  and  P_9
REMARK    5  A    between atoms: P_9  and  O_10
REMARK    6  A    between atoms: P_9  and  O_12
REMARK    7  A    between atoms: O_12  and  P_13
REMARK    8  A    between atoms: P_13  and  O_14
REMARK    9  A    between atoms: P_13  and  O_16
REMARK   10  A    between atoms: O_16  and  C_17
REMARK   11  A    between atoms: C_17  and  C_18
REMARK   12  A    between atoms: C_21  and  N_29
REMARK   13  A    between atoms: C_23  and  O_25
REMARK   14  A    between atoms: C_26  and  O_28
REMARK   15  A    between atoms: C_37  and  O_39
REMARK   16  A    between atoms: C_40  and  O_42
REMARK   17  A    between atoms: C_43  and  O_45
REMARK                            x       y       z     vdW  Elec       q    Type
REMARK                         _______ _______ _______ _____ _____    ______ ____
ROOT
ATOM      1  P   UNL     1       9.396  -1.293  22.604  0.00  0.00    +0.483 P 
ATOM      2  O   UNL     1      10.342  -2.477  22.831  0.00  0.00    -0.227 OA
ENDROOT
BRANCH   1   3
ATOM      3  O   UNL     1       9.819  -0.787  21.115  0.00  0.00    -0.302 OA
ATOM      4  H   UNL     1      10.697  -0.356  21.208  0.00  0.00    +0.222 HD
ENDBRANCH   1   3
BRANCH   1   5
ATOM      5  O   UNL     1      10.595  -0.255  23.298  0.00  0.00    -0.186 OA
BRANCH   5   6
ATOM      6  P   UNL     1       9.823   0.935  24.288  0.00  0.00    +0.486 P 
ATOM      7  O   UNL     1      10.991   1.904  24.133  0.00  0.00    -0.227 OA
BRANCH   6   8
ATOM      8  O   UNL     1       9.050   2.125  25.278  0.00  0.00    -0.302 OA
ATOM      9  H   UNL     1       8.866   2.852  24.647  0.00  0.00    +0.222 HD
ENDBRANCH   6   8
BRANCH   6  10
ATOM     10  O   UNL     1       8.704   1.204  23.106  0.00  0.00    -0.254 OA
BRANCH  10  15
ATOM     11  C   UNL     1       7.364   4.604  23.137  0.00  0.00    +0.178 C 
ATOM     12  C   UNL     1       5.926   4.395  22.643  0.00  0.00    +0.177 C 
ATOM     13  C   UNL     1       5.392   3.070  23.198  0.00  0.00    +0.179 C 
ATOM     14  C   UNL     1       6.348   1.900  22.904  0.00  0.00    +0.202 C 
ATOM     15  C   UNL     1       7.784   2.271  23.356  0.00  0.00    +0.293 C 
ATOM     16  O   UNL     1       8.207   3.498  22.741  0.00  0.00    -0.340 OA
BRANCH  12  17
ATOM     17  O   UNL     1       5.112   5.503  23.042  0.00  0.00    -0.386 OA
ATOM     18  H   UNL     1       5.564   6.335  22.816  0.00  0.00    +0.210 HD
ENDBRANCH  12  17
BRANCH  13  19
ATOM     19  O   UNL     1       4.091   2.796  22.664  0.00  0.00    -0.386 OA
ATOM     20  H   UNL     1       3.832   1.913  22.994  0.00  0.00    +0.210 HD
ENDBRANCH  13  19
BRANCH  14  21
ATOM     21  O   UNL     1       5.822   0.744  23.584  0.00  0.00    -0.384 OA
ATOM     22  H   UNL     1       6.497   0.041  23.583  0.00  0.00    +0.210 HD
ENDBRANCH  14  21
BRANCH  11  23
ATOM     23  C   UNL     1       7.923   5.934  22.607  0.00  0.00    +0.190 C 
BRANCH  23  24
ATOM     24  O   UNL     1       7.466   6.177  21.279  0.00  0.00    -0.392 OA
ATOM     25  H   UNL     1       6.515   5.970  21.273  0.00  0.00    +0.210 HD
ENDBRANCH  23  24
ENDBRANCH  11  23
ENDBRANCH  10  15
ENDBRANCH   6  10
ENDBRANCH   5   6
ENDBRANCH   1   5
BRANCH   1  26
ATOM     26  O   UNL     1       8.199  -2.330  21.909  0.00  0.00    -0.284 OA
BRANCH  26  27
ATOM     27  C   UNL     1       7.000  -2.354  22.703  0.00  0.00    +0.206 C 
BRANCH  27  28
ATOM     28  C   UNL     1       6.407  -3.759  22.787  0.00  0.00    +0.178 C 
ATOM     29  C   UNL     1       7.488  -4.825  22.599  0.00  0.00    +0.178 C 
ATOM     30  C   UNL     1       7.913  -5.206  24.013  0.00  0.00    +0.195 C 
ATOM     31  C   UNL     1       6.904  -4.482  24.932  0.00  0.00    +0.255 C 
ATOM     32  O   UNL     1       5.851  -3.989  24.092  0.00  0.00    -0.346 OA
BRANCH  31  33
ATOM     33  N   UNL     1       6.371  -5.323  26.003  0.00  0.00    -0.271 N 
ATOM     34  C   UNL     1       7.141  -5.428  27.157  0.00  0.00    +0.331 A 
ATOM     35  O   UNL     1       8.242  -4.903  27.288  0.00  0.00    -0.246 OA
ATOM     36  N   UNL     1       6.601  -6.181  28.164  0.00  0.00    -0.275 N 
ATOM     37  H   UNL     1       7.144  -6.279  29.007  0.00  0.00    +0.173 HD
ATOM     38  C   UNL     1       5.387  -6.805  28.140  0.00  0.00    +0.254 A 
ATOM     39  O   UNL     1       4.943  -7.465  29.067  0.00  0.00    -0.268 OA
ATOM     40  C   UNL     1       4.607  -6.625  26.903  0.00  0.00    +0.088 A 
ATOM     41  C   UNL     1       5.117  -5.900  25.914  0.00  0.00    +0.098 A 
ENDBRANCH  31  33
BRANCH  30  42
ATOM     42  O   UNL     1       9.247  -4.762  24.282  0.00  0.00    -0.385 OA
ATOM     43  H   UNL     1       9.838  -5.409  23.835  0.00  0.00    +0.210 HD
ENDBRANCH  30  42
BRANCH  29  44
ATOM     44  O   UNL     1       6.939  -5.971  21.930  0.00  0.00    -0.386 OA
ATOM     45  H   UNL     1       6.088  -5.719  21.530  0.00  0.00    +0.210 HD
ENDBRANCH  29  44
ENDBRANCH  27  28
ENDBRANCH  26  27
ENDBRANCH   1  26
TORSDOF 17
ENDMDL
MODEL 2
REMARK VINA RESULT:      -7.5      2.196      3.152
REMARK  Name = 
REMARK  17 active torsions:
REMARK  status: ('A' for Active; 'I' for Inactive)
REMARK    1  A    between atoms: O_1  and  C_2
REMARK    2  A    between atoms: C_2  and  C_3
REMARK    3  A    between atoms: C_6  and  O_8
REMARK    4  A    between atoms: O_8  and  P_9
REMARK    5  A    between atoms: P_9  and  O_10
REMARK    6  A    between atoms: P_9  and  O_12
REMARK    7  A    between atoms: O_12  and  P_13
REMARK    8  A    between atoms: P_13  and  O_14
REMARK    9  A    between atoms: P_13  and  O_16
REMARK   10  A    between atoms: O_16  and  C_17
REMARK   11  A    between atoms: C_17  and  C_18
REMARK   12  A    between atoms: C_21  and  N_29
REMARK   13  A    between atoms: C_23  and  O_25
REMARK   14  A    between atoms: C_26  and  O_28
REMARK   15  A    between atoms: C_37  and  O_39
REMARK   16  A    between atoms: C_40  and  O_42
REMARK   17  A    between atoms: C_43  and  O_45
REMARK                            x       y       z     vdW  Elec       q    Type
REMARK                         _______ _______ _______ _____ _____    ______ ____
ROOT
ATOM      1  P   UNL     1       9.049  -1.253  22.299  0.00  0.00    +0.483 P 
ATOM      2  O   UNL     1       7.740  -0.617  22.780  0.00  0.00    -0.227 OA
ENDROOT
BRANCH   1   3
ATOM      3  O   UNL     1       9.652  -1.893  23.669  0.00  0.00    -0.302 OA
ATOM      4  H   UNL     1       9.152  -1.484  24.409  0.00  0.00    +0.222 HD
ENDBRANCH   1   3
BRANCH   1   5
ATOM      5  O   UNL     1       9.853   0.240  22.640  0.00  0.00    -0.186 OA
BRANCH   5   6
ATOM      6  P   UNL     1       9.269   0.881  24.137  0.00  0.00    +0.486 P 
ATOM      7  O   UNL     1      10.643   0.761  24.790  0.00  0.00    -0.227 OA
BRANCH   6   8
ATOM      8  O   UNL     1       8.685   1.521  25.634  0.00  0.00    -0.302 OA
ATOM      9  H   UNL     1       7.741   1.707  25.441  0.00  0.00    +0.222 HD
ENDBRANCH   6   8
BRANCH   6  10
ATOM     10  O   UNL     1       9.101   2.368  23.444  0.00  0.00    -0.254 OA
BRANCH  10  15
ATOM     11  C   UNL     1      11.981   4.617  23.515  0.00  0.00    +0.178 C 
ATOM     12  C   UNL     1      11.342   5.958  23.904  0.00  0.00    +0.177 C 
ATOM     13  C   UNL     1      10.207   5.702  24.901  0.00  0.00    +0.179 C 
ATOM     14  C   UNL     1       9.215   4.645  24.382  0.00  0.00    +0.202 C 
ATOM     15  C   UNL     1       9.989   3.381  23.928  0.00  0.00    +0.293 C 
ATOM     16  O   UNL     1      10.993   3.721  22.958  0.00  0.00    -0.340 OA
BRANCH  12  17
ATOM     17  O   UNL     1      12.339   6.830  24.447  0.00  0.00    -0.386 OA
ATOM     18  H   UNL     1      13.213   6.576  24.103  0.00  0.00    +0.210 HD
ENDBRANCH  12  17
BRANCH  13  19
ATOM     19  O   UNL     1       9.521   6.925  25.197  0.00  0.00    -0.386 OA
ATOM     20  H   UNL     1       9.832   7.586  24.548  0.00  0.00    +0.210 HD
ENDBRANCH  13  19
BRANCH  14  21
ATOM     21  O   UNL     1       8.280   4.385  25.446  0.00  0.00    -0.384 OA
ATOM     22  H   UNL     1       7.376   4.390  25.082  0.00  0.00    +0.210 HD
ENDBRANCH  14  21
BRANCH  11  23
ATOM     23  C   UNL     1      13.133   4.843  22.523  0.00  0.00    +0.190 C 
BRANCH  23  24
ATOM     24  O   UNL     1      14.355   5.079  23.217  0.00  0.00    -0.392 OA
ATOM     25  H   UNL     1      14.162   4.958  24.164  0.00  0.00    +0.210 HD
ENDBRANCH  23  24
ENDBRANCH  11  23
ENDBRANCH  10  15
ENDBRANCH   6  10
ENDBRANCH   5   6
ENDBRANCH   1   5
BRANCH   1  26
ATOM     26  O   UNL     1       8.244  -2.746  21.958  0.00  0.00    -0.284 OA
BRANCH  26  27
ATOM     27  C   UNL     1       6.887  -2.732  22.438  0.00  0.00    +0.206 C 
BRANCH  27  28
ATOM     28  C   UNL     1       6.345  -4.146  22.635  0.00  0.00    +0.178 C 
ATOM     29  C   UNL     1       7.463  -5.185  22.533  0.00  0.00    +0.178 C 
ATOM     30  C   UNL     1       7.897  -5.434  23.975  0.00  0.00    +0.195 C 
ATOM     31  C   UNL     1       6.860  -4.675  24.831  0.00  0.00    +0.255 C 
ATOM     32  O   UNL     1       5.793  -4.289  23.954  0.00  0.00    -0.346 OA
BRANCH  31  33
ATOM     33  N   UNL     1       6.354  -5.444  25.967  0.00  0.00    -0.271 N 
ATOM     34  C   UNL     1       7.111  -5.409  27.134  0.00  0.00    +0.331 A 
ATOM     35  O   UNL     1       8.182  -4.818  27.229  0.00  0.00    -0.246 OA
ATOM     36  N   UNL     1       6.595  -6.097  28.198  0.00  0.00    -0.275 N 
ATOM     37  H   UNL     1       7.130  -6.092  29.051  0.00  0.00    +0.173 HD
ATOM     38  C   UNL     1       5.414  -6.782  28.217  0.00  0.00    +0.254 A 
ATOM     39  O   UNL     1       4.990  -7.380  29.194  0.00  0.00    -0.268 OA
ATOM     40  C   UNL     1       4.644  -6.751  26.960  0.00  0.00    +0.088 A 
ATOM     41  C   UNL     1       5.132  -6.090  25.916  0.00  0.00    +0.098 A 
ENDBRANCH  31  33
BRANCH  30  42
ATOM     42  O   UNL     1       9.214  -4.922  24.207  0.00  0.00    -0.385 OA
ATOM     43  H   UNL     1       9.827  -5.564  23.783  0.00  0.00    +0.210 HD
ENDBRANCH  30  42
BRANCH  29  44
ATOM     44  O   UNL     1       6.957  -6.400  21.960  0.00  0.00    -0.386 OA
ATOM     45  H   UNL     1       6.305  -6.784  22.573  0.00  0.00    +0.210 HD
ENDBRANCH  29  44
ENDBRANCH  27  28
ENDBRANCH  26  27
ENDBRANCH   1  26
TORSDOF 17
ENDMDL
MODEL 3
REMARK VINA RESULT:      -7.4      1.177      2.544
REMARK  Name = 
REMARK  17 active torsions:
REMARK  status: ('A' for Active; 'I' for Inactive)
REMARK    1  A    between atoms: O_1  and  C_2
REMARK    2  A    between atoms: C_2  and  C_3
REMARK    3  A    between atoms: C_6  and  O_8
REMARK    4  A    between atoms: O_8  and  P_9
REMARK    5  A    between atoms: P_9  and  O_10
REMARK    6  A    between atoms: P_9  and  O_12
REMARK    7  A    between atoms: O_12  and  P_13
REMARK    8  A    between atoms: P_13  and  O_14
REMARK    9  A    between atoms: P_13  and  O_16
REMARK   10  A    between atoms: O_16  and  C_17
REMARK   11  A    between atoms: C_17  and  C_18
REMARK   12  A    between atoms: C_21  and  N_29
REMARK   13  A    between atoms: C_23  and  O_25
REMARK   14  A    between atoms: C_26  and  O_28
REMARK   15  A    between atoms: C_37  and  O_39
REMARK   16  A    between atoms: C_40  and  O_42
REMARK   17  A    between atoms: C_43  and  O_45
REMARK                            x       y       z     vdW  Elec       q    Type
REMARK                         _______ _______ _______ _____ _____    ______ ____
ROOT
ATOM      1  P   UNL     1       9.264  -1.582  22.966  0.00  0.00    +0.483 P 
ATOM      2  O   UNL     1       9.562  -2.446  24.197  0.00  0.00    -0.227 OA
ENDROOT
BRANCH   1   3
ATOM      3  O   UNL     1      10.514  -1.930  21.983  0.00  0.00    -0.302 OA
ATOM      4  H   UNL     1      10.506  -1.250  21.274  0.00  0.00    +0.222 HD
ENDBRANCH   1   3
BRANCH   1   5
ATOM      5  O   UNL     1      10.184  -0.307  23.689  0.00  0.00    -0.186 OA
BRANCH   5   6
ATOM      6  P   UNL     1      10.210   1.058  22.627  0.00  0.00    +0.486 P 
ATOM      7  O   UNL     1       9.245   0.389  21.651  0.00  0.00    -0.227 OA
BRANCH   6   8
ATOM      8  O   UNL     1      10.236   2.423  21.564  0.00  0.00    -0.302 OA
ATOM      9  H   UNL     1      11.154   2.754  21.652  0.00  0.00    +0.222 HD
ENDBRANCH   6   8
BRANCH   6  10
ATOM     10  O   UNL     1       9.369   1.945  23.733  0.00  0.00    -0.254 OA
BRANCH  10  15
ATOM     11  C   UNL     1       5.882   1.085  24.414  0.00  0.00    +0.178 C 
ATOM     12  C   UNL     1       5.190   2.455  24.363  0.00  0.00    +0.177 C 
ATOM     13  C   UNL     1       5.849   3.311  23.277  0.00  0.00    +0.179 C 
ATOM     14  C   UNL     1       7.379   3.370  23.443  0.00  0.00    +0.202 C 
ATOM     15  C   UNL     1       7.945   1.934  23.583  0.00  0.00    +0.293 C 
ATOM     16  O   UNL     1       7.299   1.236  24.660  0.00  0.00    -0.340 OA
BRANCH  12  17
ATOM     17  O   UNL     1       3.789   2.280  24.124  0.00  0.00    -0.386 OA
ATOM     18  H   UNL     1       3.653   1.961  23.214  0.00  0.00    +0.210 HD
ENDBRANCH  12  17
BRANCH  13  19
ATOM     19  O   UNL     1       5.297   4.633  23.282  0.00  0.00    -0.386 OA
ATOM     20  H   UNL     1       5.328   4.947  24.207  0.00  0.00    +0.210 HD
ENDBRANCH  13  19
BRANCH  14  21
ATOM     21  O   UNL     1       7.901   4.076  22.302  0.00  0.00    -0.384 OA
ATOM     22  H   UNL     1       7.382   4.890  22.168  0.00  0.00    +0.210 HD
ENDBRANCH  14  21
BRANCH  11  23
ATOM     23  C   UNL     1       5.233   0.198  25.488  0.00  0.00    +0.190 C 
BRANCH  23  24
ATOM     24  O   UNL     1       5.183  -1.159  25.055  0.00  0.00    -0.392 OA
ATOM     25  H   UNL     1       5.088  -1.136  24.087  0.00  0.00    +0.210 HD
ENDBRANCH  23  24
ENDBRANCH  11  23
ENDBRANCH  10  15
ENDBRANCH   6  10
ENDBRANCH   5   6
ENDBRANCH   1   5
BRANCH   1  26
ATOM     26  O   UNL     1       8.345  -2.858  22.244  0.00  0.00    -0.284 OA
BRANCH  26  27
ATOM     27  C   UNL     1       6.939  -2.709  22.513  0.00  0.00    +0.206 C 
BRANCH  27  28
ATOM     28  C   UNL     1       6.254  -4.062  22.692  0.00  0.00    +0.178 C 
ATOM     29  C   UNL     1       7.247  -5.211  22.512  0.00  0.00    +0.178 C 
ATOM     30  C   UNL     1       7.707  -5.554  23.926  0.00  0.00    +0.195 C 
ATOM     31  C   UNL     1       6.794  -4.717  24.848  0.00  0.00    +0.255 C 
ATOM     32  O   UNL     1       5.742  -4.189  24.029  0.00  0.00    -0.346 OA
BRANCH  31  33
ATOM     33  N   UNL     1       6.252  -5.466  25.981  0.00  0.00    -0.271 N 
ATOM     34  C   UNL     1       7.019  -5.486  27.142  0.00  0.00    +0.331 A 
ATOM     35  O   UNL     1       8.125  -4.962  27.232  0.00  0.00    -0.246 OA
ATOM     36  N   UNL     1       6.471  -6.153  28.204  0.00  0.00    -0.275 N 
ATOM     37  H   UNL     1       7.013  -6.188  29.053  0.00  0.00    +0.173 HD
ATOM     38  C   UNL     1       5.252  -6.766  28.227  0.00  0.00    +0.254 A 
ATOM     39  O   UNL     1       4.801  -7.346  29.202  0.00  0.00    -0.268 OA
ATOM     40  C   UNL     1       4.475  -6.677  26.977  0.00  0.00    +0.088 A 
ATOM     41  C   UNL     1       4.993  -6.037  25.935  0.00  0.00    +0.098 A 
ENDBRANCH  31  33
BRANCH  30  42
ATOM     42  O   UNL     1       9.080  -5.196  24.116  0.00  0.00    -0.385 OA
ATOM     43  H   UNL     1       9.068  -4.325  24.572  0.00  0.00    +0.210 HD
ENDBRANCH  30  42
BRANCH  29  44
ATOM     44  O   UNL     1       6.589  -6.345  21.926  0.00  0.00    -0.386 OA
ATOM     45  H   UNL     1       6.298  -6.104  21.028  0.00  0.00    +0.210 HD
ENDBRANCH  29  44
ENDBRANCH  27  28
ENDBRANCH  26  27
ENDBRANCH   1  26
TORSDOF 17
ENDMDL
MODEL 4
REMARK VINA RESULT:      -7.4      1.494      1.987
REMARK  Name = 
REMARK  17 active torsions:
REMARK  status: ('A' for Active; 'I' for Inactive)
REMARK    1  A    between atoms: O_1  and  C_2
REMARK    2  A    between atoms: C_2  and  C_3
REMARK    3  A    between atoms: C_6  and  O_8
REMARK    4  A    between atoms: O_8  and  P_9
REMARK    5  A    between atoms: P_9  and  O_10
REMARK    6  A    between atoms: P_9  and  O_12
REMARK    7  A    between atoms: O_12  and  P_13
REMARK    8  A    between atoms: P_13  and  O_14
REMARK    9  A    between atoms: P_13  and  O_16
REMARK   10  A    between atoms: O_16  and  C_17
REMARK   11  A    between atoms: C_17  and  C_18
REMARK   12  A    between atoms: C_21  and  N_29
REMARK   13  A    between atoms: C_23  and  O_25
REMARK   14  A    between atoms: C_26  and  O_28
REMARK   15  A    between atoms: C_37  and  O_39
REMARK   16  A    between atoms: C_40  and  O_42
REMARK   17  A    between atoms: C_43  and  O_45
REMARK                            x       y       z     vdW  Elec       q    Type
REMARK                         _______ _______ _______ _____ _____    ______ ____
ROOT
ATOM      1  P   UNL     1       8.909  -1.679  22.908  0.00  0.00    +0.483 P 
ATOM      2  O   UNL     1       8.210  -1.996  24.234  0.00  0.00    -0.227 OA
ENDROOT
BRANCH   1   3
ATOM      3  O   UNL     1      10.251  -2.598  22.990  0.00  0.00    -0.302 OA
ATOM      4  H   UNL     1      10.633  -2.610  22.085  0.00  0.00    +0.222 HD
ENDBRANCH   1   3
BRANCH   1   5
ATOM      5  O   UNL     1       9.743  -0.388  23.703  0.00  0.00    -0.186 OA
BRANCH   5   6
ATOM      6  P   UNL     1       9.966   0.922  22.595  0.00  0.00    +0.486 P 
ATOM      7  O   UNL     1       9.755   0.012  21.389  0.00  0.00    -0.227 OA
BRANCH   6   8
ATOM      8  O   UNL     1      10.190   2.232  21.488  0.00  0.00    -0.302 OA
ATOM      9  H   UNL     1      10.855   1.880  20.860  0.00  0.00    +0.222 HD
ENDBRANCH   6   8
BRANCH   6  10
ATOM     10  O   UNL     1       8.529   1.577  23.068  0.00  0.00    -0.254 OA
BRANCH  10  15
ATOM     11  C   UNL     1       8.456   5.187  23.635  0.00  0.00    +0.178 C 
ATOM     12  C   UNL     1       7.614   5.302  24.915  0.00  0.00    +0.177 C 
ATOM     13  C   UNL     1       7.933   4.118  25.834  0.00  0.00    +0.179 C 
ATOM     14  C   UNL     1       7.805   2.772  25.099  0.00  0.00    +0.202 C 
ATOM     15  C   UNL     1       8.616   2.816  23.779  0.00  0.00    +0.293 C 
ATOM     16  O   UNL     1       8.205   3.929  22.969  0.00  0.00    -0.340 OA
BRANCH  12  17
ATOM     17  O   UNL     1       7.875   6.556  25.554  0.00  0.00    -0.386 OA
ATOM     18  H   UNL     1       8.576   6.441  26.219  0.00  0.00    +0.210 HD
ENDBRANCH  12  17
BRANCH  13  19
ATOM     19  O   UNL     1       7.082   4.140  26.986  0.00  0.00    -0.386 OA
ATOM     20  H   UNL     1       6.390   4.808  26.811  0.00  0.00    +0.210 HD
ENDBRANCH  13  19
BRANCH  14  21
ATOM     21  O   UNL     1       8.259   1.750  26.008  0.00  0.00    -0.384 OA
ATOM     22  H   UNL     1       7.993   0.879  25.663  0.00  0.00    +0.210 HD
ENDBRANCH  14  21
BRANCH  11  23
ATOM     23  C   UNL     1       8.166   6.369  22.697  0.00  0.00    +0.190 C 
BRANCH  23  24
ATOM     24  O   UNL     1       7.569   5.915  21.486  0.00  0.00    -0.392 OA
ATOM     25  H   UNL     1       6.608   5.897  21.641  0.00  0.00    +0.210 HD
ENDBRANCH  23  24
ENDBRANCH  11  23
ENDBRANCH  10  15
ENDBRANCH   6  10
ENDBRANCH   5   6
ENDBRANCH   1   5
BRANCH   1  26
ATOM     26  O   UNL     1       8.075  -2.970  22.114  0.00  0.00    -0.284 OA
BRANCH  26  27
ATOM     27  C   UNL     1       6.659  -2.914  22.365  0.00  0.00    +0.206 C 
BRANCH  27  28
ATOM     28  C   UNL     1       6.078  -4.302  22.624  0.00  0.00    +0.178 C 
ATOM     29  C   UNL     1       7.155  -5.382  22.504  0.00  0.00    +0.178 C 
ATOM     30  C   UNL     1       7.642  -5.608  23.932  0.00  0.00    +0.195 C 
ATOM     31  C   UNL     1       6.671  -4.790  24.810  0.00  0.00    +0.255 C 
ATOM     32  O   UNL     1       5.581  -4.390  23.969  0.00  0.00    -0.346 OA
BRANCH  31  33
ATOM     33  N   UNL     1       6.189  -5.511  25.988  0.00  0.00    -0.271 N 
ATOM     34  C   UNL     1       6.993  -5.463  27.123  0.00  0.00    +0.331 A 
ATOM     35  O   UNL     1       8.082  -4.902  27.158  0.00  0.00    -0.246 OA
ATOM     36  N   UNL     1       6.500  -6.105  28.227  0.00  0.00    -0.275 N 
ATOM     37  H   UNL     1       7.068  -6.090  29.058  0.00  0.00    +0.173 HD
ATOM     38  C   UNL     1       5.301  -6.754  28.312  0.00  0.00    +0.254 A 
ATOM     39  O   UNL     1       4.900  -7.310  29.323  0.00  0.00    -0.268 OA
ATOM     40  C   UNL     1       4.484  -6.738  27.086  0.00  0.00    +0.088 A 
ATOM     41  C   UNL     1       4.949  -6.123  26.004  0.00  0.00    +0.098 A 
ENDBRANCH  31  33
BRANCH  30  42
ATOM     42  O   UNL     1       8.985  -5.138  24.093  0.00  0.00    -0.385 OA
ATOM     43  H   UNL     1       8.929  -4.380  24.717  0.00  0.00    +0.210 HD
ENDBRANCH  30  42
BRANCH  29  44
ATOM     44  O   UNL     1       6.583  -6.593  21.987  0.00  0.00    -0.386 OA
ATOM     45  H   UNL     1       5.684  -6.692  22.350  0.00  0.00    +0.210 HD
ENDBRANCH  29  44
ENDBRANCH  27  28
ENDBRANCH  26  27
ENDBRANCH   1  26
TORSDOF 17
ENDMDL
MODEL 5
REMARK VINA RESULT:      -7.4      1.057      2.104
REMARK  Name = 
REMARK  17 active torsions:
REMARK  status: ('A' for Active; 'I' for Inactive)
REMARK    1  A    between atoms: O_1  and  C_2
REMARK    2  A    between atoms: C_2  and  C_3
REMARK    3  A    between atoms: C_6  and  O_8
REMARK    4  A    between atoms: O_8  and  P_9
REMARK    5  A    between atoms: P_9  and  O_10
REMARK    6  A    between atoms: P_9  and  O_12
REMARK    7  A    between atoms: O_12  and  P_13
REMARK    8  A    between atoms: P_13  and  O_14
REMARK    9  A    between atoms: P_13  and  O_16
REMARK   10  A    between atoms: O_16  and  C_17
REMARK   11  A    between atoms: C_17  and  C_18
REMARK   12  A    between atoms: C_21  and  N_29
REMARK   13  A    between atoms: C_23  and  O_25
REMARK   14  A    between atoms: C_26  and  O_28
REMARK   15  A    between atoms: C_37  and  O_39
REMARK   16  A    between atoms: C_40  and  O_42
REMARK   17  A    between atoms: C_43  and  O_45
REMARK                            x       y       z     vdW  Elec       q    Type
REMARK                         _______ _______ _______ _____ _____    ______ ____
ROOT
ATOM      1  P   UNL     1       8.603  -1.199  22.464  0.00  0.00    +0.483 P 
ATOM      2  O   UNL     1       8.569  -1.768  23.886  0.00  0.00    -0.227 OA
ENDROOT
BRANCH   1   3
ATOM      3  O   UNL     1      10.051  -1.705  21.918  0.00  0.00    -0.302 OA
ATOM      4  H   UNL     1      10.553  -2.009  22.705  0.00  0.00    +0.222 HD
ENDBRANCH   1   3
BRANCH   1   5
ATOM      5  O   UNL     1       9.341   0.233  23.098  0.00  0.00    -0.186 OA
BRANCH   5   6
ATOM      6  P   UNL     1       9.398   0.135  24.824  0.00  0.00    +0.486 P 
ATOM      7  O   UNL     1      10.919   0.020  24.824  0.00  0.00    -0.227 OA
BRANCH   6   8
ATOM      8  O   UNL     1       9.454   0.037  26.551  0.00  0.00    -0.302 OA
ATOM      9  H   UNL     1       9.467  -0.929  26.717  0.00  0.00    +0.222 HD
ENDBRANCH   6   8
BRANCH   6  10
ATOM     10  O   UNL     1       8.951   1.719  24.936  0.00  0.00    -0.254 OA
BRANCH  10  15
ATOM     11  C   UNL     1       5.604   2.619  23.776  0.00  0.00    +0.178 C 
ATOM     12  C   UNL     1       5.865   3.916  22.996  0.00  0.00    +0.177 C 
ATOM     13  C   UNL     1       7.213   3.807  22.275  0.00  0.00    +0.179 C 
ATOM     14  C   UNL     1       8.344   3.397  23.236  0.00  0.00    +0.202 C 
ATOM     15  C   UNL     1       7.922   2.137  24.035  0.00  0.00    +0.293 C 
ATOM     16  O   UNL     1       6.675   2.362  24.713  0.00  0.00    -0.340 OA
BRANCH  12  17
ATOM     17  O   UNL     1       4.791   4.153  22.079  0.00  0.00    -0.386 OA
ATOM     18  H   UNL     1       5.085   4.774  21.390  0.00  0.00    +0.210 HD
ENDBRANCH  12  17
BRANCH  13  19
ATOM     19  O   UNL     1       7.533   5.045  21.629  0.00  0.00    -0.386 OA
ATOM     20  H   UNL     1       8.295   4.867  21.044  0.00  0.00    +0.210 HD
ENDBRANCH  13  19
BRANCH  14  21
ATOM     21  O   UNL     1       9.523   3.190  22.435  0.00  0.00    -0.384 OA
ATOM     22  H   UNL     1       9.302   2.600  21.692  0.00  0.00    +0.210 HD
ENDBRANCH  14  21
BRANCH  11  23
ATOM     23  C   UNL     1       4.251   2.694  24.500  0.00  0.00    +0.190 C 
BRANCH  23  24
ATOM     24  O   UNL     1       3.178   2.530  23.578  0.00  0.00    -0.392 OA
ATOM     25  H   UNL     1       2.460   2.090  24.066  0.00  0.00    +0.210 HD
ENDBRANCH  23  24
ENDBRANCH  11  23
ENDBRANCH  10  15
ENDBRANCH   6  10
ENDBRANCH   5   6
ENDBRANCH   1   5
BRANCH   1  26
ATOM     26  O   UNL     1       7.866  -2.630  21.830  0.00  0.00    -0.284 OA
BRANCH  26  27
ATOM     27  C   UNL     1       6.508  -2.767  22.286  0.00  0.00    +0.206 C 
BRANCH  27  28
ATOM     28  C   UNL     1       6.138  -4.230  22.521  0.00  0.00    +0.178 C 
ATOM     29  C   UNL     1       7.374  -5.129  22.456  0.00  0.00    +0.178 C 
ATOM     30  C   UNL     1       7.822  -5.283  23.905  0.00  0.00    +0.195 C 
ATOM     31  C   UNL     1       6.695  -4.630  24.734  0.00  0.00    +0.255 C 
ATOM     32  O   UNL     1       5.597  -4.400  23.841  0.00  0.00    -0.346 OA
BRANCH  31  33
ATOM     33  N   UNL     1       6.276  -5.423  25.890  0.00  0.00    -0.271 N 
ATOM     34  C   UNL     1       7.062  -5.327  27.033  0.00  0.00    +0.331 A 
ATOM     35  O   UNL     1       8.093  -4.665  27.092  0.00  0.00    -0.246 OA
ATOM     36  N   UNL     1       6.625  -6.040  28.116  0.00  0.00    -0.275 N 
ATOM     37  H   UNL     1       7.183  -5.992  28.954  0.00  0.00    +0.173 HD
ATOM     38  C   UNL     1       5.494  -6.802  28.175  0.00  0.00    +0.254 A 
ATOM     39  O   UNL     1       5.140  -7.419  29.168  0.00  0.00    -0.268 OA
ATOM     40  C   UNL     1       4.688  -6.834  26.941  0.00  0.00    +0.088 A 
ATOM     41  C   UNL     1       5.099  -6.150  25.879  0.00  0.00    +0.098 A 
ENDBRANCH  31  33
BRANCH  30  42
ATOM     42  O   UNL     1       9.066  -4.611  24.129  0.00  0.00    -0.385 OA
ATOM     43  H   UNL     1       8.829  -3.708  24.440  0.00  0.00    +0.210 HD
ENDBRANCH  30  42
BRANCH  29  44
ATOM     44  O   UNL     1       7.023  -6.411  21.915  0.00  0.00    -0.386 OA
ATOM     45  H   UNL     1       7.515  -7.098  22.400  0.00  0.00    +0.210 HD
ENDBRANCH  29  44
ENDBRANCH  27  28
ENDBRANCH  26  27
ENDBRANCH   1  26
TORSDOF 17
ENDMDL
MODEL 6
REMARK VINA RESULT:      -7.1      2.520      3.953
REMARK  Name = 
REMARK  17 active torsions:
REMARK  status: ('A' for Active; 'I' for Inactive)
REMARK    1  A    between atoms: O_1  and  C_2
REMARK    2  A    between atoms: C_2  and  C_3
REMARK    3  A    between atoms: C_6  and  O_8
REMARK    4  A    between atoms: O_8  and  P_9
REMARK    5  A    between atoms: P_9  and  O_10
REMARK    6  A    between atoms: P_9  and  O_12
REMARK    7  A    between atoms: O_12  and  P_13
REMARK    8  A    between atoms: P_13  and  O_14
REMARK    9  A    between atoms: P_13  and  O_16
REMARK   10  A    between atoms: O_16  and  C_17
REMARK   11  A    between atoms: C_17  and  C_18
REMARK   12  A    between atoms: C_21  and  N_29
REMARK   13  A    between atoms: C_23  and  O_25
REMARK   14  A    between atoms: C_26  and  O_28
REMARK   15  A    between atoms: C_37  and  O_39
REMARK   16  A    between atoms: C_40  and  O_42
REMARK   17  A    between atoms: C_43  and  O_45
REMARK                            x       y       z     vdW  Elec       q    Type
REMARK                         _______ _______ _______ _____ _____    ______ ____
ROOT
ATOM      1  P   UNL     1       9.536   1.227  22.762  0.00  0.00    +0.483 P 
ATOM      2  O   UNL     1      10.823   1.359  23.584  0.00  0.00    -0.227 OA
ENDROOT
BRANCH   1   3
ATOM      3  O   UNL     1       9.827   2.207  21.495  0.00  0.00    -0.302 OA
ATOM      4  H   UNL     1       9.061   2.818  21.435  0.00  0.00    +0.222 HD
ENDBRANCH   1   3
BRANCH   1   5
ATOM      5  O   UNL     1       8.882   2.563  23.646  0.00  0.00    -0.186 OA
BRANCH   5   6
ATOM      6  P   UNL     1       7.610   3.294  22.730  0.00  0.00    +0.486 P 
ATOM      7  O   UNL     1       7.029   1.936  22.348  0.00  0.00    -0.227 OA
BRANCH   6   8
ATOM      8  O   UNL     1       6.339   4.025  21.813  0.00  0.00    -0.302 OA
ATOM      9  H   UNL     1       6.180   3.374  21.097  0.00  0.00    +0.222 HD
ENDBRANCH   6   8
BRANCH   6  10
ATOM     10  O   UNL     1       6.910   3.837  24.120  0.00  0.00    -0.254 OA
BRANCH  10  15
ATOM     11  C   UNL     1       6.624   2.034  27.286  0.00  0.00    +0.178 C 
ATOM     12  C   UNL     1       5.115   1.758  27.372  0.00  0.00    +0.177 C 
ATOM     13  C   UNL     1       4.577   1.468  25.967  0.00  0.00    +0.179 C 
ATOM     14  C   UNL     1       4.973   2.568  24.964  0.00  0.00    +0.202 C 
ATOM     15  C   UNL     1       6.499   2.824  25.044  0.00  0.00    +0.293 C 
ATOM     16  O   UNL     1       6.892   3.136  26.390  0.00  0.00    -0.340 OA
BRANCH  12  17
ATOM     17  O   UNL     1       4.874   0.667  28.268  0.00  0.00    -0.386 OA
ATOM     18  H   UNL     1       5.489  -0.060  28.065  0.00  0.00    +0.210 HD
ENDBRANCH  12  17
BRANCH  13  19
ATOM     19  O   UNL     1       3.153   1.316  26.002  0.00  0.00    -0.386 OA
ATOM     20  H   UNL     1       2.797   1.825  25.247  0.00  0.00    +0.210 HD
ENDBRANCH  13  19
BRANCH  14  21
ATOM     21  O   UNL     1       4.539   2.129  23.663  0.00  0.00    -0.384 OA
ATOM     22  H   UNL     1       5.209   2.384  23.003  0.00  0.00    +0.210 HD
ENDBRANCH  14  21
BRANCH  11  23
ATOM     23  C   UNL     1       7.195   2.316  28.685  0.00  0.00    +0.190 C 
BRANCH  23  24
ATOM     24  O   UNL     1       7.906   1.182  29.175  0.00  0.00    -0.392 OA
ATOM     25  H   UNL     1       8.838   1.454  29.255  0.00  0.00    +0.210 HD
ENDBRANCH  23  24
ENDBRANCH  11  23
ENDBRANCH  10  15
ENDBRANCH   6  10
ENDBRANCH   5   6
ENDBRANCH   1   5
BRANCH   1  26
ATOM     26  O   UNL     1      10.191  -0.108  21.877  0.00  0.00    -0.284 OA
BRANCH  26  27
ATOM     27  C   UNL     1       9.406  -1.299  22.068  0.00  0.00    +0.206 C 
BRANCH  27  28
ATOM     28  C   UNL     1       8.436  -1.152  23.238  0.00  0.00    +0.178 C 
ATOM     29  C   UNL     1       6.994  -1.406  22.795  0.00  0.00    +0.178 C 
ATOM     30  C   UNL     1       6.741  -2.877  23.112  0.00  0.00    +0.195 C 
ATOM     31  C   UNL     1       7.987  -3.325  23.908  0.00  0.00    +0.255 C 
ATOM     32  O   UNL     1       8.718  -2.138  24.245  0.00  0.00    -0.346 OA
BRANCH  31  33
ATOM     33  N   UNL     1       7.675  -4.108  25.103  0.00  0.00    -0.271 N 
ATOM     34  C   UNL     1       8.606  -5.070  25.482  0.00  0.00    +0.331 A 
ATOM     35  O   UNL     1       9.622  -5.317  24.842  0.00  0.00    -0.246 OA
ATOM     36  N   UNL     1       8.316  -5.757  26.629  0.00  0.00    -0.275 N 
ATOM     37  H   UNL     1       8.972  -6.465  26.919  0.00  0.00    +0.173 HD
ATOM     38  C   UNL     1       7.225  -5.566  27.428  0.00  0.00    +0.254 A 
ATOM     39  O   UNL     1       7.010  -6.202  28.448  0.00  0.00    -0.268 OA
ATOM     40  C   UNL     1       6.297  -4.509  26.989  0.00  0.00    +0.088 A 
ATOM     41  C   UNL     1       6.561  -3.834  25.876  0.00  0.00    +0.098 A 
ENDBRANCH  31  33
BRANCH  30  42
ATOM     42  O   UNL     1       6.608  -3.643  21.910  0.00  0.00    -0.385 OA
ATOM     43  H   UNL     1       6.794  -4.574  22.166  0.00  0.00    +0.210 HD
ENDBRANCH  30  42
BRANCH  29  44
ATOM     44  O   UNL     1       6.093  -0.583  23.551  0.00  0.00    -0.386 OA
ATOM     45  H   UNL     1       5.939   0.243  23.058  0.00  0.00    +0.210 HD
ENDBRANCH  29  44
ENDBRANCH  27  28
ENDBRANCH  26  27
ENDBRANCH   1  26
TORSDOF 17
ENDMDL
MODEL 7
REMARK VINA RESULT:      -7.0      1.845      2.874
REMARK  Name = 
REMARK  17 active torsions:
REMARK  status: ('A' for Active; 'I' for Inactive)
REMARK    1  A    between atoms: O_1  and  C_2
REMARK    2  A    between atoms: C_2  and  C_3
REMARK    3  A    between atoms: C_6  and  O_8
REMARK    4  A    between atoms: O_8  and  P_9
REMARK    5  A    between atoms: P_9  and  O_10
REMARK    6  A    between atoms: P_9  and  O_12
REMARK    7  A    between atoms: O_12  and  P_13
REMARK    8  A    between atoms: P_13  and  O_14
REMARK    9  A    between atoms: P_13  and  O_16
REMARK   10  A    between atoms: O_16  and  C_17
REMARK   11  A    between atoms: C_17  and  C_18
REMARK   12  A    between atoms: C_21  and  N_29
REMARK   13  A    between atoms: C_23  and  O_25
REMARK   14  A    between atoms: C_26  and  O_28
REMARK   15  A    between atoms: C_37  and  O_39
REMARK   16  A    between atoms: C_40  and  O_42
REMARK   17  A    between atoms: C_43  and  O_45
REMARK                            x       y       z     vdW  Elec       q    Type
REMARK                         _______ _______ _______ _____ _____    ______ ____
ROOT
ATOM      1  P   UNL     1       9.948  -1.757  23.383  0.00  0.00    +0.483 P 
ATOM      2  O   UNL     1       9.691  -1.985  21.890  0.00  0.00    -0.227 OA
ENDROOT
BRANCH   1   3
ATOM      3  O   UNL     1       8.550  -1.089  23.883  0.00  0.00    -0.302 OA
ATOM      4  H   UNL     1       8.309  -0.416  23.209  0.00  0.00    +0.222 HD
ENDBRANCH   1   3
BRANCH   1   5
ATOM      5  O   UNL     1      10.563  -0.187  22.996  0.00  0.00    -0.186 OA
BRANCH   5   6
ATOM      6  P   UNL     1       9.826   0.991  24.028  0.00  0.00    +0.486 P 
ATOM      7  O   UNL     1      11.099   1.832  24.070  0.00  0.00    -0.227 OA
BRANCH   6   8
ATOM      8  O   UNL     1       9.089   2.168  25.059  0.00  0.00    -0.302 OA
ATOM      9  H   UNL     1       9.032   1.703  25.920  0.00  0.00    +0.222 HD
ENDBRANCH   6   8
BRANCH   6  10
ATOM     10  O   UNL     1       8.862   1.487  22.785  0.00  0.00    -0.254 OA
BRANCH  10  15
ATOM     11  C   UNL     1       7.249   4.754  23.079  0.00  0.00    +0.178 C 
ATOM     12  C   UNL     1       5.822   4.460  22.594  0.00  0.00    +0.177 C 
ATOM     13  C   UNL     1       5.411   3.060  23.061  0.00  0.00    +0.179 C 
ATOM     14  C   UNL     1       6.453   1.997  22.670  0.00  0.00    +0.202 C 
ATOM     15  C   UNL     1       7.863   2.454  23.125  0.00  0.00    +0.293 C 
ATOM     16  O   UNL     1       8.171   3.753  22.592  0.00  0.00    -0.340 OA
BRANCH  12  17
ATOM     17  O   UNL     1       4.929   5.466  23.084  0.00  0.00    -0.386 OA
ATOM     18  H   UNL     1       4.155   5.041  23.494  0.00  0.00    +0.210 HD
ENDBRANCH  12  17
BRANCH  13  19
ATOM     19  O   UNL     1       4.126   2.716  22.530  0.00  0.00    -0.386 OA
ATOM     20  H   UNL     1       3.852   3.457  21.954  0.00  0.00    +0.210 HD
ENDBRANCH  13  19
BRANCH  14  21
ATOM     21  O   UNL     1       6.039   0.757  23.274  0.00  0.00    -0.384 OA
ATOM     22  H   UNL     1       5.856   0.910  24.219  0.00  0.00    +0.210 HD
ENDBRANCH  14  21
BRANCH  11  23
ATOM     23  C   UNL     1       7.685   6.159  22.635  0.00  0.00    +0.190 C 
BRANCH  23  24
ATOM     24  O   UNL     1       7.249   6.424  21.305  0.00  0.00    -0.392 OA
ATOM     25  H   UNL     1       7.604   5.708  20.750  0.00  0.00    +0.210 HD
ENDBRANCH  23  24
ENDBRANCH  11  23
ENDBRANCH  10  15
ENDBRANCH   6  10
ENDBRANCH   5   6
ENDBRANCH   1   5
BRANCH   1  26
ATOM     26  O   UNL     1       9.333  -3.327  23.770  0.00  0.00    -0.284 OA
BRANCH  26  27
ATOM     27  C   UNL     1       8.513  -3.294  24.952  0.00  0.00    +0.206 C 
BRANCH  27  28
ATOM     28  C   UNL     1       8.102  -4.697  25.392  0.00  0.00    +0.178 C 
ATOM     29  C   UNL     1       7.510  -4.682  26.802  0.00  0.00    +0.178 C 
ATOM     30  C   UNL     1       6.001  -4.593  26.592  0.00  0.00    +0.195 C 
ATOM     31  C   UNL     1       5.808  -4.769  25.069  0.00  0.00    +0.255 C 
ATOM     32  O   UNL     1       7.066  -5.204  24.535  0.00  0.00    -0.346 OA
BRANCH  31  33
ATOM     33  N   UNL     1       4.736  -5.697  24.713  0.00  0.00    -0.271 N 
ATOM     34  C   UNL     1       4.189  -5.563  23.441  0.00  0.00    +0.331 A 
ATOM     35  O   UNL     1       4.523  -4.688  22.649  0.00  0.00    -0.246 OA
ATOM     36  N   UNL     1       3.220  -6.472  23.112  0.00  0.00    -0.275 N 
ATOM     37  H   UNL     1       2.803  -6.389  22.199  0.00  0.00    +0.173 HD
ATOM     38  C   UNL     1       2.771  -7.491  23.903  0.00  0.00    +0.254 A 
ATOM     39  O   UNL     1       1.905  -8.282  23.564  0.00  0.00    -0.268 OA
ATOM     40  C   UNL     1       3.416  -7.598  25.224  0.00  0.00    +0.088 A 
ATOM     41  C   UNL     1       4.356  -6.722  25.560  0.00  0.00    +0.098 A 
ENDBRANCH  31  33
BRANCH  30  42
ATOM     42  O   UNL     1       5.501  -3.321  27.019  0.00  0.00    -0.385 OA
ATOM     43  H   UNL     1       6.242  -2.687  26.892  0.00  0.00    +0.210 HD
ENDBRANCH  30  42
BRANCH  29  44
ATOM     44  O   UNL     1       7.834  -5.902  27.486  0.00  0.00    -0.386 OA
ATOM     45  H   UNL     1       8.517  -6.373  26.975  0.00  0.00    +0.210 HD
ENDBRANCH  29  44
ENDBRANCH  27  28
ENDBRANCH  26  27
ENDBRANCH   1  26
TORSDOF 17
ENDMDL
MODEL 8
REMARK VINA RESULT:      -7.0      1.931      2.668
REMARK  Name = 
REMARK  17 active torsions:
REMARK  status: ('A' for Active; 'I' for Inactive)
REMARK    1  A    between atoms: O_1  and  C_2
REMARK    2  A    between atoms: C_2  and  C_3
REMARK    3  A    between atoms: C_6  and  O_8
REMARK    4  A    between atoms: O_8  and  P_9
REMARK    5  A    between atoms: P_9  and  O_10
REMARK    6  A    between atoms: P_9  and  O_12
REMARK    7  A    between atoms: O_12  and  P_13
REMARK    8  A    between atoms: P_13  and  O_14
REMARK    9  A    between atoms: P_13  and  O_16
REMARK   10  A    between atoms: O_16  and  C_17
REMARK   11  A    between atoms: C_17  and  C_18
REMARK   12  A    between atoms: C_21  and  N_29
REMARK   13  A    between atoms: C_23  and  O_25
REMARK   14  A    between atoms: C_26  and  O_28
REMARK   15  A    between atoms: C_37  and  O_39
REMARK   16  A    between atoms: C_40  and  O_42
REMARK   17  A    between atoms: C_43  and  O_45
REMARK                            x       y       z     vdW  Elec       q    Type
REMARK                         _______ _______ _______ _____ _____    ______ ____
ROOT
ATOM      1  P   UNL     1       9.385  -1.617  22.957  0.00  0.00    +0.483 P 
ATOM      2  O   UNL     1      10.006  -2.868  23.589  0.00  0.00    -0.227 OA
ENDROOT
BRANCH   1   3
ATOM      3  O   UNL     1      10.071  -1.592  21.481  0.00  0.00    -0.302 OA
ATOM      4  H   UNL     1      10.980  -1.946  21.592  0.00  0.00    +0.222 HD
ENDBRANCH   1   3
BRANCH   1   5
ATOM      5  O   UNL     1      10.704  -0.692  23.588  0.00  0.00    -0.186 OA
BRANCH   5   6
ATOM      6  P   UNL     1      10.146   0.887  24.021  0.00  0.00    +0.486 P 
ATOM      7  O   UNL     1      10.082   1.327  22.561  0.00  0.00    -0.227 OA
BRANCH   6   8
ATOM      8  O   UNL     1       9.587   2.465  24.455  0.00  0.00    -0.302 OA
ATOM      9  H   UNL     1       9.707   2.977  23.627  0.00  0.00    +0.222 HD
ENDBRANCH   6   8
BRANCH   6  10
ATOM     10  O   UNL     1       8.695   0.255  24.484  0.00  0.00    -0.254 OA
BRANCH  10  15
ATOM     11  C   UNL     1       6.019   2.548  25.456  0.00  0.00    +0.178 C 
ATOM     12  C   UNL     1       5.488   1.905  26.745  0.00  0.00    +0.177 C 
ATOM     13  C   UNL     1       6.660   1.297  27.523  0.00  0.00    +0.179 C 
ATOM     14  C   UNL     1       7.508   0.362  26.642  0.00  0.00    +0.202 C 
ATOM     15  C   UNL     1       7.897   1.090  25.330  0.00  0.00    +0.293 C 
ATOM     16  O   UNL     1       6.727   1.575  24.653  0.00  0.00    -0.340 OA
BRANCH  12  17
ATOM     17  O   UNL     1       4.788   2.884  27.520  0.00  0.00    -0.386 OA
ATOM     18  H   UNL     1       4.222   2.436  28.174  0.00  0.00    +0.210 HD
ENDBRANCH  12  17
BRANCH  13  19
ATOM     19  O   UNL     1       6.180   0.595  28.676  0.00  0.00    -0.386 OA
ATOM     20  H   UNL     1       5.989   1.270  29.357  0.00  0.00    +0.210 HD
ENDBRANCH  13  19
BRANCH  14  21
ATOM     21  O   UNL     1       8.648  -0.038  27.427  0.00  0.00    -0.384 OA
ATOM     22  H   UNL     1       9.150   0.756  27.684  0.00  0.00    +0.210 HD
ENDBRANCH  14  21
BRANCH  11  23
ATOM     23  C   UNL     1       4.866   3.178  24.659  0.00  0.00    +0.190 C 
BRANCH  23  24
ATOM     24  O   UNL     1       4.354   2.256  23.701  0.00  0.00    -0.392 OA
ATOM     25  H   UNL     1       3.458   2.562  23.475  0.00  0.00    +0.210 HD
ENDBRANCH  23  24
ENDBRANCH  11  23
ENDBRANCH  10  15
ENDBRANCH   6  10
ENDBRANCH   5   6
ENDBRANCH   1   5
BRANCH   1  26
ATOM     26  O   UNL     1       8.066  -2.543  22.326  0.00  0.00    -0.284 OA
BRANCH  26  27
ATOM     27  C   UNL     1       6.812  -2.124  22.894  0.00  0.00    +0.206 C 
BRANCH  27  28
ATOM     28  C   UNL     1       5.844  -3.296  23.046  0.00  0.00    +0.178 C 
ATOM     29  C   UNL     1       6.429  -4.576  22.448  0.00  0.00    +0.178 C 
ATOM     30  C   UNL     1       7.074  -5.298  23.627  0.00  0.00    +0.195 C 
ATOM     31  C   UNL     1       6.640  -4.486  24.867  0.00  0.00    +0.255 C 
ATOM     32  O   UNL     1       5.618  -3.578  24.437  0.00  0.00    -0.346 OA
BRANCH  31  33
ATOM     33  N   UNL     1       6.176  -5.312  25.981  0.00  0.00    -0.271 N 
ATOM     34  C   UNL     1       7.019  -5.408  27.084  0.00  0.00    +0.331 A 
ATOM     35  O   UNL     1       8.128  -4.887  27.135  0.00  0.00    -0.246 OA
ATOM     36  N   UNL     1       6.542  -6.146  28.133  0.00  0.00    -0.275 N 
ATOM     37  H   UNL     1       7.139  -6.237  28.939  0.00  0.00    +0.173 HD
ATOM     38  C   UNL     1       5.326  -6.764  28.195  0.00  0.00    +0.254 A 
ATOM     39  O   UNL     1       4.942  -7.411  29.157  0.00  0.00    -0.268 OA
ATOM     40  C   UNL     1       4.468  -6.595  27.009  0.00  0.00    +0.088 A 
ATOM     41  C   UNL     1       4.916  -5.884  25.981  0.00  0.00    +0.098 A 
ENDBRANCH  31  33
BRANCH  30  42
ATOM     42  O   UNL     1       8.500  -5.305  23.503  0.00  0.00    -0.385 OA
ATOM     43  H   UNL     1       8.695  -5.820  22.688  0.00  0.00    +0.210 HD
ENDBRANCH  30  42
BRANCH  29  44
ATOM     44  O   UNL     1       5.382  -5.386  21.895  0.00  0.00    -0.386 OA
ATOM     45  H   UNL     1       4.593  -4.829  21.766  0.00  0.00    +0.210 HD
ENDBRANCH  29  44
ENDBRANCH  27  28
ENDBRANCH  26  27
ENDBRANCH   1  26
TORSDOF 17
ENDMDL
MODEL 9
REMARK VINA RESULT:      -7.0      1.780      2.782
REMARK  Name = 
REMARK  17 active torsions:
REMARK  status: ('A' for Active; 'I' for Inactive)
REMARK    1  A    between atoms: O_1  and  C_2
REMARK    2  A    between atoms: C_2  and  C_3
REMARK    3  A    between atoms: C_6  and  O_8
REMARK    4  A    between atoms: O_8  and  P_9
REMARK    5  A    between atoms: P_9  and  O_10
REMARK    6  A    between atoms: P_9  and  O_12
REMARK    7  A    between atoms: O_12  and  P_13
REMARK    8  A    between atoms: P_13  and  O_14
REMARK    9  A    between atoms: P_13  and  O_16
REMARK   10  A    between atoms: O_16  and  C_17
REMARK   11  A    between atoms: C_17  and  C_18
REMARK   12  A    between atoms: C_21  and  N_29
REMARK   13  A    between atoms: C_23  and  O_25
REMARK   14  A    between atoms: C_26  and  O_28
REMARK   15  A    between atoms: C_37  and  O_39
REMARK   16  A    between atoms: C_40  and  O_42
REMARK   17  A    between atoms: C_43  and  O_45
REMARK                            x       y       z     vdW  Elec       q    Type
REMARK                         _______ _______ _______ _____ _____    ______ ____
ROOT
ATOM      1  P   UNL     1       9.137  -0.087  25.101  0.00  0.00    +0.483 P 
ATOM      2  O   UNL     1       8.102   0.857  25.722  0.00  0.00    -0.227 OA
ENDROOT
BRANCH   1   3
ATOM      3  O   UNL     1      10.536   0.469  25.720  0.00  0.00    -0.302 OA
ATOM      4  H   UNL     1      11.137   0.615  24.957  0.00  0.00    +0.222 HD
ENDBRANCH   1   3
BRANCH   1   5
ATOM      5  O   UNL     1       9.285   1.013  23.773  0.00  0.00    -0.186 OA
BRANCH   5   6
ATOM      6  P   UNL     1       9.454   0.120  22.301  0.00  0.00    +0.486 P 
ATOM      7  O   UNL     1       8.704  -1.078  22.876  0.00  0.00    -0.227 OA
BRANCH   6   8
ATOM      8  O   UNL     1       9.624  -0.772  20.829  0.00  0.00    -0.302 OA
ATOM      9  H   UNL     1       8.820  -1.333  20.817  0.00  0.00    +0.222 HD
ENDBRANCH   6   8
BRANCH   6  10
ATOM     10  O   UNL     1       8.398   1.141  21.551  0.00  0.00    -0.254 OA
BRANCH  10  15
ATOM     11  C   UNL     1       7.277   4.379  22.822  0.00  0.00    +0.178 C 
ATOM     12  C   UNL     1       5.783   4.132  23.080  0.00  0.00    +0.177 C 
ATOM     13  C   UNL     1       5.593   2.700  23.591  0.00  0.00    +0.179 C 
ATOM     14  C   UNL     1       6.265   1.667  22.667  0.00  0.00    +0.202 C 
ATOM     15  C   UNL     1       7.735   2.081  22.403  0.00  0.00    +0.293 C 
ATOM     16  O   UNL     1       7.799   3.417  21.878  0.00  0.00    -0.340 OA
BRANCH  12  17
ATOM     17  O   UNL     1       5.287   5.098  24.012  0.00  0.00    -0.386 OA
ATOM     18  H   UNL     1       4.608   4.686  24.576  0.00  0.00    +0.210 HD
ENDBRANCH  12  17
BRANCH  13  19
ATOM     19  O   UNL     1       4.198   2.405  23.736  0.00  0.00    -0.386 OA
ATOM     20  H   UNL     1       3.850   2.245  22.836  0.00  0.00    +0.210 HD
ENDBRANCH  13  19
BRANCH  14  21
ATOM     21  O   UNL     1       6.144   0.384  23.310  0.00  0.00    -0.384 OA
ATOM     22  H   UNL     1       7.036   0.025  23.470  0.00  0.00    +0.210 HD
ENDBRANCH  14  21
BRANCH  11  23
ATOM     23  C   UNL     1       7.501   5.814  22.319  0.00  0.00    +0.190 C 
BRANCH  23  24
ATOM     24  O   UNL     1       6.401   6.245  21.522  0.00  0.00    -0.392 OA
ATOM     25  H   UNL     1       6.728   6.301  20.607  0.00  0.00    +0.210 HD
ENDBRANCH  23  24
ENDBRANCH  11  23
ENDBRANCH  10  15
ENDBRANCH   6  10
ENDBRANCH   5   6
ENDBRANCH   1   5
BRANCH   1  26
ATOM     26  O   UNL     1       8.989  -1.186  26.429  0.00  0.00    -0.284 OA
BRANCH  26  27
ATOM     27  C   UNL     1       7.710  -1.846  26.424  0.00  0.00    +0.206 C 
BRANCH  27  28
ATOM     28  C   UNL     1       7.549  -2.751  25.204  0.00  0.00    +0.178 C 
ATOM     29  C   UNL     1       8.598  -3.863  25.198  0.00  0.00    +0.178 C 
ATOM     30  C   UNL     1       7.906  -5.057  25.846  0.00  0.00    +0.195 C 
ATOM     31  C   UNL     1       6.433  -4.620  25.998  0.00  0.00    +0.255 C 
ATOM     32  O   UNL     1       6.274  -3.413  25.240  0.00  0.00    -0.346 OA
BRANCH  31  33
ATOM     33  N   UNL     1       5.468  -5.635  25.579  0.00  0.00    -0.271 N 
ATOM     34  C   UNL     1       5.125  -6.600  26.521  0.00  0.00    +0.331 A 
ATOM     35  O   UNL     1       5.625  -6.662  27.639  0.00  0.00    -0.246 OA
ATOM     36  N   UNL     1       4.186  -7.511  26.123  0.00  0.00    -0.275 N 
ATOM     37  H   UNL     1       3.927  -8.225  26.786  0.00  0.00    +0.173 HD
ATOM     38  C   UNL     1       3.554  -7.539  24.912  0.00  0.00    +0.254 A 
ATOM     39  O   UNL     1       2.716  -8.372  24.602  0.00  0.00    -0.268 OA
ATOM     40  C   UNL     1       3.937  -6.470  23.974  0.00  0.00    +0.088 A 
ATOM     41  C   UNL     1       4.850  -5.579  24.343  0.00  0.00    +0.098 A 
ENDBRANCH  31  33
BRANCH  30  42
ATOM     42  O   UNL     1       8.480  -5.348  27.125  0.00  0.00    -0.385 OA
ATOM     43  H   UNL     1       9.250  -4.742  27.216  0.00  0.00    +0.210 HD
ENDBRANCH  30  42
BRANCH  29  44
ATOM     44  O   UNL     1       8.967  -4.187  23.849  0.00  0.00    -0.386 OA
ATOM     45  H   UNL     1       8.809  -3.406  23.288  0.00  0.00    +0.210 HD
ENDBRANCH  29  44
ENDBRANCH  27  28
ENDBRANCH  26  27
ENDBRANCH   1  26
TORSDOF 17
ENDMDL
