MODEL 1
REMARK VINA RESULT:      -6.9      0.000      0.000
REMARK  Name = 
REMARK  15 active torsions:
REMARK  status: ('A' for Active; 'I' for Inactive)
REMARK    1  A    between atoms: C_1  and  C_2
REMARK    2  A    between atoms: C_2  and  C_3
REMARK    3  A    between atoms: C_2  and  C_4
REMARK    4  A    between atoms: C_4  and  N_6
REMARK    5  A    between atoms: C_4  and  C_23
REMARK    6  A    between atoms: C_7  and  C_9
REMARK    7  A    between atoms: C_12  and  C_15
REMARK    8  A    between atoms: C_29  and  C_31
REMARK    9  A    between atoms: N_33  and  C_34
REMARK   10  A    between atoms: C_34  and  C_36
REMARK   11  A    between atoms: C_34  and  C_39
REMARK   12  A    between atoms: C_36  and  C_37
REMARK   13  A    between atoms: C_36  and  C_38
REMARK   14  A    between atoms: C_39  and  C_41
REMARK   15  A    between atoms: C_41  and  C_44
REMARK                            x       y       z     vdW  Elec       q    Type
REMARK                         _______ _______ _______ _____ _____    ______ ____
ROOT
ATOM      1  C   UNL     1       6.883  -4.481  25.123  0.00  0.00    +0.237 C 
ATOM      2  N   UNL     1       6.026  -5.562  25.107  0.00  0.00    -0.288 N 
ATOM      3  C   UNL     1       5.309  -6.046  26.302  0.00  0.00    +0.162 C 
ATOM      4  C   UNL     1       4.104  -6.803  25.658  0.00  0.00    +0.033 C 
ATOM      5  C   UNL     1       4.270  -6.645  24.143  0.00  0.00    +0.021 C 
ATOM      6  C   UNL     1       5.754  -6.469  23.999  0.00  0.00    +0.109 C 
ATOM      7  O   UNL     1       7.120  -3.876  26.170  0.00  0.00    -0.274 OA
ENDROOT
BRANCH   3   8
ATOM      8  C   UNL     1       4.830  -5.081  27.434  0.00  0.00    +0.234 C 
ATOM      9  N   UNL     1       3.989  -4.060  27.029  0.00  0.00    -0.304 N 
ATOM     10  H   UNL     1       3.482  -4.222  26.153  0.00  0.00    +0.149 HD
ATOM     11  O   UNL     1       5.246  -5.142  28.591  0.00  0.00    -0.274 OA
BRANCH   9  12
ATOM     12  C   UNL     1       3.498  -3.005  27.918  0.00  0.00    +0.148 C 
BRANCH  12  13
ATOM     13  C   UNL     1       2.099  -3.288  28.534  0.00  0.00    +0.011 C 
ATOM     14  C   UNL     1       2.175  -3.680  30.011  0.00  0.00    +0.009 C 
ATOM     15  C   UNL     1       1.255  -4.305  27.760  0.00  0.00    +0.009 C 
ENDBRANCH  12  13
BRANCH  12  16
ATOM     16  C   UNL     1       3.540  -1.662  27.161  0.00  0.00    +0.231 C 
ATOM     17  O   UNL     1       2.578  -1.261  26.495  0.00  0.00    -0.289 OA
BRANCH  16  18
ATOM     18  C   UNL     1       4.825  -0.863  27.243  0.00  0.00    +0.400 C 
ATOM     19  F   UNL     1       5.770  -1.486  28.015  0.00  0.00    -0.187 F 
ATOM     20  F   UNL     1       4.624   0.339  27.870  0.00  0.00    -0.187 F 
BRANCH  18  21
ATOM     21  C   UNL     1       5.367  -0.636  25.835  0.00  0.00    +0.462 C 
ATOM     22  F   UNL     1       6.719  -0.500  25.848  0.00  0.00    -0.165 F 
ATOM     23  F   UNL     1       4.877   0.497  25.273  0.00  0.00    -0.165 F 
ATOM     24  F   UNL     1       5.096  -1.650  24.980  0.00  0.00    -0.165 F 
ENDBRANCH  18  21
ENDBRANCH  16  18
ENDBRANCH  12  16
ENDBRANCH   9  12
ENDBRANCH   3   8
BRANCH   1  25
ATOM     25  C   UNL     1       7.444  -3.968  23.762  0.00  0.00    +0.162 C 
BRANCH  25  26
ATOM     26  N   UNL     1       7.880  -2.563  23.728  0.00  0.00    -0.300 N 
ATOM     27  H   UNL     1       7.210  -1.899  23.365  0.00  0.00    +0.150 HD
ATOM     28  C   UNL     1       9.206  -2.204  23.731  0.00  0.00    +0.245 C 
ATOM     29  O   UNL     1      10.147  -2.979  23.805  0.00  0.00    -0.270 OA
BRANCH  28  30
ATOM     30  C   UNL     1       9.516  -0.759  23.574  0.00  0.00    +0.037 A 
ATOM     31  C   UNL     1       9.733  -0.039  24.754  0.00  0.00    +0.014 A 
ATOM     32  C   UNL     1      10.094   1.300  24.698  0.00  0.00    +0.014 A 
ATOM     33  C   UNL     1      10.225   1.939  23.461  0.00  0.00    +0.037 A 
ATOM     34  C   UNL     1       9.875   1.251  22.288  0.00  0.00    +0.014 A 
ATOM     35  C   UNL     1       9.559  -0.114  22.340  0.00  0.00    +0.014 A 
BRANCH  33  36
ATOM     36  C   UNL     1      10.671   3.352  23.480  0.00  0.00    +0.247 C 
ATOM     37  N   UNL     1       9.759   4.388  23.652  0.00  0.00    -0.293 N 
ATOM     38  C   UNL     1      10.266   5.757  23.747  0.00  0.00    +0.136 C 
ATOM     39  C   UNL     1       9.873   6.357  25.103  0.00  0.00    +0.179 C 
ATOM     40  O   UNL     1       8.457   6.265  25.337  0.00  0.00    -0.377 OA
ATOM     41  C   UNL     1       8.000   4.902  25.256  0.00  0.00    +0.179 C 
ATOM     42  C   UNL     1       8.312   4.318  23.873  0.00  0.00    +0.136 C 
ATOM     43  O   UNL     1      11.868   3.559  23.287  0.00  0.00    -0.270 OA
ENDBRANCH  33  36
ENDBRANCH  28  30
ENDBRANCH  25  26
BRANCH  25  45
ATOM     44  C   UNL     1       5.750  -2.925  22.129  0.00  0.00    +0.009 C 
ATOM     45  C   UNL     1       6.397  -4.221  22.638  0.00  0.00    +0.012 C 
ATOM     46  C   UNL     1       6.964  -5.027  21.462  0.00  0.00    +0.009 C 
ENDBRANCH  25  45
ENDBRANCH   1  25
TORSDOF 11
ENDMDL
MODEL 2
REMARK VINA RESULT:      -6.9      2.724      3.820
REMARK  Name = 
REMARK  15 active torsions:
REMARK  status: ('A' for Active; 'I' for Inactive)
REMARK    1  A    between atoms: C_1  and  C_2
REMARK    2  A    between atoms: C_2  and  C_3
REMARK    3  A    between atoms: C_2  and  C_4
REMARK    4  A    between atoms: C_4  and  N_6
REMARK    5  A    between atoms: C_4  and  C_23
REMARK    6  A    between atoms: C_7  and  C_9
REMARK    7  A    between atoms: C_12  and  C_15
REMARK    8  A    between atoms: C_29  and  C_31
REMARK    9  A    between atoms: N_33  and  C_34
REMARK   10  A    between atoms: C_34  and  C_36
REMARK   11  A    between atoms: C_34  and  C_39
REMARK   12  A    between atoms: C_36  and  C_37
REMARK   13  A    between atoms: C_36  and  C_38
REMARK   14  A    between atoms: C_39  and  C_41
REMARK   15  A    between atoms: C_41  and  C_44
REMARK                            x       y       z     vdW  Elec       q    Type
REMARK                         _______ _______ _______ _____ _____    ______ ____
ROOT
ATOM      1  C   UNL     1       6.566  -4.067  24.317  0.00  0.00    +0.237 C 
ATOM      2  N   UNL     1       7.017  -4.294  25.601  0.00  0.00    -0.288 N 
ATOM      3  C   UNL     1       6.175  -4.867  26.668  0.00  0.00    +0.162 C 
ATOM      4  C   UNL     1       7.252  -5.454  27.635  0.00  0.00    +0.033 C 
ATOM      5  C   UNL     1       8.607  -5.155  26.986  0.00  0.00    +0.021 C 
ATOM      6  C   UNL     1       8.309  -3.930  26.171  0.00  0.00    +0.109 C 
ATOM      7  O   UNL     1       5.399  -4.308  24.005  0.00  0.00    -0.274 OA
ENDROOT
BRANCH   3   8
ATOM      8  C   UNL     1       5.052  -5.913  26.371  0.00  0.00    +0.234 C 
ATOM      9  N   UNL     1       3.805  -5.383  26.092  0.00  0.00    -0.304 N 
ATOM     10  H   UNL     1       3.798  -4.414  25.757  0.00  0.00    +0.149 HD
ATOM     11  O   UNL     1       5.217  -7.128  26.481  0.00  0.00    -0.274 OA
BRANCH   9  12
ATOM     12  C   UNL     1       2.605  -6.192  25.870  0.00  0.00    +0.148 C 
BRANCH  12  13
ATOM     13  C   UNL     1       2.181  -7.055  27.092  0.00  0.00    +0.011 C 
ATOM     14  C   UNL     1       0.785  -7.660  26.928  0.00  0.00    +0.009 C 
ATOM     15  C   UNL     1       2.295  -6.346  28.444  0.00  0.00    +0.009 C 
ENDBRANCH  12  13
BRANCH  12  16
ATOM     16  C   UNL     1       2.809  -7.042  24.600  0.00  0.00    +0.231 C 
ATOM     17  O   UNL     1       3.266  -8.190  24.653  0.00  0.00    -0.289 OA
BRANCH  16  18
ATOM     18  C   UNL     1       2.453  -6.399  23.275  0.00  0.00    +0.400 C 
ATOM     19  F   UNL     1       2.025  -7.319  22.355  0.00  0.00    -0.187 F 
ATOM     20  F   UNL     1       3.551  -5.828  22.688  0.00  0.00    -0.187 F 
BRANCH  18  21
ATOM     21  C   UNL     1       1.373  -5.346  23.501  0.00  0.00    +0.462 C 
ATOM     22  F   UNL     1       0.693  -5.087  22.353  0.00  0.00    -0.165 F 
ATOM     23  F   UNL     1       1.890  -4.160  23.911  0.00  0.00    -0.165 F 
ATOM     24  F   UNL     1       0.445  -5.709  24.417  0.00  0.00    -0.165 F 
ENDBRANCH  18  21
ENDBRANCH  16  18
ENDBRANCH  12  16
ENDBRANCH   9  12
ENDBRANCH   3   8
BRANCH   1  25
ATOM     25  C   UNL     1       7.602  -3.617  23.243  0.00  0.00    +0.162 C 
BRANCH  25  26
ATOM     26  N   UNL     1       8.042  -2.216  23.312  0.00  0.00    -0.300 N 
ATOM     27  H   UNL     1       7.342  -1.519  23.100  0.00  0.00    +0.150 HD
ATOM     28  C   UNL     1       9.363  -1.853  23.206  0.00  0.00    +0.245 C 
ATOM     29  O   UNL     1      10.300  -2.628  23.091  0.00  0.00    -0.270 OA
BRANCH  28  30
ATOM     30  C   UNL     1       9.665  -0.399  23.172  0.00  0.00    +0.037 A 
ATOM     31  C   UNL     1       9.863   0.223  24.410  0.00  0.00    +0.014 A 
ATOM     32  C   UNL     1      10.215   1.565  24.468  0.00  0.00    +0.014 A 
ATOM     33  C   UNL     1      10.357   2.304  23.291  0.00  0.00    +0.037 A 
ATOM     34  C   UNL     1      10.027   1.712  22.060  0.00  0.00    +0.014 A 
ATOM     35  C   UNL     1       9.720   0.346  21.996  0.00  0.00    +0.014 A 
BRANCH  33  36
ATOM     36  C   UNL     1      10.793   3.713  23.431  0.00  0.00    +0.247 C 
ATOM     37  N   UNL     1       9.877   4.721  23.707  0.00  0.00    -0.293 N 
ATOM     38  C   UNL     1      10.375   6.081  23.919  0.00  0.00    +0.136 C 
ATOM     39  C   UNL     1       9.996   6.553  25.328  0.00  0.00    +0.179 C 
ATOM     40  O   UNL     1       8.583   6.428  25.571  0.00  0.00    -0.377 OA
ATOM     41  C   UNL     1       8.135   5.074  25.373  0.00  0.00    +0.179 C 
ATOM     42  C   UNL     1       8.433   4.620  23.938  0.00  0.00    +0.136 C 
ATOM     43  O   UNL     1      11.986   3.947  23.242  0.00  0.00    -0.270 OA
ENDBRANCH  33  36
ENDBRANCH  28  30
ENDBRANCH  25  26
BRANCH  25  45
ATOM     44  C   UNL     1       6.860  -5.427  21.570  0.00  0.00    +0.009 C 
ATOM     45  C   UNL     1       7.045  -3.924  21.822  0.00  0.00    +0.012 C 
ATOM     46  C   UNL     1       5.743  -3.172  21.514  0.00  0.00    +0.009 C 
ENDBRANCH  25  45
ENDBRANCH   1  25
TORSDOF 11
ENDMDL
MODEL 3
REMARK VINA RESULT:      -6.8      2.628      3.774
REMARK  Name = 
REMARK  15 active torsions:
REMARK  status: ('A' for Active; 'I' for Inactive)
REMARK    1  A    between atoms: C_1  and  C_2
REMARK    2  A    between atoms: C_2  and  C_3
REMARK    3  A    between atoms: C_2  and  C_4
REMARK    4  A    between atoms: C_4  and  N_6
REMARK    5  A    between atoms: C_4  and  C_23
REMARK    6  A    between atoms: C_7  and  C_9
REMARK    7  A    between atoms: C_12  and  C_15
REMARK    8  A    between atoms: C_29  and  C_31
REMARK    9  A    between atoms: N_33  and  C_34
REMARK   10  A    between atoms: C_34  and  C_36
REMARK   11  A    between atoms: C_34  and  C_39
REMARK   12  A    between atoms: C_36  and  C_37
REMARK   13  A    between atoms: C_36  and  C_38
REMARK   14  A    between atoms: C_39  and  C_41
REMARK   15  A    between atoms: C_41  and  C_44
REMARK                            x       y       z     vdW  Elec       q    Type
REMARK                         _______ _______ _______ _____ _____    ______ ____
ROOT
ATOM      1  C   UNL     1       6.755  -4.955  24.975  0.00  0.00    +0.237 C 
ATOM      2  N   UNL     1       6.533  -5.425  23.697  0.00  0.00    -0.288 N 
ATOM      3  C   UNL     1       5.551  -6.479  23.379  0.00  0.00    +0.162 C 
ATOM      4  C   UNL     1       5.269  -6.199  21.868  0.00  0.00    +0.033 C 
ATOM      5  C   UNL     1       6.129  -4.985  21.500  0.00  0.00    +0.021 C 
ATOM      6  C   UNL     1       7.261  -5.083  22.481  0.00  0.00    +0.109 C 
ATOM      7  O   UNL     1       6.150  -5.430  25.938  0.00  0.00    -0.274 OA
ENDROOT
BRANCH   3   8
ATOM      8  C   UNL     1       4.219  -6.645  24.180  0.00  0.00    +0.234 C 
ATOM      9  N   UNL     1       3.404  -5.529  24.217  0.00  0.00    -0.304 N 
ATOM     10  H   UNL     1       3.544  -4.850  23.461  0.00  0.00    +0.149 HD
ATOM     11  O   UNL     1       3.948  -7.654  24.832  0.00  0.00    -0.274 OA
BRANCH   9  12
ATOM     12  C   UNL     1       2.157  -5.453  24.981  0.00  0.00    +0.148 C 
BRANCH  12  13
ATOM     13  C   UNL     1       0.899  -5.929  24.201  0.00  0.00    +0.011 C 
ATOM     14  C   UNL     1       0.443  -7.329  24.618  0.00  0.00    +0.009 C 
ATOM     15  C   UNL     1       1.024  -5.845  22.677  0.00  0.00    +0.009 C 
ENDBRANCH  12  13
BRANCH  12  16
ATOM     16  C   UNL     1       1.997  -4.018  25.524  0.00  0.00    +0.231 C 
ATOM     17  O   UNL     1       1.305  -3.176  24.940  0.00  0.00    -0.289 OA
BRANCH  16  18
ATOM     18  C   UNL     1       2.749  -3.672  26.793  0.00  0.00    +0.400 C 
ATOM     19  F   UNL     1       3.339  -4.772  27.357  0.00  0.00    -0.187 F 
ATOM     20  F   UNL     1       1.899  -3.215  27.766  0.00  0.00    -0.187 F 
BRANCH  18  21
ATOM     21  C   UNL     1       3.804  -2.616  26.480  0.00  0.00    +0.462 C 
ATOM     22  F   UNL     1       4.930  -2.817  27.214  0.00  0.00    -0.165 F 
ATOM     23  F   UNL     1       3.378  -1.362  26.774  0.00  0.00    -0.165 F 
ATOM     24  F   UNL     1       4.194  -2.607  25.183  0.00  0.00    -0.165 F 
ENDBRANCH  18  21
ENDBRANCH  16  18
ENDBRANCH  12  16
ENDBRANCH   9  12
ENDBRANCH   3   8
BRANCH   1  25
ATOM     25  C   UNL     1       7.695  -3.725  25.152  0.00  0.00    +0.162 C 
BRANCH  25  26
ATOM     26  N   UNL     1       7.215  -2.454  24.587  0.00  0.00    -0.300 N 
ATOM     27  H   UNL     1       7.265  -2.369  23.581  0.00  0.00    +0.150 HD
ATOM     28  C   UNL     1       7.143  -1.299  25.328  0.00  0.00    +0.245 C 
ATOM     29  O   UNL     1       7.416  -1.205  26.515  0.00  0.00    -0.270 OA
BRANCH  28  30
ATOM     30  C   UNL     1       6.755  -0.058  24.610  0.00  0.00    +0.037 A 
ATOM     31  C   UNL     1       5.660   0.642  25.128  0.00  0.00    +0.014 A 
ATOM     32  C   UNL     1       5.270   1.847  24.560  0.00  0.00    +0.014 A 
ATOM     33  C   UNL     1       5.961   2.358  23.457  0.00  0.00    +0.037 A 
ATOM     34  C   UNL     1       6.972   1.588  22.859  0.00  0.00    +0.014 A 
ATOM     35  C   UNL     1       7.398   0.396  23.460  0.00  0.00    +0.014 A 
BRANCH  33  36
ATOM     36  C   UNL     1       5.524   3.678  22.944  0.00  0.00    +0.247 C 
ATOM     37  N   UNL     1       6.186   4.843  23.313  0.00  0.00    -0.293 N 
ATOM     38  C   UNL     1       5.766   6.108  22.709  0.00  0.00    +0.136 C 
ATOM     39  C   UNL     1       6.940   6.726  21.940  0.00  0.00    +0.179 C 
ATOM     40  O   UNL     1       8.108   6.860  22.769  0.00  0.00    -0.377 OA
ATOM     41  C   UNL     1       8.503   5.593  23.328  0.00  0.00    +0.179 C 
ATOM     42  C   UNL     1       7.364   5.006  24.169  0.00  0.00    +0.136 C 
ATOM     43  O   UNL     1       4.528   3.691  22.222  0.00  0.00    -0.270 OA
ENDBRANCH  33  36
ENDBRANCH  28  30
ENDBRANCH  25  26
BRANCH  25  45
ATOM     44  C   UNL     1       9.884  -2.803  24.160  0.00  0.00    +0.009 C 
ATOM     45  C   UNL     1       9.103  -4.057  24.578  0.00  0.00    +0.012 C 
ATOM     46  C   UNL     1       9.950  -4.916  25.528  0.00  0.00    +0.009 C 
ENDBRANCH  25  45
ENDBRANCH   1  25
TORSDOF 11
ENDMDL
MODEL 4
REMARK VINA RESULT:      -6.4      3.202      9.345
REMARK  Name = 
REMARK  15 active torsions:
REMARK  status: ('A' for Active; 'I' for Inactive)
REMARK    1  A    between atoms: C_1  and  C_2
REMARK    2  A    between atoms: C_2  and  C_3
REMARK    3  A    between atoms: C_2  and  C_4
REMARK    4  A    between atoms: C_4  and  N_6
REMARK    5  A    between atoms: C_4  and  C_23
REMARK    6  A    between atoms: C_7  and  C_9
REMARK    7  A    between atoms: C_12  and  C_15
REMARK    8  A    between atoms: C_29  and  C_31
REMARK    9  A    between atoms: N_33  and  C_34
REMARK   10  A    between atoms: C_34  and  C_36
REMARK   11  A    between atoms: C_34  and  C_39
REMARK   12  A    between atoms: C_36  and  C_37
REMARK   13  A    between atoms: C_36  and  C_38
REMARK   14  A    between atoms: C_39  and  C_41
REMARK   15  A    between atoms: C_41  and  C_44
REMARK                            x       y       z     vdW  Elec       q    Type
REMARK                         _______ _______ _______ _____ _____    ______ ____
ROOT
ATOM      1  C   UNL     1       6.056   3.347  28.115  0.00  0.00    +0.237 C 
ATOM      2  N   UNL     1       5.315   4.053  27.190  0.00  0.00    -0.288 N 
ATOM      3  C   UNL     1       5.865   5.156  26.380  0.00  0.00    +0.162 C 
ATOM      4  C   UNL     1       4.886   5.170  25.163  0.00  0.00    +0.033 C 
ATOM      5  C   UNL     1       3.882   4.041  25.420  0.00  0.00    +0.021 C 
ATOM      6  C   UNL     1       3.887   3.941  26.918  0.00  0.00    +0.109 C 
ATOM      7  O   UNL     1       7.234   3.636  28.335  0.00  0.00    -0.274 OA
ENDROOT
BRANCH   3   8
ATOM      8  C   UNL     1       7.355   5.179  25.906  0.00  0.00    +0.234 C 
ATOM      9  N   UNL     1       7.621   4.472  24.748  0.00  0.00    -0.304 N 
ATOM     10  H   UNL     1       6.819   4.311  24.129  0.00  0.00    +0.149 HD
ATOM     11  O   UNL     1       8.261   5.692  26.562  0.00  0.00    -0.274 OA
BRANCH   9  12
ATOM     12  C   UNL     1       8.962   4.300  24.185  0.00  0.00    +0.148 C 
BRANCH  12  13
ATOM     13  C   UNL     1       9.504   5.548  23.432  0.00  0.00    +0.011 C 
ATOM     14  C   UNL     1      10.500   6.354  24.269  0.00  0.00    +0.009 C 
ATOM     15  C   UNL     1       8.421   6.471  22.865  0.00  0.00    +0.009 C 
ENDBRANCH  12  13
BRANCH  12  16
ATOM     16  C   UNL     1       8.970   3.037  23.300  0.00  0.00    +0.231 C 
ATOM     17  O   UNL     1       8.001   2.734  22.593  0.00  0.00    -0.289 OA
BRANCH  16  18
ATOM     18  C   UNL     1      10.207   2.164  23.355  0.00  0.00    +0.400 C 
ATOM     19  F   UNL     1      11.319   2.870  23.726  0.00  0.00    -0.187 F 
ATOM     20  F   UNL     1      10.523   1.672  22.116  0.00  0.00    -0.187 F 
BRANCH  18  21
ATOM     21  C   UNL     1       9.967   1.014  24.330  0.00  0.00    +0.462 C 
ATOM     22  F   UNL     1      11.135   0.594  24.886  0.00  0.00    -0.165 F 
ATOM     23  F   UNL     1       9.425  -0.070  23.721  0.00  0.00    -0.165 F 
ATOM     24  F   UNL     1       9.151   1.338  25.360  0.00  0.00    -0.165 F 
ENDBRANCH  18  21
ENDBRANCH  16  18
ENDBRANCH  12  16
ENDBRANCH   9  12
ENDBRANCH   3   8
BRANCH   1  25
ATOM     25  C   UNL     1       5.405   2.098  28.780  0.00  0.00    +0.162 C 
BRANCH  25  26
ATOM     26  N   UNL     1       5.343   0.881  27.956  0.00  0.00    -0.300 N 
ATOM     27  H   UNL     1       4.440   0.430  27.896  0.00  0.00    +0.150 HD
ATOM     28  C   UNL     1       6.457   0.132  27.664  0.00  0.00    +0.245 C 
ATOM     29  O   UNL     1       7.598   0.403  28.006  0.00  0.00    -0.270 OA
BRANCH  28  30
ATOM     30  C   UNL     1       6.244  -1.137  26.922  0.00  0.00    +0.037 A 
ATOM     31  C   UNL     1       7.264  -1.522  26.045  0.00  0.00    +0.014 A 
ATOM     32  C   UNL     1       7.178  -2.728  25.361  0.00  0.00    +0.014 A 
ATOM     33  C   UNL     1       6.063  -3.553  25.534  0.00  0.00    +0.037 A 
ATOM     34  C   UNL     1       4.982  -3.101  26.308  0.00  0.00    +0.014 A 
ATOM     35  C   UNL     1       5.089  -1.909  27.037  0.00  0.00    +0.014 A 
BRANCH  33  36
ATOM     36  C   UNL     1       6.071  -4.850  24.817  0.00  0.00    +0.247 C 
ATOM     37  N   UNL     1       5.572  -4.956  23.524  0.00  0.00    -0.293 N 
ATOM     38  C   UNL     1       5.683  -6.242  22.834  0.00  0.00    +0.136 C 
ATOM     39  C   UNL     1       6.518  -6.070  21.559  0.00  0.00    +0.179 C 
ATOM     40  O   UNL     1       6.000  -5.025  20.719  0.00  0.00    -0.377 OA
ATOM     41  C   UNL     1       5.925  -3.772  21.425  0.00  0.00    +0.179 C 
ATOM     42  C   UNL     1       5.022  -3.911  22.657  0.00  0.00    +0.136 C 
ATOM     43  O   UNL     1       6.492  -5.826  25.438  0.00  0.00    -0.270 OA
ENDBRANCH  33  36
ENDBRANCH  28  30
ENDBRANCH  25  26
BRANCH  25  45
ATOM     44  C   UNL     1       3.137   1.224  29.628  0.00  0.00    +0.009 C 
ATOM     45  C   UNL     1       3.979   2.462  29.288  0.00  0.00    +0.012 C 
ATOM     46  C   UNL     1       3.997   3.432  30.477  0.00  0.00    +0.009 C 
ENDBRANCH  25  45
ENDBRANCH   1  25
TORSDOF 11
ENDMDL
MODEL 5
REMARK VINA RESULT:      -6.3      3.130      9.880
REMARK  Name = 
REMARK  15 active torsions:
REMARK  status: ('A' for Active; 'I' for Inactive)
REMARK    1  A    between atoms: C_1  and  C_2
REMARK    2  A    between atoms: C_2  and  C_3
REMARK    3  A    between atoms: C_2  and  C_4
REMARK    4  A    between atoms: C_4  and  N_6
REMARK    5  A    between atoms: C_4  and  C_23
REMARK    6  A    between atoms: C_7  and  C_9
REMARK    7  A    between atoms: C_12  and  C_15
REMARK    8  A    between atoms: C_29  and  C_31
REMARK    9  A    between atoms: N_33  and  C_34
REMARK   10  A    between atoms: C_34  and  C_36
REMARK   11  A    between atoms: C_34  and  C_39
REMARK   12  A    between atoms: C_36  and  C_37
REMARK   13  A    between atoms: C_36  and  C_38
REMARK   14  A    between atoms: C_39  and  C_41
REMARK   15  A    between atoms: C_41  and  C_44
REMARK                            x       y       z     vdW  Elec       q    Type
REMARK                         _______ _______ _______ _____ _____    ______ ____
ROOT
ATOM      1  C   UNL     1       7.452   0.693  24.866  0.00  0.00    +0.237 C 
ATOM      2  N   UNL     1       8.718   0.570  24.333  0.00  0.00    -0.288 N 
ATOM      3  C   UNL     1       9.129   1.200  23.064  0.00  0.00    +0.162 C 
ATOM      4  C   UNL     1      10.680   1.274  23.239  0.00  0.00    +0.033 C 
ATOM      5  C   UNL     1      10.975   0.681  24.620  0.00  0.00    +0.021 C 
ATOM      6  C   UNL     1       9.817  -0.253  24.823  0.00  0.00    +0.109 C 
ATOM      7  O   UNL     1       6.574   1.324  24.274  0.00  0.00    -0.274 OA
ENDROOT
BRANCH   3   8
ATOM      8  C   UNL     1       8.548   2.571  22.588  0.00  0.00    +0.234 C 
ATOM      9  N   UNL     1       8.813   3.648  23.414  0.00  0.00    -0.304 N 
ATOM     10  H   UNL     1       9.625   3.546  24.032  0.00  0.00    +0.149 HD
ATOM     11  O   UNL     1       7.811   2.686  21.609  0.00  0.00    -0.274 OA
BRANCH   9  12
ATOM     12  C   UNL     1       8.290   4.997  23.191  0.00  0.00    +0.148 C 
BRANCH  12  13
ATOM     13  C   UNL     1       9.303   6.135  23.500  0.00  0.00    +0.011 C 
ATOM     14  C   UNL     1      10.706   5.607  23.805  0.00  0.00    +0.009 C 
ATOM     15  C   UNL     1       8.856   7.108  24.595  0.00  0.00    +0.009 C 
ENDBRANCH  12  13
BRANCH  12  16
ATOM     16  C   UNL     1       6.977   5.156  23.985  0.00  0.00    +0.231 C 
ATOM     17  O   UNL     1       6.853   4.712  25.132  0.00  0.00    -0.289 OA
BRANCH  16  18
ATOM     18  C   UNL     1       5.829   5.856  23.286  0.00  0.00    +0.400 C 
ATOM     19  F   UNL     1       6.214   6.415  22.097  0.00  0.00    -0.187 F 
ATOM     20  F   UNL     1       5.373   6.919  24.021  0.00  0.00    -0.187 F 
BRANCH  18  21
ATOM     21  C   UNL     1       4.699   4.857  23.052  0.00  0.00    +0.462 C 
ATOM     22  F   UNL     1       5.149   3.755  22.397  0.00  0.00    -0.165 F 
ATOM     23  F   UNL     1       3.707   5.375  22.286  0.00  0.00    -0.165 F 
ATOM     24  F   UNL     1       4.124   4.412  24.194  0.00  0.00    -0.165 F 
ENDBRANCH  18  21
ENDBRANCH  16  18
ENDBRANCH  12  16
ENDBRANCH   9  12
ENDBRANCH   3   8
BRANCH   1  25
ATOM     25  C   UNL     1       7.197   0.122  26.294  0.00  0.00    +0.162 C 
BRANCH  25  26
ATOM     26  N   UNL     1       6.424  -1.127  26.365  0.00  0.00    -0.300 N 
ATOM     27  H   UNL     1       5.441  -1.030  26.580  0.00  0.00    +0.150 HD
ATOM     28  C   UNL     1       7.014  -2.347  26.591  0.00  0.00    +0.245 C 
ATOM     29  O   UNL     1       8.215  -2.537  26.711  0.00  0.00    -0.270 OA
BRANCH  28  30
ATOM     30  C   UNL     1       6.112  -3.515  26.758  0.00  0.00    +0.037 A 
ATOM     31  C   UNL     1       4.873  -3.261  27.356  0.00  0.00    +0.014 A 
ATOM     32  C   UNL     1       3.941  -4.282  27.491  0.00  0.00    +0.014 A 
ATOM     33  C   UNL     1       4.245  -5.571  27.046  0.00  0.00    +0.037 A 
ATOM     34  C   UNL     1       5.537  -5.852  26.571  0.00  0.00    +0.014 A 
ATOM     35  C   UNL     1       6.460  -4.813  26.389  0.00  0.00    +0.014 A 
BRANCH  33  36
ATOM     36  C   UNL     1       3.179  -6.593  27.169  0.00  0.00    +0.247 C 
ATOM     37  N   UNL     1       2.316  -6.858  26.112  0.00  0.00    -0.293 N 
ATOM     38  C   UNL     1       1.337  -7.936  26.260  0.00  0.00    +0.136 C 
ATOM     39  C   UNL     1       1.578  -9.000  25.182  0.00  0.00    +0.179 C 
ATOM     40  O   UNL     1       1.589  -8.429  23.862  0.00  0.00    -0.377 OA
ATOM     41  C   UNL     1       2.577  -7.388  23.749  0.00  0.00    +0.179 C 
ATOM     42  C   UNL     1       2.296  -6.276  24.767  0.00  0.00    +0.136 C 
ATOM     43  O   UNL     1       3.069  -7.152  28.260  0.00  0.00    -0.270 OA
ENDBRANCH  33  36
ENDBRANCH  28  30
ENDBRANCH  25  26
BRANCH  25  45
ATOM     44  C   UNL     1       5.000   1.022  27.287  0.00  0.00    +0.009 C 
ATOM     45  C   UNL     1       6.520   1.210  27.177  0.00  0.00    +0.012 C 
ATOM     46  C   UNL     1       7.142   1.319  28.576  0.00  0.00    +0.009 C 
ENDBRANCH  25  45
ENDBRANCH   1  25
TORSDOF 11
ENDMDL
MODEL 6
REMARK VINA RESULT:      -6.2      3.224      9.423
REMARK  Name = 
REMARK  15 active torsions:
REMARK  status: ('A' for Active; 'I' for Inactive)
REMARK    1  A    between atoms: C_1  and  C_2
REMARK    2  A    between atoms: C_2  and  C_3
REMARK    3  A    between atoms: C_2  and  C_4
REMARK    4  A    between atoms: C_4  and  N_6
REMARK    5  A    between atoms: C_4  and  C_23
REMARK    6  A    between atoms: C_7  and  C_9
REMARK    7  A    between atoms: C_12  and  C_15
REMARK    8  A    between atoms: C_29  and  C_31
REMARK    9  A    between atoms: N_33  and  C_34
REMARK   10  A    between atoms: C_34  and  C_36
REMARK   11  A    between atoms: C_34  and  C_39
REMARK   12  A    between atoms: C_36  and  C_37
REMARK   13  A    between atoms: C_36  and  C_38
REMARK   14  A    between atoms: C_39  and  C_41
REMARK   15  A    between atoms: C_41  and  C_44
REMARK                            x       y       z     vdW  Elec       q    Type
REMARK                         _______ _______ _______ _____ _____    ______ ____
ROOT
ATOM      1  C   UNL     1       8.020   0.230  23.259  0.00  0.00    +0.237 C 
ATOM      2  N   UNL     1       9.152   1.010  23.141  0.00  0.00    -0.288 N 
ATOM      3  C   UNL     1       9.143   2.374  22.581  0.00  0.00    +0.162 C 
ATOM      4  C   UNL     1      10.434   2.982  23.216  0.00  0.00    +0.033 C 
ATOM      5  C   UNL     1      11.030   1.877  24.094  0.00  0.00    +0.021 C 
ATOM      6  C   UNL     1      10.531   0.630  23.424  0.00  0.00    +0.109 C 
ATOM      7  O   UNL     1       6.928   0.636  22.859  0.00  0.00    -0.274 OA
ENDROOT
BRANCH   3   8
ATOM      8  C   UNL     1       7.923   3.336  22.750  0.00  0.00    +0.234 C 
ATOM      9  N   UNL     1       7.501   3.538  24.052  0.00  0.00    -0.304 N 
ATOM     10  H   UNL     1       8.199   3.355  24.780  0.00  0.00    +0.149 HD
ATOM     11  O   UNL     1       7.298   3.804  21.799  0.00  0.00    -0.274 OA
BRANCH   9  12
ATOM     12  C   UNL     1       6.328   4.335  24.416  0.00  0.00    +0.148 C 
BRANCH  12  13
ATOM     13  C   UNL     1       6.558   5.304  25.610  0.00  0.00    +0.011 C 
ATOM     14  C   UNL     1       6.506   6.775  25.192  0.00  0.00    +0.009 C 
ATOM     15  C   UNL     1       7.830   5.029  26.418  0.00  0.00    +0.009 C 
ENDBRANCH  12  13
BRANCH  12  16
ATOM     16  C   UNL     1       5.140   3.382  24.661  0.00  0.00    +0.231 C 
ATOM     17  O   UNL     1       5.293   2.275  25.189  0.00  0.00    -0.289 OA
BRANCH  16  18
ATOM     18  C   UNL     1       3.774   3.849  24.198  0.00  0.00    +0.400 C 
ATOM     19  F   UNL     1       3.392   5.010  24.813  0.00  0.00    -0.187 F 
ATOM     20  F   UNL     1       2.799   2.952  24.544  0.00  0.00    -0.187 F 
BRANCH  18  21
ATOM     21  C   UNL     1       3.796   4.042  22.684  0.00  0.00    +0.462 C 
ATOM     22  F   UNL     1       4.365   2.975  22.064  0.00  0.00    -0.165 F 
ATOM     23  F   UNL     1       4.522   5.127  22.316  0.00  0.00    -0.165 F 
ATOM     24  F   UNL     1       2.565   4.186  22.139  0.00  0.00    -0.165 F 
ENDBRANCH  18  21
ENDBRANCH  16  18
ENDBRANCH  12  16
ENDBRANCH   9  12
ENDBRANCH   3   8
BRANCH   1  25
ATOM     25  C   UNL     1       8.136  -1.124  24.023  0.00  0.00    +0.162 C 
BRANCH  25  26
ATOM     26  N   UNL     1       6.963  -2.008  23.958  0.00  0.00    -0.300 N 
ATOM     27  H   UNL     1       6.403  -2.065  24.798  0.00  0.00    +0.150 HD
ATOM     28  C   UNL     1       6.860  -3.030  23.046  0.00  0.00    +0.245 C 
ATOM     29  O   UNL     1       7.683  -3.288  22.181  0.00  0.00    -0.270 OA
BRANCH  28  30
ATOM     30  C   UNL     1       5.680  -3.925  23.161  0.00  0.00    +0.037 A 
ATOM     31  C   UNL     1       5.753  -5.140  22.472  0.00  0.00    +0.014 A 
ATOM     32  C   UNL     1       4.724  -6.066  22.578  0.00  0.00    +0.014 A 
ATOM     33  C   UNL     1       3.602  -5.779  23.361  0.00  0.00    +0.037 A 
ATOM     34  C   UNL     1       3.471  -4.506  23.940  0.00  0.00    +0.014 A 
ATOM     35  C   UNL     1       4.530  -3.591  23.875  0.00  0.00    +0.014 A 
BRANCH  33  36
ATOM     36  C   UNL     1       2.572  -6.839  23.474  0.00  0.00    +0.247 C 
ATOM     37  N   UNL     1       2.452  -7.598  24.632  0.00  0.00    -0.293 N 
ATOM     38  C   UNL     1       1.364  -8.573  24.720  0.00  0.00    +0.136 C 
ATOM     39  C   UNL     1       0.454  -8.221  25.904  0.00  0.00    +0.179 C 
ATOM     40  O   UNL     1       1.197  -8.097  27.129  0.00  0.00    -0.377 OA
ATOM     41  C   UNL     1       2.244  -7.115  27.010  0.00  0.00    +0.179 C 
ATOM     42  C   UNL     1       3.209  -7.502  25.883  0.00  0.00    +0.136 C 
ATOM     43  O   UNL     1       1.872  -7.042  22.483  0.00  0.00    -0.270 OA
ENDBRANCH  33  36
ENDBRANCH  28  30
ENDBRANCH  25  26
BRANCH  25  45
ATOM     44  C   UNL     1       7.713   0.311  26.117  0.00  0.00    +0.009 C 
ATOM     45  C   UNL     1       8.509  -0.852  25.510  0.00  0.00    +0.012 C 
ATOM     46  C   UNL     1       8.384  -2.099  26.395  0.00  0.00    +0.009 C 
ENDBRANCH  25  45
ENDBRANCH   1  25
TORSDOF 11
ENDMDL
MODEL 7
REMARK VINA RESULT:      -6.1      3.130      9.942
REMARK  Name = 
REMARK  15 active torsions:
REMARK  status: ('A' for Active; 'I' for Inactive)
REMARK    1  A    between atoms: C_1  and  C_2
REMARK    2  A    between atoms: C_2  and  C_3
REMARK    3  A    between atoms: C_2  and  C_4
REMARK    4  A    between atoms: C_4  and  N_6
REMARK    5  A    between atoms: C_4  and  C_23
REMARK    6  A    between atoms: C_7  and  C_9
REMARK    7  A    between atoms: C_12  and  C_15
REMARK    8  A    between atoms: C_29  and  C_31
REMARK    9  A    between atoms: N_33  and  C_34
REMARK   10  A    between atoms: C_34  and  C_36
REMARK   11  A    between atoms: C_34  and  C_39
REMARK   12  A    between atoms: C_36  and  C_37
REMARK   13  A    between atoms: C_36  and  C_38
REMARK   14  A    between atoms: C_39  and  C_41
REMARK   15  A    between atoms: C_41  and  C_44
REMARK                            x       y       z     vdW  Elec       q    Type
REMARK                         _______ _______ _______ _____ _____    ______ ____
ROOT
ATOM      1  C   UNL     1       6.879   0.187  23.980  0.00  0.00    +0.237 C 
ATOM      2  N   UNL     1       7.806   0.424  22.987  0.00  0.00    -0.288 N 
ATOM      3  C   UNL     1       7.703   1.543  22.030  0.00  0.00    +0.162 C 
ATOM      4  C   UNL     1       9.191   1.714  21.587  0.00  0.00    +0.033 C 
ATOM      5  C   UNL     1       9.986   0.664  22.371  0.00  0.00    +0.021 C 
ATOM      6  C   UNL     1       8.954  -0.398  22.623  0.00  0.00    +0.109 C 
ATOM      7  O   UNL     1       5.878   0.898  24.094  0.00  0.00    -0.274 OA
ENDROOT
BRANCH   3   8
ATOM      8  C   UNL     1       7.068   2.917  22.420  0.00  0.00    +0.234 C 
ATOM      9  N   UNL     1       7.711   3.602  23.435  0.00  0.00    -0.304 N 
ATOM     10  H   UNL     1       8.694   3.355  23.587  0.00  0.00    +0.149 HD
ATOM     11  O   UNL     1       6.009   3.327  21.946  0.00  0.00    -0.274 OA
BRANCH   9  12
ATOM     12  C   UNL     1       7.229   4.863  24.003  0.00  0.00    +0.148 C 
BRANCH  12  13
ATOM     13  C   UNL     1       7.940   6.128  23.446  0.00  0.00    +0.011 C 
ATOM     14  C   UNL     1       7.473   6.493  22.036  0.00  0.00    +0.009 C 
ATOM     15  C   UNL     1       9.470   6.074  23.499  0.00  0.00    +0.009 C 
ENDBRANCH  12  13
BRANCH  12  16
ATOM     16  C   UNL     1       7.312   4.777  25.540  0.00  0.00    +0.231 C 
ATOM     17  O   UNL     1       8.272   4.246  26.111  0.00  0.00    -0.289 OA
BRANCH  16  18
ATOM     18  C   UNL     1       6.148   5.346  26.327  0.00  0.00    +0.400 C 
ATOM     19  F   UNL     1       5.726   6.548  25.824  0.00  0.00    -0.187 F 
ATOM     20  F   UNL     1       6.513   5.635  27.615  0.00  0.00    -0.187 F 
BRANCH  18  21
ATOM     21  C   UNL     1       4.998   4.343  26.320  0.00  0.00    +0.462 C 
ATOM     22  F   UNL     1       5.463   3.067  26.255  0.00  0.00    -0.165 F 
ATOM     23  F   UNL     1       4.183   4.505  25.249  0.00  0.00    -0.165 F 
ATOM     24  F   UNL     1       4.218   4.407  27.424  0.00  0.00    -0.165 F 
ENDBRANCH  18  21
ENDBRANCH  16  18
ENDBRANCH  12  16
ENDBRANCH   9  12
ENDBRANCH   3   8
BRANCH   1  25
ATOM     25  C   UNL     1       7.192  -0.922  25.029  0.00  0.00    +0.162 C 
BRANCH  25  26
ATOM     26  N   UNL     1       6.131  -1.913  25.262  0.00  0.00    -0.300 N 
ATOM     27  H   UNL     1       5.335  -1.595  25.798  0.00  0.00    +0.150 HD
ATOM     28  C   UNL     1       6.359  -3.267  25.191  0.00  0.00    +0.245 C 
ATOM     29  O   UNL     1       7.423  -3.787  24.893  0.00  0.00    -0.270 OA
BRANCH  28  30
ATOM     30  C   UNL     1       5.235  -4.163  25.563  0.00  0.00    +0.037 A 
ATOM     31  C   UNL     1       5.506  -5.536  25.549  0.00  0.00    +0.014 A 
ATOM     32  C   UNL     1       4.533  -6.443  25.948  0.00  0.00    +0.014 A 
ATOM     33  C   UNL     1       3.273  -5.988  26.348  0.00  0.00    +0.037 A 
ATOM     34  C   UNL     1       2.962  -4.623  26.232  0.00  0.00    +0.014 A 
ATOM     35  C   UNL     1       3.958  -3.703  25.878  0.00  0.00    +0.014 A 
BRANCH  33  36
ATOM     36  C   UNL     1       2.308  -7.011  26.817  0.00  0.00    +0.247 C 
ATOM     37  N   UNL     1       1.375  -7.565  25.948  0.00  0.00    -0.293 N 
ATOM     38  C   UNL     1       0.504  -8.631  26.443  0.00  0.00    +0.136 C 
ATOM     39  C   UNL     1       0.729  -9.904  25.617  0.00  0.00    +0.179 C 
ATOM     40  O   UNL     1       0.572  -9.660  24.209  0.00  0.00    -0.377 OA
ATOM     41  C   UNL     1       1.459  -8.621  23.754  0.00  0.00    +0.179 C 
ATOM     42  C   UNL     1       1.185  -7.318  24.516  0.00  0.00    +0.136 C 
ATOM     43  O   UNL     1       2.344  -7.303  28.011  0.00  0.00    -0.270 OA
ENDBRANCH  33  36
ENDBRANCH  28  30
ENDBRANCH  25  26
BRANCH  25  45
ATOM     44  C   UNL     1       6.447  -0.222  27.391  0.00  0.00    +0.009 C 
ATOM     45  C   UNL     1       7.600  -0.262  26.379  0.00  0.00    +0.012 C 
ATOM     46  C   UNL     1       8.838  -0.912  27.012  0.00  0.00    +0.009 C 
ENDBRANCH  25  45
ENDBRANCH   1  25
TORSDOF 11
ENDMDL
MODEL 8
REMARK VINA RESULT:      -6.0      3.291      4.869
REMARK  Name = 
REMARK  15 active torsions:
REMARK  status: ('A' for Active; 'I' for Inactive)
REMARK    1  A    between atoms: C_1  and  C_2
REMARK    2  A    between atoms: C_2  and  C_3
REMARK    3  A    between atoms: C_2  and  C_4
REMARK    4  A    between atoms: C_4  and  N_6
REMARK    5  A    between atoms: C_4  and  C_23
REMARK    6  A    between atoms: C_7  and  C_9
REMARK    7  A    between atoms: C_12  and  C_15
REMARK    8  A    between atoms: C_29  and  C_31
REMARK    9  A    between atoms: N_33  and  C_34
REMARK   10  A    between atoms: C_34  and  C_36
REMARK   11  A    between atoms: C_34  and  C_39
REMARK   12  A    between atoms: C_36  and  C_37
REMARK   13  A    between atoms: C_36  and  C_38
REMARK   14  A    between atoms: C_39  and  C_41
REMARK   15  A    between atoms: C_41  and  C_44
REMARK                            x       y       z     vdW  Elec       q    Type
REMARK                         _______ _______ _______ _____ _____    ______ ____
ROOT
ATOM      1  C   UNL     1       8.060  -2.114  25.631  0.00  0.00    +0.237 C 
ATOM      2  N   UNL     1       8.599  -3.370  25.814  0.00  0.00    -0.288 N 
ATOM      3  C   UNL     1       8.019  -4.378  26.721  0.00  0.00    +0.162 C 
ATOM      4  C   UNL     1       8.584  -5.704  26.119  0.00  0.00    +0.033 C 
ATOM      5  C   UNL     1       9.423  -5.289  24.906  0.00  0.00    +0.021 C 
ATOM      6  C   UNL     1       9.845  -3.895  25.269  0.00  0.00    +0.109 C 
ATOM      7  O   UNL     1       7.062  -1.755  26.260  0.00  0.00    -0.274 OA
ENDROOT
BRANCH   3   8
ATOM      8  C   UNL     1       6.480  -4.484  26.974  0.00  0.00    +0.234 C 
ATOM      9  N   UNL     1       5.757  -5.124  25.984  0.00  0.00    -0.304 N 
ATOM     10  H   UNL     1       6.291  -5.763  25.385  0.00  0.00    +0.149 HD
ATOM     11  O   UNL     1       5.916  -3.946  27.927  0.00  0.00    -0.274 OA
BRANCH   9  12
ATOM     12  C   UNL     1       4.299  -5.253  25.991  0.00  0.00    +0.148 C 
BRANCH  12  13
ATOM     13  C   UNL     1       3.778  -6.592  26.585  0.00  0.00    +0.011 C 
ATOM     14  C   UNL     1       2.264  -6.752  26.437  0.00  0.00    +0.009 C 
ATOM     15  C   UNL     1       4.198  -6.853  28.034  0.00  0.00    +0.009 C 
ENDBRANCH  12  13
BRANCH  12  16
ATOM     16  C   UNL     1       3.774  -5.008  24.561  0.00  0.00    +0.231 C 
ATOM     17  O   UNL     1       2.957  -4.112  24.314  0.00  0.00    -0.289 OA
BRANCH  16  18
ATOM     18  C   UNL     1       4.279  -5.932  23.472  0.00  0.00    +0.400 C 
ATOM     19  F   UNL     1       3.266  -6.386  22.671  0.00  0.00    -0.187 F 
ATOM     20  F   UNL     1       4.822  -7.073  24.001  0.00  0.00    -0.187 F 
BRANCH  18  21
ATOM     21  C   UNL     1       5.320  -5.197  22.632  0.00  0.00    +0.462 C 
ATOM     22  F   UNL     1       4.889  -3.951  22.300  0.00  0.00    -0.165 F 
ATOM     23  F   UNL     1       5.579  -5.833  21.463  0.00  0.00    -0.165 F 
ATOM     24  F   UNL     1       6.507  -5.032  23.263  0.00  0.00    -0.165 F 
ENDBRANCH  18  21
ENDBRANCH  16  18
ENDBRANCH  12  16
ENDBRANCH   9  12
ENDBRANCH   3   8
BRANCH   1  25
ATOM     25  C   UNL     1       8.669  -1.207  24.520  0.00  0.00    +0.162 C 
BRANCH  25  26
ATOM     26  N   UNL     1       8.043   0.113  24.343  0.00  0.00    -0.300 N 
ATOM     27  H   UNL     1       7.122   0.116  23.928  0.00  0.00    +0.150 HD
ATOM     28  C   UNL     1       8.776   1.274  24.293  0.00  0.00    +0.245 C 
ATOM     29  O   UNL     1       9.988   1.349  24.428  0.00  0.00    -0.270 OA
BRANCH  28  30
ATOM     30  C   UNL     1       8.038   2.527  23.992  0.00  0.00    +0.037 A 
ATOM     31  C   UNL     1       7.853   2.829  22.638  0.00  0.00    +0.014 A 
ATOM     32  C   UNL     1       7.117   3.946  22.266  0.00  0.00    +0.014 A 
ATOM     33  C   UNL     1       6.572   4.783  23.244  0.00  0.00    +0.037 A 
ATOM     34  C   UNL     1       6.874   4.553  24.597  0.00  0.00    +0.014 A 
ATOM     35  C   UNL     1       7.575   3.400  24.975  0.00  0.00    +0.014 A 
BRANCH  33  36
ATOM     36  C   UNL     1       5.749   5.921  22.771  0.00  0.00    +0.247 C 
ATOM     37  N   UNL     1       4.407   5.749  22.453  0.00  0.00    -0.293 N 
ATOM     38  C   UNL     1       3.622   6.925  22.073  0.00  0.00    +0.136 C 
ATOM     39  C   UNL     1       2.461   7.108  23.060  0.00  0.00    +0.179 C 
ATOM     40  O   UNL     1       1.666   5.915  23.175  0.00  0.00    -0.377 OA
ATOM     41  C   UNL     1       2.469   4.786  23.570  0.00  0.00    +0.179 C 
ATOM     42  C   UNL     1       3.583   4.542  22.545  0.00  0.00    +0.136 C 
ATOM     43  O   UNL     1       6.323   7.001  22.629  0.00  0.00    -0.270 OA
ENDBRANCH  33  36
ENDBRANCH  28  30
ENDBRANCH  25  26
BRANCH  25  45
ATOM     44  C   UNL     1       7.334  -1.859  22.418  0.00  0.00    +0.009 C 
ATOM     45  C   UNL     1       8.670  -1.973  23.165  0.00  0.00    +0.012 C 
ATOM     46  C   UNL     1       9.828  -1.561  22.245  0.00  0.00    +0.009 C 
ENDBRANCH  25  45
ENDBRANCH   1  25
TORSDOF 11
ENDMDL
MODEL 9
REMARK VINA RESULT:      -5.9      3.031      4.435
REMARK  Name = 
REMARK  15 active torsions:
REMARK  status: ('A' for Active; 'I' for Inactive)
REMARK    1  A    between atoms: C_1  and  C_2
REMARK    2  A    between atoms: C_2  and  C_3
REMARK    3  A    between atoms: C_2  and  C_4
REMARK    4  A    between atoms: C_4  and  N_6
REMARK    5  A    between atoms: C_4  and  C_23
REMARK    6  A    between atoms: C_7  and  C_9
REMARK    7  A    between atoms: C_12  and  C_15
REMARK    8  A    between atoms: C_29  and  C_31
REMARK    9  A    between atoms: N_33  and  C_34
REMARK   10  A    between atoms: C_34  and  C_36
REMARK   11  A    between atoms: C_34  and  C_39
REMARK   12  A    between atoms: C_36  and  C_37
REMARK   13  A    between atoms: C_36  and  C_38
REMARK   14  A    between atoms: C_39  and  C_41
REMARK   15  A    between atoms: C_41  and  C_44
REMARK                            x       y       z     vdW  Elec       q    Type
REMARK                         _______ _______ _______ _____ _____    ______ ____
ROOT
ATOM      1  C   UNL     1       4.930  -3.263  25.040  0.00  0.00    +0.237 C 
ATOM      2  N   UNL     1       4.339  -2.572  26.076  0.00  0.00    -0.288 N 
ATOM      3  C   UNL     1       2.892  -2.614  26.359  0.00  0.00    +0.162 C 
ATOM      4  C   UNL     1       2.855  -2.219  27.870  0.00  0.00    +0.033 C 
ATOM      5  C   UNL     1       4.316  -2.009  28.283  0.00  0.00    +0.021 C 
ATOM      6  C   UNL     1       4.964  -1.619  26.986  0.00  0.00    +0.109 C 
ATOM      7  O   UNL     1       4.253  -3.939  24.262  0.00  0.00    -0.274 OA
ENDROOT
BRANCH   3   8
ATOM      8  C   UNL     1       2.027  -3.888  26.087  0.00  0.00    +0.234 C 
ATOM      9  N   UNL     1       2.520  -5.066  26.618  0.00  0.00    -0.304 N 
ATOM     10  H   UNL     1       3.167  -4.962  27.407  0.00  0.00    +0.149 HD
ATOM     11  O   UNL     1       1.032  -3.884  25.362  0.00  0.00    -0.274 OA
BRANCH   9  12
ATOM     12  C   UNL     1       1.906  -6.378  26.406  0.00  0.00    +0.148 C 
BRANCH  12  13
ATOM     13  C   UNL     1       1.841  -7.266  27.681  0.00  0.00    +0.011 C 
ATOM     14  C   UNL     1       0.443  -7.302  28.302  0.00  0.00    +0.009 C 
ATOM     15  C   UNL     1       2.886  -6.928  28.748  0.00  0.00    +0.009 C 
ENDBRANCH  12  13
BRANCH  12  16
ATOM     16  C   UNL     1       2.632  -7.082  25.242  0.00  0.00    +0.231 C 
ATOM     17  O   UNL     1       3.863  -7.204  25.222  0.00  0.00    -0.289 OA
BRANCH  16  18
ATOM     18  C   UNL     1       1.774  -7.596  24.104  0.00  0.00    +0.400 C 
ATOM     19  F   UNL     1       0.443  -7.605  24.426  0.00  0.00    -0.187 F 
ATOM     20  F   UNL     1       2.057  -8.906  23.820  0.00  0.00    -0.187 F 
BRANCH  18  21
ATOM     21  C   UNL     1       2.007  -6.730  22.869  0.00  0.00    +0.462 C 
ATOM     22  F   UNL     1       1.257  -5.597  22.918  0.00  0.00    -0.165 F 
ATOM     23  F   UNL     1       1.658  -7.366  21.723  0.00  0.00    -0.165 F 
ATOM     24  F   UNL     1       3.291  -6.328  22.723  0.00  0.00    -0.165 F 
ENDBRANCH  18  21
ENDBRANCH  16  18
ENDBRANCH  12  16
ENDBRANCH   9  12
ENDBRANCH   3   8
BRANCH   1  25
ATOM     25  C   UNL     1       6.486  -3.269  24.953  0.00  0.00    +0.162 C 
BRANCH  25  26
ATOM     26  N   UNL     1       7.124  -1.983  24.633  0.00  0.00    -0.300 N 
ATOM     27  H   UNL     1       6.977  -1.635  23.696  0.00  0.00    +0.150 HD
ATOM     28  C   UNL     1       8.201  -1.500  25.337  0.00  0.00    +0.245 C 
ATOM     29  O   UNL     1       8.710  -2.041  26.306  0.00  0.00    -0.270 OA
BRANCH  28  30
ATOM     30  C   UNL     1       8.827  -0.248  24.840  0.00  0.00    +0.037 A 
ATOM     31  C   UNL     1       8.149   0.942  25.127  0.00  0.00    +0.014 A 
ATOM     32  C   UNL     1       8.697   2.163  24.759  0.00  0.00    +0.014 A 
ATOM     33  C   UNL     1       9.920   2.208  24.084  0.00  0.00    +0.037 A 
ATOM     34  C   UNL     1      10.529   1.009  23.679  0.00  0.00    +0.014 A 
ATOM     35  C   UNL     1      10.004  -0.223  24.093  0.00  0.00    +0.014 A 
BRANCH  33  36
ATOM     36  C   UNL     1      10.469   3.550  23.777  0.00  0.00    +0.247 C 
ATOM     37  N   UNL     1       9.715   4.697  23.992  0.00  0.00    -0.293 N 
ATOM     38  C   UNL     1      10.338   6.000  23.752  0.00  0.00    +0.136 C 
ATOM     39  C   UNL     1      10.341   6.815  25.051  0.00  0.00    +0.179 C 
ATOM     40  O   UNL     1       9.023   6.919  25.618  0.00  0.00    -0.377 OA
ATOM     41  C   UNL     1       8.452   5.620  25.859  0.00  0.00    +0.179 C 
ATOM     42  C   UNL     1       8.366   4.826  24.550  0.00  0.00    +0.136 C 
ATOM     43  O   UNL     1      11.595   3.589  23.282  0.00  0.00    -0.270 OA
ENDBRANCH  33  36
ENDBRANCH  28  30
ENDBRANCH  25  26
BRANCH  25  45
ATOM     44  C   UNL     1       7.167  -3.786  22.525  0.00  0.00    +0.009 C 
ATOM     45  C   UNL     1       6.947  -4.353  23.935  0.00  0.00    +0.012 C 
ATOM     46  C   UNL     1       8.195  -5.118  24.398  0.00  0.00    +0.009 C 
ENDBRANCH  25  45
ENDBRANCH   1  25
TORSDOF 11
ENDMDL
