MODEL 1
REMARK VINA RESULT:      -7.3      0.000      0.000
REMARK  Name = 
REMARK  9 active torsions:
REMARK  status: ('A' for Active; 'I' for Inactive)
REMARK    1  A    between atoms: C_2  and  C_3
REMARK    2  A    between atoms: C_2  and  O_4
REMARK    3  A    between atoms: C_2  and  C_5
REMARK    4  A    between atoms: C_5  and  C_7
REMARK    5  A    between atoms: C_5  and  N_25
REMARK    6  A    between atoms: C_7  and  C_8
REMARK    7  A    between atoms: C_8  and  C_9
REMARK    8  A    between atoms: C_16  and  C_18
REMARK    9  A    between atoms: C_28  and  C_30
REMARK                            x       y       z     vdW  Elec       q    Type
REMARK                         _______ _______ _______ _____ _____    ______ ____
ROOT
ATOM      1  C   UNL     1       4.196  -3.286  24.822  0.00  0.00    +0.041 C 
ENDROOT
BRANCH   1   2
ATOM      2  C   UNL     1       5.005  -3.882  23.699  0.00  0.00    -0.003 A 
ATOM      3  C   UNL     1       6.124  -3.257  23.140  0.00  0.00    +0.159 A 
ATOM      4  O   UNL     1       6.652  -2.055  23.505  0.00  0.00    -0.435 OA
ATOM      5  C   UNL     1       7.713  -1.873  22.657  0.00  0.00    +0.228 A 
ATOM      6  N   UNL     1       7.898  -2.861  21.798  0.00  0.00    -0.209 NA
ATOM      7  C   UNL     1       6.895  -3.752  22.103  0.00  0.00    +0.110 A 
ATOM      8  C   UNL     1       6.566  -4.997  21.556  0.00  0.00    +0.031 A 
ATOM      9  C   UNL     1       5.469  -5.685  22.095  0.00  0.00    +0.003 A 
ATOM     10  C   UNL     1       4.709  -5.138  23.143  0.00  0.00    +0.007 A 
BRANCH   5  11
ATOM     11  C   UNL     1       8.458  -0.628  22.830  0.00  0.00    +0.037 A 
ATOM     12  C   UNL     1       8.509  -0.004  24.087  0.00  0.00    +0.014 A 
ATOM     13  C   UNL     1       9.230   1.183  24.268  0.00  0.00    +0.021 A 
ATOM     14  C   UNL     1       9.904   1.757  23.193  0.00  0.00    +0.041 A 
ATOM     15 CL   UNL     1      10.799   3.209  23.415  0.00  0.00    -0.084 Cl
ATOM     16  C   UNL     1       9.860   1.158  21.937  0.00  0.00    +0.021 A 
ATOM     17  C   UNL     1       9.142  -0.027  21.757  0.00  0.00    +0.014 A 
ENDBRANCH   5  11
ENDBRANCH   1   2
BRANCH   1  18
ATOM     18  C   UNL     1       4.015  -4.283  25.974  0.00  0.00    +0.032 C 
BRANCH  18  19
ATOM     19  C   UNL     1       4.944  -4.050  27.193  0.00  0.00    +0.117 C 
BRANCH  19  20
ATOM     20  N   UNL     1       6.331  -3.828  26.764  0.00  0.00    -0.331 N 
ATOM     21  C   UNL     1       7.160  -4.779  26.219  0.00  0.00    +0.120 A 
ATOM     22  C   UNL     1       8.334  -4.122  25.915  0.00  0.00    +0.143 A 
ATOM     23  N   UNL     1       8.254  -2.799  26.322  0.00  0.00    -0.231 NA
ATOM     24  C   UNL     1       7.042  -2.659  26.813  0.00  0.00    +0.200 A 
BRANCH  22  25
ATOM     25  C   UNL     1       9.504  -4.680  25.247  0.00  0.00    +0.261 C 
ATOM     26  O   UNL     1      10.188  -4.076  24.429  0.00  0.00    -0.269 OA
ATOM     27  N   UNL     1       9.790  -5.958  25.634  0.00  0.00    -0.324 N 
ATOM     28  H   UNL     1      10.603  -6.423  25.265  0.00  0.00    +0.145 HD
ATOM     29  H   UNL     1       9.210  -6.393  26.342  0.00  0.00    +0.145 HD
ENDBRANCH  22  25
ENDBRANCH  19  20
BRANCH  19  30
ATOM     30  C   UNL     1       4.834  -5.172  28.262  0.00  0.00    +0.134 C 
ATOM     31  C   UNL     1       3.431  -5.379  28.828  0.00  0.00    +0.040 C 
BRANCH  30  32
ATOM     32  O   UNL     1       5.756  -4.939  29.327  0.00  0.00    -0.390 OA
ATOM     33  H   UNL     1       5.260  -4.550  30.070  0.00  0.00    +0.210 HD
ENDBRANCH  30  32
ENDBRANCH  19  30
ENDBRANCH  18  19
ENDBRANCH   1  18
TORSDOF 8
ENDMDL
MODEL 2
REMARK VINA RESULT:      -7.3      3.561      7.484
REMARK  Name = 
REMARK  9 active torsions:
REMARK  status: ('A' for Active; 'I' for Inactive)
REMARK    1  A    between atoms: C_2  and  C_3
REMARK    2  A    between atoms: C_2  and  O_4
REMARK    3  A    between atoms: C_2  and  C_5
REMARK    4  A    between atoms: C_5  and  C_7
REMARK    5  A    between atoms: C_5  and  N_25
REMARK    6  A    between atoms: C_7  and  C_8
REMARK    7  A    between atoms: C_8  and  C_9
REMARK    8  A    between atoms: C_16  and  C_18
REMARK    9  A    between atoms: C_28  and  C_30
REMARK                            x       y       z     vdW  Elec       q    Type
REMARK                         _______ _______ _______ _____ _____    ______ ____
ROOT
ATOM      1  C   UNL     1       7.241   3.061  24.588  0.00  0.00    +0.041 C 
ENDROOT
BRANCH   1   2
ATOM      2  C   UNL     1       7.114   2.261  25.859  0.00  0.00    -0.003 A 
ATOM      3  C   UNL     1       7.089   0.864  25.890  0.00  0.00    +0.159 A 
ATOM      4  O   UNL     1       7.177   0.024  24.821  0.00  0.00    -0.435 OA
ATOM      5  C   UNL     1       7.084  -1.232  25.361  0.00  0.00    +0.228 A 
ATOM      6  N   UNL     1       6.953  -1.249  26.677  0.00  0.00    -0.209 NA
ATOM      7  C   UNL     1       6.963   0.081  27.025  0.00  0.00    +0.110 A 
ATOM      8  C   UNL     1       6.870   0.712  28.270  0.00  0.00    +0.031 A 
ATOM      9  C   UNL     1       6.918   2.114  28.304  0.00  0.00    +0.003 A 
ATOM     10  C   UNL     1       7.038   2.868  27.125  0.00  0.00    +0.007 A 
BRANCH   5  11
ATOM     11  C   UNL     1       7.138  -2.338  24.408  0.00  0.00    +0.037 A 
ATOM     12  C   UNL     1       7.743  -3.552  24.770  0.00  0.00    +0.014 A 
ATOM     13  C   UNL     1       7.790  -4.624  23.870  0.00  0.00    +0.021 A 
ATOM     14  C   UNL     1       7.234  -4.491  22.601  0.00  0.00    +0.041 A 
ATOM     15 CL   UNL     1       7.281  -5.809  21.498  0.00  0.00    -0.084 Cl
ATOM     16  C   UNL     1       6.635  -3.293  22.220  0.00  0.00    +0.021 A 
ATOM     17  C   UNL     1       6.587  -2.224  23.119  0.00  0.00    +0.014 A 
ENDBRANCH   5  11
ENDBRANCH   1   2
BRANCH   1  18
ATOM     18  C   UNL     1       8.499   3.941  24.602  0.00  0.00    +0.032 C 
BRANCH  18  19
ATOM     19  C   UNL     1       9.567   3.574  23.541  0.00  0.00    +0.117 C 
BRANCH  19  20
ATOM     20  N   UNL     1       9.871   2.137  23.575  0.00  0.00    -0.331 N 
ATOM     21  C   UNL     1       9.563   1.232  22.588  0.00  0.00    +0.120 A 
ATOM     22  C   UNL     1      10.083   0.027  23.010  0.00  0.00    +0.143 A 
ATOM     23  N   UNL     1      10.649   0.171  24.267  0.00  0.00    -0.231 NA
ATOM     24  C   UNL     1      10.513   1.444  24.566  0.00  0.00    +0.200 A 
BRANCH  22  25
ATOM     25  C   UNL     1      10.083  -1.234  22.277  0.00  0.00    +0.261 C 
ATOM     26  O   UNL     1      10.516  -2.292  22.719  0.00  0.00    -0.269 OA
ATOM     27  N   UNL     1       9.529  -1.137  21.034  0.00  0.00    -0.324 N 
ATOM     28  H   UNL     1       9.441  -1.959  20.458  0.00  0.00    +0.145 HD
ATOM     29  H   UNL     1       9.153  -0.243  20.736  0.00  0.00    +0.145 HD
ENDBRANCH  22  25
ENDBRANCH  19  20
BRANCH  19  30
ATOM     30  C   UNL     1      10.848   4.446  23.643  0.00  0.00    +0.134 C 
ATOM     31  C   UNL     1      10.591   5.949  23.732  0.00  0.00    +0.040 C 
BRANCH  30  32
ATOM     32  O   UNL     1      11.728   4.170  22.554  0.00  0.00    -0.390 OA
ATOM     33  H   UNL     1      11.991   5.021  22.160  0.00  0.00    +0.210 HD
ENDBRANCH  30  32
ENDBRANCH  19  30
ENDBRANCH  18  19
ENDBRANCH   1  18
TORSDOF 8
ENDMDL
MODEL 3
REMARK VINA RESULT:      -7.0      1.876      3.110
REMARK  Name = 
REMARK  9 active torsions:
REMARK  status: ('A' for Active; 'I' for Inactive)
REMARK    1  A    between atoms: C_2  and  C_3
REMARK    2  A    between atoms: C_2  and  O_4
REMARK    3  A    between atoms: C_2  and  C_5
REMARK    4  A    between atoms: C_5  and  C_7
REMARK    5  A    between atoms: C_5  and  N_25
REMARK    6  A    between atoms: C_7  and  C_8
REMARK    7  A    between atoms: C_8  and  C_9
REMARK    8  A    between atoms: C_16  and  C_18
REMARK    9  A    between atoms: C_28  and  C_30
REMARK                            x       y       z     vdW  Elec       q    Type
REMARK                         _______ _______ _______ _____ _____    ______ ____
ROOT
ATOM      1  C   UNL     1       9.155  -5.144  25.391  0.00  0.00    +0.041 C 
ENDROOT
BRANCH   1   2
ATOM      2  C   UNL     1       8.340  -4.875  24.153  0.00  0.00    -0.003 A 
ATOM      3  C   UNL     1       8.352  -3.654  23.473  0.00  0.00    +0.159 A 
ATOM      4  O   UNL     1       9.078  -2.548  23.799  0.00  0.00    -0.435 OA
ATOM      5  C   UNL     1       8.733  -1.618  22.854  0.00  0.00    +0.228 A 
ATOM      6  N   UNL     1       7.860  -2.051  21.959  0.00  0.00    -0.209 NA
ATOM      7  C   UNL     1       7.616  -3.349  22.341  0.00  0.00    +0.110 A 
ATOM      8  C   UNL     1       6.793  -4.337  21.790  0.00  0.00    +0.031 A 
ATOM      9  C   UNL     1       6.761  -5.594  22.413  0.00  0.00    +0.003 A 
ATOM     10  C   UNL     1       7.518  -5.854  23.567  0.00  0.00    +0.007 A 
BRANCH   5  11
ATOM     11  C   UNL     1       9.372  -0.311  22.985  0.00  0.00    +0.037 A 
ATOM     12  C   UNL     1      10.000   0.050  24.187  0.00  0.00    +0.014 A 
ATOM     13  C   UNL     1      10.626   1.296  24.322  0.00  0.00    +0.021 A 
ATOM     14  C   UNL     1      10.628   2.191  23.255  0.00  0.00    +0.041 A 
ATOM     15 CL   UNL     1      11.405   3.717  23.414  0.00  0.00    -0.084 Cl
ATOM     16  C   UNL     1      10.005   1.855  22.057  0.00  0.00    +0.021 A 
ATOM     17  C   UNL     1       9.381   0.611  21.923  0.00  0.00    +0.014 A 
ENDBRANCH   5  11
ENDBRANCH   1   2
BRANCH   1  18
ATOM     18  C   UNL     1       8.377  -4.787  26.665  0.00  0.00    +0.032 C 
BRANCH  18  19
ATOM     19  C   UNL     1       6.874  -4.477  26.450  0.00  0.00    +0.117 C 
BRANCH  19  20
ATOM     20  N   UNL     1       6.574  -3.074  26.768  0.00  0.00    -0.331 N 
ATOM     21  C   UNL     1       7.456  -2.026  26.664  0.00  0.00    +0.120 A 
ATOM     22  C   UNL     1       6.738  -0.898  27.003  0.00  0.00    +0.143 A 
ATOM     23  N   UNL     1       5.449  -1.252  27.371  0.00  0.00    -0.231 NA
ATOM     24  C   UNL     1       5.386  -2.555  27.208  0.00  0.00    +0.200 A 
BRANCH  22  25
ATOM     25  C   UNL     1       7.207   0.482  26.976  0.00  0.00    +0.261 C 
ATOM     26  O   UNL     1       7.227   1.188  25.974  0.00  0.00    -0.269 OA
ATOM     27  N   UNL     1       7.617   0.939  28.195  0.00  0.00    -0.324 N 
ATOM     28  H   UNL     1       7.922   1.893  28.297  0.00  0.00    +0.145 HD
ATOM     29  H   UNL     1       7.543   0.321  28.996  0.00  0.00    +0.145 HD
ENDBRANCH  22  25
ENDBRANCH  19  20
BRANCH  19  30
ATOM     30  C   UNL     1       5.938  -5.461  27.204  0.00  0.00    +0.134 C 
ATOM     31  C   UNL     1       6.451  -5.907  28.572  0.00  0.00    +0.040 C 
BRANCH  30  32
ATOM     32  O   UNL     1       5.661  -6.604  26.395  0.00  0.00    -0.390 OA
ATOM     33  H   UNL     1       4.918  -7.085  26.804  0.00  0.00    +0.210 HD
ENDBRANCH  30  32
ENDBRANCH  19  30
ENDBRANCH  18  19
ENDBRANCH   1  18
TORSDOF 8
ENDMDL
MODEL 4
REMARK VINA RESULT:      -7.0      2.214      4.611
REMARK  Name = 
REMARK  9 active torsions:
REMARK  status: ('A' for Active; 'I' for Inactive)
REMARK    1  A    between atoms: C_2  and  C_3
REMARK    2  A    between atoms: C_2  and  O_4
REMARK    3  A    between atoms: C_2  and  C_5
REMARK    4  A    between atoms: C_5  and  C_7
REMARK    5  A    between atoms: C_5  and  N_25
REMARK    6  A    between atoms: C_7  and  C_8
REMARK    7  A    between atoms: C_8  and  C_9
REMARK    8  A    between atoms: C_16  and  C_18
REMARK    9  A    between atoms: C_28  and  C_30
REMARK                            x       y       z     vdW  Elec       q    Type
REMARK                         _______ _______ _______ _____ _____    ______ ____
ROOT
ATOM      1  C   UNL     1       7.335  -4.600  26.075  0.00  0.00    +0.041 C 
ENDROOT
BRANCH   1   2
ATOM      2  C   UNL     1       6.471  -3.550  26.725  0.00  0.00    -0.003 A 
ATOM      3  C   UNL     1       6.690  -2.177  26.586  0.00  0.00    +0.159 A 
ATOM      4  O   UNL     1       7.679  -1.580  25.862  0.00  0.00    -0.435 OA
ATOM      5  C   UNL     1       7.485  -0.238  26.056  0.00  0.00    +0.228 A 
ATOM      6  N   UNL     1       6.455   0.056  26.831  0.00  0.00    -0.209 NA
ATOM      7  C   UNL     1       5.937  -1.172  27.168  0.00  0.00    +0.110 A 
ATOM      8  C   UNL     1       4.838  -1.529  27.957  0.00  0.00    +0.031 A 
ATOM      9  C   UNL     1       4.551  -2.893  28.111  0.00  0.00    +0.003 A 
ATOM     10  C   UNL     1       5.350  -3.879  27.508  0.00  0.00    +0.007 A 
BRANCH   5  11
ATOM     11  C   UNL     1       8.439   0.645  25.388  0.00  0.00    +0.037 A 
ATOM     12  C   UNL     1       8.063   1.949  25.030  0.00  0.00    +0.014 A 
ATOM     13  C   UNL     1       8.971   2.809  24.400  0.00  0.00    +0.021 A 
ATOM     14  C   UNL     1      10.263   2.371  24.121  0.00  0.00    +0.041 A 
ATOM     15 CL   UNL     1      11.384   3.428  23.357  0.00  0.00    -0.084 Cl
ATOM     16  C   UNL     1      10.654   1.078  24.461  0.00  0.00    +0.021 A 
ATOM     17  C   UNL     1       9.747   0.221  25.090  0.00  0.00    +0.014 A 
ENDBRANCH   5  11
ENDBRANCH   1   2
BRANCH   1  18
ATOM     18  C   UNL     1       6.559  -5.383  25.007  0.00  0.00    +0.032 C 
BRANCH  18  19
ATOM     19  C   UNL     1       7.112  -5.250  23.566  0.00  0.00    +0.117 C 
BRANCH  19  20
ATOM     20  N   UNL     1       7.170  -3.841  23.151  0.00  0.00    -0.331 N 
ATOM     21  C   UNL     1       8.308  -3.163  22.788  0.00  0.00    +0.120 A 
ATOM     22  C   UNL     1       7.889  -1.900  22.422  0.00  0.00    +0.143 A 
ATOM     23  N   UNL     1       6.522  -1.781  22.616  0.00  0.00    -0.231 NA
ATOM     24  C   UNL     1       6.127  -2.961  23.041  0.00  0.00    +0.200 A 
BRANCH  22  25
ATOM     25  C   UNL     1       8.714  -0.823  21.887  0.00  0.00    +0.261 C 
ATOM     26  O   UNL     1       8.370   0.353  21.835  0.00  0.00    -0.269 OA
ATOM     27  N   UNL     1       9.939  -1.243  21.455  0.00  0.00    -0.324 N 
ATOM     28  H   UNL     1      10.604  -0.572  21.104  0.00  0.00    +0.145 HD
ATOM     29  H   UNL     1      10.182  -2.222  21.557  0.00  0.00    +0.145 HD
ENDBRANCH  22  25
ENDBRANCH  19  20
BRANCH  19  30
ATOM     30  C   UNL     1       6.349  -6.131  22.539  0.00  0.00    +0.134 C 
ATOM     31  C   UNL     1       6.409  -5.629  21.098  0.00  0.00    +0.040 C 
BRANCH  30  32
ATOM     32  O   UNL     1       4.988  -6.295  22.938  0.00  0.00    -0.390 OA
ATOM     33  H   UNL     1       4.424  -6.016  22.193  0.00  0.00    +0.210 HD
ENDBRANCH  30  32
ENDBRANCH  19  30
ENDBRANCH  18  19
ENDBRANCH   1  18
TORSDOF 8
ENDMDL
MODEL 5
REMARK VINA RESULT:      -6.9      3.460      5.310
REMARK  Name = 
REMARK  9 active torsions:
REMARK  status: ('A' for Active; 'I' for Inactive)
REMARK    1  A    between atoms: C_2  and  C_3
REMARK    2  A    between atoms: C_2  and  O_4
REMARK    3  A    between atoms: C_2  and  C_5
REMARK    4  A    between atoms: C_5  and  C_7
REMARK    5  A    between atoms: C_5  and  N_25
REMARK    6  A    between atoms: C_7  and  C_8
REMARK    7  A    between atoms: C_8  and  C_9
REMARK    8  A    between atoms: C_16  and  C_18
REMARK    9  A    between atoms: C_28  and  C_30
REMARK                            x       y       z     vdW  Elec       q    Type
REMARK                         _______ _______ _______ _____ _____    ______ ____
ROOT
ATOM      1  C   UNL     1       6.333  -1.964  23.303  0.00  0.00    +0.041 C 
ENDROOT
BRANCH   1   2
ATOM      2  C   UNL     1       7.555  -1.285  22.741  0.00  0.00    -0.003 A 
ATOM      3  C   UNL     1       7.637   0.092  22.517  0.00  0.00    +0.159 A 
ATOM      4  O   UNL     1       6.666   1.016  22.764  0.00  0.00    -0.435 OA
ATOM      5  C   UNL     1       7.213   2.206  22.363  0.00  0.00    +0.228 A 
ATOM      6  N   UNL     1       8.445   2.107  21.893  0.00  0.00    -0.209 NA
ATOM      7  C   UNL     1       8.728   0.766  21.994  0.00  0.00    +0.110 A 
ATOM      8  C   UNL     1       9.875   0.034  21.669  0.00  0.00    +0.031 A 
ATOM      9  C   UNL     1       9.863  -1.350  21.898  0.00  0.00    +0.003 A 
ATOM     10  C   UNL     1       8.728  -1.992  22.422  0.00  0.00    +0.007 A 
BRANCH   5  11
ATOM     11  C   UNL     1       6.356   3.381  22.510  0.00  0.00    +0.037 A 
ATOM     12  C   UNL     1       6.913   4.669  22.476  0.00  0.00    +0.014 A 
ATOM     13  C   UNL     1       6.101   5.803  22.604  0.00  0.00    +0.021 A 
ATOM     14  C   UNL     1       4.726   5.658  22.769  0.00  0.00    +0.041 A 
ATOM     15 CL   UNL     1       3.726   7.049  22.916  0.00  0.00    -0.084 Cl
ATOM     16  C   UNL     1       4.155   4.389  22.813  0.00  0.00    +0.021 A 
ATOM     17  C   UNL     1       4.966   3.258  22.684  0.00  0.00    +0.014 A 
ENDBRANCH   5  11
ENDBRANCH   1   2
BRANCH   1  18
ATOM     18  C   UNL     1       6.652  -3.386  23.785  0.00  0.00    +0.032 C 
BRANCH  18  19
ATOM     19  C   UNL     1       5.580  -4.451  23.442  0.00  0.00    +0.117 C 
BRANCH  19  20
ATOM     20  N   UNL     1       5.364  -5.364  24.573  0.00  0.00    -0.331 N 
ATOM     21  C   UNL     1       6.002  -5.295  25.787  0.00  0.00    +0.120 A 
ATOM     22  C   UNL     1       5.452  -6.301  26.556  0.00  0.00    +0.143 A 
ATOM     23  N   UNL     1       4.533  -7.019  25.807  0.00  0.00    -0.231 NA
ATOM     24  C   UNL     1       4.500  -6.425  24.634  0.00  0.00    +0.200 A 
BRANCH  22  25
ATOM     25  C   UNL     1       5.743  -6.594  27.954  0.00  0.00    +0.261 C 
ATOM     26  O   UNL     1       6.746  -6.216  28.548  0.00  0.00    -0.269 OA
ATOM     27  N   UNL     1       4.769  -7.330  28.567  0.00  0.00    -0.324 N 
ATOM     28  H   UNL     1       4.850  -7.553  29.546  0.00  0.00    +0.145 HD
ATOM     29  H   UNL     1       3.944  -7.583  28.035  0.00  0.00    +0.145 HD
ENDBRANCH  22  25
ENDBRANCH  19  20
BRANCH  19  30
ATOM     30  C   UNL     1       5.882  -5.213  22.123  0.00  0.00    +0.134 C 
ATOM     31  C   UNL     1       7.256  -5.880  22.073  0.00  0.00    +0.040 C 
BRANCH  30  32
ATOM     32  O   UNL     1       5.723  -4.349  20.999  0.00  0.00    -0.390 OA
ATOM     33  H   UNL     1       5.050  -4.743  20.413  0.00  0.00    +0.210 HD
ENDBRANCH  30  32
ENDBRANCH  19  30
ENDBRANCH  18  19
ENDBRANCH   1  18
TORSDOF 8
ENDMDL
MODEL 6
REMARK VINA RESULT:      -6.8      2.686      4.897
REMARK  Name = 
REMARK  9 active torsions:
REMARK  status: ('A' for Active; 'I' for Inactive)
REMARK    1  A    between atoms: C_2  and  C_3
REMARK    2  A    between atoms: C_2  and  O_4
REMARK    3  A    between atoms: C_2  and  C_5
REMARK    4  A    between atoms: C_5  and  C_7
REMARK    5  A    between atoms: C_5  and  N_25
REMARK    6  A    between atoms: C_7  and  C_8
REMARK    7  A    between atoms: C_8  and  C_9
REMARK    8  A    between atoms: C_16  and  C_18
REMARK    9  A    between atoms: C_28  and  C_30
REMARK                            x       y       z     vdW  Elec       q    Type
REMARK                         _______ _______ _______ _____ _____    ______ ____
ROOT
ATOM      1  C   UNL     1       7.110  -2.254  23.321  0.00  0.00    +0.041 C 
ENDROOT
BRANCH   1   2
ATOM      2  C   UNL     1       6.506  -1.441  24.437  0.00  0.00    -0.003 A 
ATOM      3  C   UNL     1       6.937  -0.154  24.773  0.00  0.00    +0.159 A 
ATOM      4  O   UNL     1       7.931   0.555  24.168  0.00  0.00    -0.435 OA
ATOM      5  C   UNL     1       7.985   1.734  24.864  0.00  0.00    +0.228 A 
ATOM      6  N   UNL     1       7.105   1.826  25.847  0.00  0.00    -0.209 NA
ATOM      7  C   UNL     1       6.427   0.631  25.792  0.00  0.00    +0.110 A 
ATOM      8  C   UNL     1       5.372   0.130  26.562  0.00  0.00    +0.031 A 
ATOM      9  C   UNL     1       4.877  -1.147  26.254  0.00  0.00    +0.003 A 
ATOM     10  C   UNL     1       5.433  -1.912  25.215  0.00  0.00    +0.007 A 
BRANCH   5  11
ATOM     11  C   UNL     1       8.998   2.688  24.420  0.00  0.00    +0.037 A 
ATOM     12  C   UNL     1       8.782   4.067  24.568  0.00  0.00    +0.014 A 
ATOM     13  C   UNL     1       9.750   4.992  24.157  0.00  0.00    +0.021 A 
ATOM     14  C   UNL     1      10.942   4.545  23.593  0.00  0.00    +0.041 A 
ATOM     15 CL   UNL     1      12.137   5.677  23.097  0.00  0.00    -0.084 Cl
ATOM     16  C   UNL     1      11.174   3.182  23.431  0.00  0.00    +0.021 A 
ATOM     17  C   UNL     1      10.207   2.259  23.843  0.00  0.00    +0.014 A 
ENDBRANCH   5  11
ENDBRANCH   1   2
BRANCH   1  18
ATOM     18  C   UNL     1       8.394  -2.963  23.774  0.00  0.00    +0.032 C 
BRANCH  18  19
ATOM     19  C   UNL     1       8.318  -4.511  23.788  0.00  0.00    +0.117 C 
BRANCH  19  20
ATOM     20  N   UNL     1       7.062  -4.982  23.190  0.00  0.00    -0.331 N 
ATOM     21  C   UNL     1       5.925  -5.321  23.883  0.00  0.00    +0.120 A 
ATOM     22  C   UNL     1       4.986  -5.645  22.927  0.00  0.00    +0.143 A 
ATOM     23  N   UNL     1       5.552  -5.568  21.664  0.00  0.00    -0.231 NA
ATOM     24  C   UNL     1       6.786  -5.160  21.860  0.00  0.00    +0.200 A 
BRANCH  22  25
ATOM     25  C   UNL     1       3.590  -6.002  23.153  0.00  0.00    +0.261 C 
ATOM     26  O   UNL     1       2.638  -5.274  22.893  0.00  0.00    -0.269 OA
ATOM     27  N   UNL     1       3.429  -7.252  23.675  0.00  0.00    -0.324 N 
ATOM     28  H   UNL     1       2.502  -7.615  23.832  0.00  0.00    +0.145 HD
ATOM     29  H   UNL     1       4.251  -7.823  23.835  0.00  0.00    +0.145 HD
ENDBRANCH  22  25
ENDBRANCH  19  20
BRANCH  19  30
ATOM     30  C   UNL     1       8.559  -5.117  25.197  0.00  0.00    +0.134 C 
ATOM     31  C   UNL     1       8.528  -4.104  26.341  0.00  0.00    +0.040 C 
BRANCH  30  32
ATOM     32  O   UNL     1       9.789  -5.841  25.225  0.00  0.00    -0.390 OA
ATOM     33  H   UNL     1      10.273  -5.639  24.404  0.00  0.00    +0.210 HD
ENDBRANCH  30  32
ENDBRANCH  19  30
ENDBRANCH  18  19
ENDBRANCH   1  18
TORSDOF 8
ENDMDL
MODEL 7
REMARK VINA RESULT:      -6.8      2.432      3.554
REMARK  Name = 
REMARK  9 active torsions:
REMARK  status: ('A' for Active; 'I' for Inactive)
REMARK    1  A    between atoms: C_2  and  C_3
REMARK    2  A    between atoms: C_2  and  O_4
REMARK    3  A    between atoms: C_2  and  C_5
REMARK    4  A    between atoms: C_5  and  C_7
REMARK    5  A    between atoms: C_5  and  N_25
REMARK    6  A    between atoms: C_7  and  C_8
REMARK    7  A    between atoms: C_8  and  C_9
REMARK    8  A    between atoms: C_16  and  C_18
REMARK    9  A    between atoms: C_28  and  C_30
REMARK                            x       y       z     vdW  Elec       q    Type
REMARK                         _______ _______ _______ _____ _____    ______ ____
ROOT
ATOM      1  C   UNL     1       7.818  -4.339  26.202  0.00  0.00    +0.041 C 
ENDROOT
BRANCH   1   2
ATOM      2  C   UNL     1       7.622  -4.405  24.709  0.00  0.00    -0.003 A 
ATOM      3  C   UNL     1       8.005  -3.382  23.836  0.00  0.00    +0.159 A 
ATOM      4  O   UNL     1       8.601  -2.204  24.174  0.00  0.00    -0.435 OA
ATOM      5  C   UNL     1       8.754  -1.541  22.985  0.00  0.00    +0.228 A 
ATOM      6  N   UNL     1       8.312  -2.207  21.931  0.00  0.00    -0.209 NA
ATOM      7  C   UNL     1       7.840  -3.385  22.462  0.00  0.00    +0.110 A 
ATOM      8  C   UNL     1       7.260  -4.505  21.858  0.00  0.00    +0.031 A 
ATOM      9  C   UNL     1       6.880  -5.576  22.680  0.00  0.00    +0.003 A 
ATOM     10  C   UNL     1       7.059  -5.525  24.073  0.00  0.00    +0.007 A 
BRANCH   5  11
ATOM     11  C   UNL     1       9.367  -0.218  23.069  0.00  0.00    +0.037 A 
ATOM     12  C   UNL     1       9.810   0.278  24.306  0.00  0.00    +0.014 A 
ATOM     13  C   UNL     1      10.410   1.540  24.398  0.00  0.00    +0.021 A 
ATOM     14  C   UNL     1      10.571   2.317  23.254  0.00  0.00    +0.041 A 
ATOM     15 CL   UNL     1      11.317   3.863  23.362  0.00  0.00    -0.084 Cl
ATOM     16  C   UNL     1      10.133   1.847  22.019  0.00  0.00    +0.021 A 
ATOM     17  C   UNL     1       9.534   0.587  21.928  0.00  0.00    +0.014 A 
ENDBRANCH   5  11
ENDBRANCH   1   2
BRANCH   1  18
ATOM     18  C   UNL     1       6.497  -4.053  26.929  0.00  0.00    +0.032 C 
BRANCH  18  19
ATOM     19  C   UNL     1       5.706  -5.310  27.371  0.00  0.00    +0.117 C 
BRANCH  19  20
ATOM     20  N   UNL     1       4.693  -5.674  26.371  0.00  0.00    -0.331 N 
ATOM     21  C   UNL     1       4.421  -6.950  25.939  0.00  0.00    +0.120 A 
ATOM     22  C   UNL     1       3.370  -6.828  25.054  0.00  0.00    +0.143 A 
ATOM     23  N   UNL     1       3.039  -5.492  24.895  0.00  0.00    -0.231 NA
ATOM     24  C   UNL     1       3.842  -4.836  25.703  0.00  0.00    +0.200 A 
BRANCH  22  25
ATOM     25  C   UNL     1       2.663  -7.910  24.377  0.00  0.00    +0.261 C 
ATOM     26  O   UNL     1       2.472  -9.020  24.859  0.00  0.00    -0.269 OA
ATOM     27  N   UNL     1       2.207  -7.566  23.138  0.00  0.00    -0.324 N 
ATOM     28  H   UNL     1       1.669  -8.226  22.600  0.00  0.00    +0.145 HD
ATOM     29  H   UNL     1       2.363  -6.620  22.807  0.00  0.00    +0.145 HD
ENDBRANCH  22  25
ENDBRANCH  19  20
BRANCH  19  30
ATOM     30  C   UNL     1       5.101  -5.175  28.795  0.00  0.00    +0.134 C 
ATOM     31  C   UNL     1       4.518  -3.800  29.113  0.00  0.00    +0.040 C 
BRANCH  30  32
ATOM     32  O   UNL     1       6.066  -5.532  29.784  0.00  0.00    -0.390 OA
ATOM     33  H   UNL     1       5.986  -4.898  30.520  0.00  0.00    +0.210 HD
ENDBRANCH  30  32
ENDBRANCH  19  30
ENDBRANCH  18  19
ENDBRANCH   1  18
TORSDOF 8
ENDMDL
MODEL 8
REMARK VINA RESULT:      -6.7      3.429      7.002
REMARK  Name = 
REMARK  9 active torsions:
REMARK  status: ('A' for Active; 'I' for Inactive)
REMARK    1  A    between atoms: C_2  and  C_3
REMARK    2  A    between atoms: C_2  and  O_4
REMARK    3  A    between atoms: C_2  and  C_5
REMARK    4  A    between atoms: C_5  and  C_7
REMARK    5  A    between atoms: C_5  and  N_25
REMARK    6  A    between atoms: C_7  and  C_8
REMARK    7  A    between atoms: C_8  and  C_9
REMARK    8  A    between atoms: C_16  and  C_18
REMARK    9  A    between atoms: C_28  and  C_30
REMARK                            x       y       z     vdW  Elec       q    Type
REMARK                         _______ _______ _______ _____ _____    ______ ____
ROOT
ATOM      1  C   UNL     1       6.317   0.116  24.132  0.00  0.00    +0.041 C 
ENDROOT
BRANCH   1   2
ATOM      2  C   UNL     1       5.803  -0.310  25.483  0.00  0.00    -0.003 A 
ATOM      3  C   UNL     1       4.998  -1.435  25.681  0.00  0.00    +0.159 A 
ATOM      4  O   UNL     1       4.565  -2.305  24.726  0.00  0.00    -0.435 OA
ATOM      5  C   UNL     1       3.800  -3.214  25.409  0.00  0.00    +0.228 A 
ATOM      6  N   UNL     1       3.724  -2.991  26.710  0.00  0.00    -0.209 NA
ATOM      7  C   UNL     1       4.490  -1.865  26.895  0.00  0.00    +0.110 A 
ATOM      8  C   UNL     1       4.808  -1.142  28.050  0.00  0.00    +0.031 A 
ATOM      9  C   UNL     1       5.637  -0.017  27.917  0.00  0.00    +0.003 A 
ATOM     10  C   UNL     1       6.122   0.387  26.662  0.00  0.00    +0.007 A 
BRANCH   5  11
ATOM     11  C   UNL     1       3.192  -4.268  24.600  0.00  0.00    +0.037 A 
ATOM     12  C   UNL     1       1.796  -4.416  24.567  0.00  0.00    +0.014 A 
ATOM     13  C   UNL     1       1.201  -5.415  23.786  0.00  0.00    +0.021 A 
ATOM     14  C   UNL     1       1.996  -6.274  23.033  0.00  0.00    +0.041 A 
ATOM     15 CL   UNL     1       1.267  -7.495  22.066  0.00  0.00    -0.084 Cl
ATOM     16  C   UNL     1       3.382  -6.149  23.057  0.00  0.00    +0.021 A 
ATOM     17  C   UNL     1       3.976  -5.151  23.836  0.00  0.00    +0.014 A 
ENDBRANCH   5  11
ENDBRANCH   1   2
BRANCH   1  18
ATOM     18  C   UNL     1       7.841  -0.035  24.038  0.00  0.00    +0.032 C 
BRANCH  18  19
ATOM     19  C   UNL     1       8.338  -0.999  22.931  0.00  0.00    +0.117 C 
BRANCH  19  20
ATOM     20  N   UNL     1       8.263  -2.397  23.376  0.00  0.00    -0.331 N 
ATOM     21  C   UNL     1       8.920  -2.925  24.461  0.00  0.00    +0.120 A 
ATOM     22  C   UNL     1       8.515  -4.241  24.539  0.00  0.00    +0.143 A 
ATOM     23  N   UNL     1       7.670  -4.538  23.482  0.00  0.00    -0.231 NA
ATOM     24  C   UNL     1       7.535  -3.412  22.817  0.00  0.00    +0.200 A 
BRANCH  22  25
ATOM     25  C   UNL     1       8.876  -5.210  25.567  0.00  0.00    +0.261 C 
ATOM     26  O   UNL     1       8.072  -5.763  26.310  0.00  0.00    -0.269 OA
ATOM     27  N   UNL     1      10.214  -5.470  25.622  0.00  0.00    -0.324 N 
ATOM     28  H   UNL     1      10.566  -6.156  26.269  0.00  0.00    +0.145 HD
ATOM     29  H   UNL     1      10.827  -5.010  24.957  0.00  0.00    +0.145 HD
ENDBRANCH  22  25
ENDBRANCH  19  20
BRANCH  19  30
ATOM     30  C   UNL     1       9.748  -0.630  22.394  0.00  0.00    +0.134 C 
ATOM     31  C   UNL     1       9.880   0.800  21.875  0.00  0.00    +0.040 C 
BRANCH  30  32
ATOM     32  O   UNL     1      10.153  -1.551  21.381  0.00  0.00    -0.390 OA
ATOM     33  H   UNL     1      10.901  -2.069  21.730  0.00  0.00    +0.210 HD
ENDBRANCH  30  32
ENDBRANCH  19  30
ENDBRANCH  18  19
ENDBRANCH   1  18
TORSDOF 8
ENDMDL
MODEL 9
REMARK VINA RESULT:      -6.6      4.838      8.225
REMARK  Name = 
REMARK  9 active torsions:
REMARK  status: ('A' for Active; 'I' for Inactive)
REMARK    1  A    between atoms: C_2  and  C_3
REMARK    2  A    between atoms: C_2  and  O_4
REMARK    3  A    between atoms: C_2  and  C_5
REMARK    4  A    between atoms: C_5  and  C_7
REMARK    5  A    between atoms: C_5  and  N_25
REMARK    6  A    between atoms: C_7  and  C_8
REMARK    7  A    between atoms: C_8  and  C_9
REMARK    8  A    between atoms: C_16  and  C_18
REMARK    9  A    between atoms: C_28  and  C_30
REMARK                            x       y       z     vdW  Elec       q    Type
REMARK                         _______ _______ _______ _____ _____    ______ ____
ROOT
ATOM      1  C   UNL     1       6.962   1.241  23.853  0.00  0.00    +0.041 C 
ENDROOT
BRANCH   1   2
ATOM      2  C   UNL     1       8.005   0.329  23.262  0.00  0.00    -0.003 A 
ATOM      3  C   UNL     1       8.108  -1.029  23.577  0.00  0.00    +0.159 A 
ATOM      4  O   UNL     1       7.312  -1.730  24.432  0.00  0.00    -0.435 OA
ATOM      5  C   UNL     1       7.823  -3.000  24.417  0.00  0.00    +0.228 A 
ATOM      6  N   UNL     1       8.866  -3.157  23.619  0.00  0.00    -0.209 NA
ATOM      7  C   UNL     1       9.051  -1.909  23.073  0.00  0.00    +0.110 A 
ATOM      8  C   UNL     1       9.987  -1.433  22.148  0.00  0.00    +0.031 A 
ATOM      9  C   UNL     1       9.915  -0.083  21.772  0.00  0.00    +0.003 A 
ATOM     10  C   UNL     1       8.946   0.775  22.317  0.00  0.00    +0.007 A 
BRANCH   5  11
ATOM     11  C   UNL     1       7.147  -3.968  25.278  0.00  0.00    +0.037 A 
ATOM     12  C   UNL     1       7.694  -4.304  26.527  0.00  0.00    +0.014 A 
ATOM     13  C   UNL     1       7.050  -5.222  27.367  0.00  0.00    +0.021 A 
ATOM     14  C   UNL     1       5.854  -5.810  26.964  0.00  0.00    +0.041 A 
ATOM     15 CL   UNL     1       5.055  -6.929  27.998  0.00  0.00    -0.084 Cl
ATOM     16  C   UNL     1       5.298  -5.495  25.727  0.00  0.00    +0.021 A 
ATOM     17  C   UNL     1       5.941  -4.579  24.890  0.00  0.00    +0.014 A 
ENDBRANCH   5  11
ENDBRANCH   1   2
BRANCH   1  18
ATOM     18  C   UNL     1       7.576   2.569  24.319  0.00  0.00    +0.032 C 
BRANCH  18  19
ATOM     19  C   UNL     1       7.530   3.714  23.275  0.00  0.00    +0.117 C 
BRANCH  19  20
ATOM     20  N   UNL     1       8.669   4.626  23.444  0.00  0.00    -0.331 N 
ATOM     21  C   UNL     1       9.972   4.246  23.656  0.00  0.00    +0.120 A 
ATOM     22  C   UNL     1      10.701   5.416  23.695  0.00  0.00    +0.143 A 
ATOM     23  N   UNL     1       9.853   6.506  23.572  0.00  0.00    -0.231 NA
ATOM     24  C   UNL     1       8.652   5.995  23.414  0.00  0.00    +0.200 A 
BRANCH  22  25
ATOM     25  C   UNL     1      12.149   5.544  23.824  0.00  0.00    +0.261 C 
ATOM     26  O   UNL     1      12.961   4.844  23.232  0.00  0.00    -0.269 OA
ATOM     27  N   UNL     1      12.530   6.547  24.668  0.00  0.00    -0.324 N 
ATOM     28  H   UNL     1      13.509   6.748  24.797  0.00  0.00    +0.145 HD
ATOM     29  H   UNL     1      11.813   7.118  25.102  0.00  0.00    +0.145 HD
ENDBRANCH  22  25
ENDBRANCH  19  20
BRANCH  19  30
ATOM     30  C   UNL     1       6.173   4.468  23.261  0.00  0.00    +0.134 C 
ATOM     31  C   UNL     1       5.370   4.361  24.556  0.00  0.00    +0.040 C 
BRANCH  30  32
ATOM     32  O   UNL     1       5.374   4.037  22.159  0.00  0.00    -0.390 OA
ATOM     33  H   UNL     1       4.450   4.287  22.345  0.00  0.00    +0.210 HD
ENDBRANCH  30  32
ENDBRANCH  19  30
ENDBRANCH  18  19
ENDBRANCH   1  18
TORSDOF 8
ENDMDL
