MODEL 1
REMARK VINA RESULT:      -6.5      0.000      0.000
REMARK  Name = 
REMARK  9 active torsions:
REMARK  status: ('A' for Active; 'I' for Inactive)
REMARK    1  A    between atoms: C_1  and  C_2
REMARK    2  A    between atoms: C_3  and  C_4
REMARK    3  A    between atoms: C_4  and  C_5
REMARK    4  A    between atoms: C_5  and  O_6
REMARK    5  A    between atoms: O_6  and  P_7
REMARK    6  A    between atoms: P_7  and  O_8
REMARK    7  A    between atoms: N_13  and  C_14
REMARK    8  A    between atoms: C_14  and  C_15
REMARK    9  A    between atoms: C_18  and  C_19
REMARK                            x       y       z     vdW  Elec       q    Type
REMARK                         _______ _______ _______ _____ _____    ______ ____
ROOT
ATOM      1  C   UNL     1       9.679  -0.400  25.695  0.00  0.00    +0.122 C 
ATOM      2  C   UNL     1       9.707  -0.104  24.236  0.00  0.00    +0.191 A 
ATOM      3  N   UNL     1       9.739  -1.182  23.347  0.00  0.00    -0.190 N 
ATOM      4  C   UNL     1       9.819  -0.847  22.072  0.00  0.00    +0.357 A 
ATOM      5  S   UNL     1       9.875   0.840  21.867  0.00  0.00    -0.027 S 
ATOM      6  C   UNL     1       9.765   1.113  23.567  0.00  0.00    +0.064 A 
ENDROOT
BRANCH   3   7
ATOM      7  C   UNL     1       9.793  -2.599  23.750  0.00  0.00    +0.399 C 
BRANCH   7   8
ATOM      8  C   UNL     1       8.461  -3.284  23.752  0.00  0.00    +0.075 A 
ATOM      9  C   UNL     1       8.054  -4.019  24.853  0.00  0.00    +0.129 A 
ATOM     10  N   UNL     1       8.694  -3.896  26.092  0.00  0.00    -0.343 N 
ATOM     11  H   UNL     1       8.572  -2.968  26.481  0.00  0.00    +0.144 HD
ATOM     12  H   UNL     1       8.217  -4.558  26.711  0.00  0.00    +0.144 HD
ATOM     13  N   UNL     1       7.031  -4.881  24.826  0.00  0.00    -0.218 NA
ATOM     14  C   UNL     1       6.354  -4.990  23.671  0.00  0.00    +0.128 A 
ATOM     15  C   UNL     1       5.305  -6.049  23.564  0.00  0.00    +0.088 C 
ATOM     16  N   UNL     1       6.576  -4.215  22.599  0.00  0.00    -0.240 NA
ATOM     17  C   UNL     1       7.616  -3.370  22.663  0.00  0.00    +0.126 A 
ENDBRANCH   7   8
ENDBRANCH   3   7
BRANCH   6  18
ATOM     18  C   UNL     1       9.816   2.533  24.097  0.00  0.00    +0.077 C 
BRANCH  18  19
ATOM     19  C   UNL     1      10.507   3.558  23.176  0.00  0.00    +0.173 C 
BRANCH  19  20
ATOM     20  O   UNL     1      11.829   3.940  23.538  0.00  0.00    -0.327 OA
BRANCH  20  21
ATOM     21  P   UNL     1      12.278   5.513  23.296  0.00  0.00    +0.210 P 
ATOM     22  O   UNL     1      10.814   6.016  23.323  0.00  0.00    -0.517 OA
ATOM     23  O   UNL     1      12.724   6.045  24.668  0.00  0.00    -0.437 OA
BRANCH  21  24
ATOM     24  O   UNL     1      13.914   4.950  23.266  0.00  0.00    -0.344 OA
ATOM     25  H   UNL     1      13.691   4.052  22.934  0.00  0.00    +0.218 HD
ENDBRANCH  21  24
ENDBRANCH  20  21
ENDBRANCH  19  20
ENDBRANCH  18  19
ENDBRANCH   6  18
TORSDOF 7
ENDMDL
MODEL 2
REMARK VINA RESULT:      -6.4      6.290      8.335
REMARK  Name = 
REMARK  9 active torsions:
REMARK  status: ('A' for Active; 'I' for Inactive)
REMARK    1  A    between atoms: C_1  and  C_2
REMARK    2  A    between atoms: C_3  and  C_4
REMARK    3  A    between atoms: C_4  and  C_5
REMARK    4  A    between atoms: C_5  and  O_6
REMARK    5  A    between atoms: O_6  and  P_7
REMARK    6  A    between atoms: P_7  and  O_8
REMARK    7  A    between atoms: N_13  and  C_14
REMARK    8  A    between atoms: C_14  and  C_15
REMARK    9  A    between atoms: C_18  and  C_19
REMARK                            x       y       z     vdW  Elec       q    Type
REMARK                         _______ _______ _______ _____ _____    ______ ____
ROOT
ATOM      1  C   UNL     1       8.795  -5.121  25.071  0.00  0.00    +0.122 C 
ATOM      2  C   UNL     1       8.001  -4.385  24.049  0.00  0.00    +0.191 A 
ATOM      3  N   UNL     1       8.560  -3.233  23.488  0.00  0.00    -0.190 N 
ATOM      4  C   UNL     1       7.779  -2.601  22.630  0.00  0.00    +0.357 A 
ATOM      5  S   UNL     1       6.276  -3.376  22.455  0.00  0.00    -0.027 S 
ATOM      6  C   UNL     1       6.718  -4.620  23.567  0.00  0.00    +0.064 A 
ENDROOT
BRANCH   3   7
ATOM      7  C   UNL     1       9.864  -2.663  23.869  0.00  0.00    +0.399 C 
BRANCH   7   8
ATOM      8  C   UNL     1       9.820  -1.202  24.195  0.00  0.00    +0.075 A 
ATOM      9  C   UNL     1       9.114  -0.753  25.300  0.00  0.00    +0.129 A 
ATOM     10  N   UNL     1       8.697  -1.630  26.307  0.00  0.00    -0.343 N 
ATOM     11  H   UNL     1       9.486  -2.038  26.794  0.00  0.00    +0.144 HD
ATOM     12  H   UNL     1       8.185  -1.049  26.978  0.00  0.00    +0.144 HD
ATOM     13  N   UNL     1       8.789   0.530  25.493  0.00  0.00    -0.218 NA
ATOM     14  C   UNL     1       9.217   1.414  24.578  0.00  0.00    +0.128 A 
ATOM     15  C   UNL     1       8.746   2.829  24.686  0.00  0.00    +0.088 C 
ATOM     16  N   UNL     1      10.030   1.100  23.558  0.00  0.00    -0.240 NA
ATOM     17  C   UNL     1      10.325  -0.199  23.393  0.00  0.00    +0.126 A 
ENDBRANCH   7   8
ENDBRANCH   3   7
BRANCH   6  18
ATOM     18  C   UNL     1       5.710  -5.696  23.919  0.00  0.00    +0.077 C 
BRANCH  18  19
ATOM     19  C   UNL     1       5.125  -5.614  25.343  0.00  0.00    +0.173 C 
BRANCH  19  20
ATOM     20  O   UNL     1       5.650  -6.532  26.294  0.00  0.00    -0.327 OA
BRANCH  20  21
ATOM     21  P   UNL     1       5.791  -6.030  27.863  0.00  0.00    +0.210 P 
ATOM     22  O   UNL     1       5.530  -7.449  28.423  0.00  0.00    -0.517 OA
ATOM     23  O   UNL     1       7.299  -5.948  28.152  0.00  0.00    -0.437 OA
BRANCH  21  24
ATOM     24  O   UNL     1       6.083  -4.443  27.237  0.00  0.00    -0.344 OA
ATOM     25  H   UNL     1       6.508  -4.755  26.407  0.00  0.00    +0.218 HD
ENDBRANCH  21  24
ENDBRANCH  20  21
ENDBRANCH  19  20
ENDBRANCH  18  19
ENDBRANCH   6  18
TORSDOF 7
ENDMDL
MODEL 3
REMARK VINA RESULT:      -6.3      7.382      9.421
REMARK  Name = 
REMARK  9 active torsions:
REMARK  status: ('A' for Active; 'I' for Inactive)
REMARK    1  A    between atoms: C_1  and  C_2
REMARK    2  A    between atoms: C_3  and  C_4
REMARK    3  A    between atoms: C_4  and  C_5
REMARK    4  A    between atoms: C_5  and  O_6
REMARK    5  A    between atoms: O_6  and  P_7
REMARK    6  A    between atoms: P_7  and  O_8
REMARK    7  A    between atoms: N_13  and  C_14
REMARK    8  A    between atoms: C_14  and  C_15
REMARK    9  A    between atoms: C_18  and  C_19
REMARK                            x       y       z     vdW  Elec       q    Type
REMARK                         _______ _______ _______ _____ _____    ______ ____
ROOT
ATOM      1  C   UNL     1       7.403  -3.377  22.286  0.00  0.00    +0.122 C 
ATOM      2  C   UNL     1       7.460  -3.565  23.762  0.00  0.00    +0.191 A 
ATOM      3  N   UNL     1       8.610  -3.140  24.434  0.00  0.00    -0.190 N 
ATOM      4  C   UNL     1       8.617  -3.387  25.731  0.00  0.00    +0.357 A 
ATOM      5  S   UNL     1       7.198  -4.182  26.228  0.00  0.00    -0.027 S 
ATOM      6  C   UNL     1       6.554  -4.166  24.628  0.00  0.00    +0.064 A 
ENDROOT
BRANCH   3   7
ATOM      7  C   UNL     1       9.796  -2.558  23.780  0.00  0.00    +0.399 C 
BRANCH   7   8
ATOM      8  C   UNL     1       9.775  -1.062  23.699  0.00  0.00    +0.075 A 
ATOM      9  C   UNL     1       9.915  -0.426  22.476  0.00  0.00    +0.129 A 
ATOM     10  N   UNL     1       9.763  -1.119  21.269  0.00  0.00    -0.343 N 
ATOM     11  H   UNL     1       8.814  -1.455  21.152  0.00  0.00    +0.144 HD
ATOM     12  H   UNL     1       9.941  -0.427  20.535  0.00  0.00    +0.144 HD
ATOM     13  N   UNL     1      10.193   0.877  22.351  0.00  0.00    -0.218 NA
ATOM     14  C   UNL     1      10.293   1.591  23.483  0.00  0.00    +0.128 A 
ATOM     15  C   UNL     1      10.748   3.012  23.385  0.00  0.00    +0.088 C 
ATOM     16  N   UNL     1      10.028   1.100  24.703  0.00  0.00    -0.240 NA
ATOM     17  C   UNL     1       9.762  -0.213  24.786  0.00  0.00    +0.126 A 
ENDBRANCH   7   8
ENDBRANCH   3   7
BRANCH   6  18
ATOM     18  C   UNL     1       5.214  -4.823  24.358  0.00  0.00    +0.077 C 
BRANCH  18  19
ATOM     19  C   UNL     1       5.273  -6.144  23.567  0.00  0.00    +0.173 C 
BRANCH  19  20
ATOM     20  O   UNL     1       4.733  -7.291  24.213  0.00  0.00    -0.327 OA
BRANCH  20  21
ATOM     21  P   UNL     1       3.142  -7.254  24.661  0.00  0.00    +0.210 P 
ATOM     22  O   UNL     1       2.663  -6.947  23.221  0.00  0.00    -0.517 OA
ATOM     23  O   UNL     1       2.687  -8.720  24.741  0.00  0.00    -0.437 OA
BRANCH  21  24
ATOM     24  O   UNL     1       3.677  -7.597  26.270  0.00  0.00    -0.344 OA
ATOM     25  H   UNL     1       4.521  -8.018  25.993  0.00  0.00    +0.218 HD
ENDBRANCH  21  24
ENDBRANCH  20  21
ENDBRANCH  19  20
ENDBRANCH  18  19
ENDBRANCH   6  18
TORSDOF 7
ENDMDL
MODEL 4
REMARK VINA RESULT:      -6.3      1.390      2.066
REMARK  Name = 
REMARK  9 active torsions:
REMARK  status: ('A' for Active; 'I' for Inactive)
REMARK    1  A    between atoms: C_1  and  C_2
REMARK    2  A    between atoms: C_3  and  C_4
REMARK    3  A    between atoms: C_4  and  C_5
REMARK    4  A    between atoms: C_5  and  O_6
REMARK    5  A    between atoms: O_6  and  P_7
REMARK    6  A    between atoms: P_7  and  O_8
REMARK    7  A    between atoms: N_13  and  C_14
REMARK    8  A    between atoms: C_14  and  C_15
REMARK    9  A    between atoms: C_18  and  C_19
REMARK                            x       y       z     vdW  Elec       q    Type
REMARK                         _______ _______ _______ _____ _____    ______ ____
ROOT
ATOM      1  C   UNL     1       8.925   0.696  21.494  0.00  0.00    +0.122 C 
ATOM      2  C   UNL     1       9.333   0.352  22.885  0.00  0.00    +0.191 A 
ATOM      3  N   UNL     1       9.283  -0.990  23.270  0.00  0.00    -0.190 N 
ATOM      4  C   UNL     1       9.605  -1.216  24.531  0.00  0.00    +0.357 A 
ATOM      5  S   UNL     1       9.987   0.223  25.352  0.00  0.00    -0.027 S 
ATOM      6  C   UNL     1       9.723   1.173  23.936  0.00  0.00    +0.064 A 
ENDROOT
BRANCH   3   7
ATOM      7  C   UNL     1       8.809  -2.092  22.413  0.00  0.00    +0.399 C 
BRANCH   7   8
ATOM      8  C   UNL     1       7.961  -3.099  23.128  0.00  0.00    +0.075 A 
ATOM      9  C   UNL     1       6.619  -2.846  23.358  0.00  0.00    +0.129 A 
ATOM     10  N   UNL     1       5.939  -1.828  22.680  0.00  0.00    -0.343 N 
ATOM     11  H   UNL     1       5.884  -2.017  21.686  0.00  0.00    +0.144 HD
ATOM     12  H   UNL     1       4.985  -1.843  23.053  0.00  0.00    +0.144 HD
ATOM     13  N   UNL     1       5.876  -3.547  24.223  0.00  0.00    -0.218 NA
ATOM     14  C   UNL     1       6.474  -4.569  24.855  0.00  0.00    +0.128 A 
ATOM     15  C   UNL     1       5.717  -5.275  25.934  0.00  0.00    +0.088 C 
ATOM     16  N   UNL     1       7.722  -4.984  24.590  0.00  0.00    -0.240 NA
ATOM     17  C   UNL     1       8.437  -4.250  23.723  0.00  0.00    +0.126 A 
ENDBRANCH   7   8
ENDBRANCH   3   7
BRANCH   6  18
ATOM     18  C   UNL     1       9.864   2.682  24.015  0.00  0.00    +0.077 C 
BRANCH  18  19
ATOM     19  C   UNL     1      10.867   3.305  23.024  0.00  0.00    +0.173 C 
BRANCH  19  20
ATOM     20  O   UNL     1      12.041   3.875  23.590  0.00  0.00    -0.327 OA
BRANCH  20  21
ATOM     21  P   UNL     1      12.365   5.464  23.270  0.00  0.00    +0.210 P 
ATOM     22  O   UNL     1      10.868   5.856  23.296  0.00  0.00    -0.517 OA
ATOM     23  O   UNL     1      12.785   6.092  24.609  0.00  0.00    -0.437 OA
BRANCH  21  24
ATOM     24  O   UNL     1      14.040   5.026  23.242  0.00  0.00    -0.344 OA
ATOM     25  H   UNL     1      14.054   4.802  22.285  0.00  0.00    +0.218 HD
ENDBRANCH  21  24
ENDBRANCH  20  21
ENDBRANCH  19  20
ENDBRANCH  18  19
ENDBRANCH   6  18
TORSDOF 7
ENDMDL
MODEL 5
REMARK VINA RESULT:      -6.2      2.688      3.905
REMARK  Name = 
REMARK  9 active torsions:
REMARK  status: ('A' for Active; 'I' for Inactive)
REMARK    1  A    between atoms: C_1  and  C_2
REMARK    2  A    between atoms: C_3  and  C_4
REMARK    3  A    between atoms: C_4  and  C_5
REMARK    4  A    between atoms: C_5  and  O_6
REMARK    5  A    between atoms: O_6  and  P_7
REMARK    6  A    between atoms: P_7  and  O_8
REMARK    7  A    between atoms: N_13  and  C_14
REMARK    8  A    between atoms: C_14  and  C_15
REMARK    9  A    between atoms: C_18  and  C_19
REMARK                            x       y       z     vdW  Elec       q    Type
REMARK                         _______ _______ _______ _____ _____    ______ ____
ROOT
ATOM      1  C   UNL     1       6.686  -3.030  22.009  0.00  0.00    +0.122 C 
ATOM      2  C   UNL     1       7.981  -2.851  22.721  0.00  0.00    +0.191 A 
ATOM      3  N   UNL     1       8.251  -3.684  23.811  0.00  0.00    -0.190 N 
ATOM      4  C   UNL     1       9.392  -3.433  24.429  0.00  0.00    +0.357 A 
ATOM      5  S   UNL     1      10.222  -2.132  23.717  0.00  0.00    -0.027 S 
ATOM      6  C   UNL     1       8.997  -1.924  22.521  0.00  0.00    +0.064 A 
ENDROOT
BRANCH   3   7
ATOM      7  C   UNL     1       7.325  -4.701  24.340  0.00  0.00    +0.399 C 
BRANCH   7   8
ATOM      8  C   UNL     1       6.746  -4.361  25.679  0.00  0.00    +0.075 A 
ATOM      9  C   UNL     1       7.145  -5.055  26.810  0.00  0.00    +0.129 A 
ATOM     10  N   UNL     1       8.296  -5.850  26.812  0.00  0.00    -0.343 N 
ATOM     11  H   UNL     1       9.132  -5.294  26.678  0.00  0.00    +0.144 HD
ATOM     12  H   UNL     1       8.342  -6.260  27.749  0.00  0.00    +0.144 HD
ATOM     13  N   UNL     1       6.482  -5.013  27.971  0.00  0.00    -0.218 NA
ATOM     14  C   UNL     1       5.402  -4.219  28.030  0.00  0.00    +0.128 A 
ATOM     15  C   UNL     1       4.556  -4.265  29.262  0.00  0.00    +0.088 C 
ATOM     16  N   UNL     1       5.023  -3.396  27.040  0.00  0.00    -0.240 NA
ATOM     17  C   UNL     1       5.709  -3.474  25.888  0.00  0.00    +0.126 A 
ENDBRANCH   7   8
ENDBRANCH   3   7
BRANCH   6  18
ATOM     18  C   UNL     1       9.122  -0.795  21.515  0.00  0.00    +0.077 C 
BRANCH  18  19
ATOM     19  C   UNL     1       8.809   0.613  22.060  0.00  0.00    +0.173 C 
BRANCH  19  20
ATOM     20  O   UNL     1       9.904   1.518  22.133  0.00  0.00    -0.327 OA
BRANCH  20  21
ATOM     21  P   UNL     1      10.083   2.411  23.514  0.00  0.00    +0.210 P 
ATOM     22  O   UNL     1      10.938   1.319  24.201  0.00  0.00    -0.517 OA
ATOM     23  O   UNL     1      11.203   3.424  23.224  0.00  0.00    -0.437 OA
BRANCH  21  24
ATOM     24  O   UNL     1       9.128   3.631  22.744  0.00  0.00    -0.344 OA
ATOM     25  H   UNL     1       9.888   4.073  22.305  0.00  0.00    +0.218 HD
ENDBRANCH  21  24
ENDBRANCH  20  21
ENDBRANCH  19  20
ENDBRANCH  18  19
ENDBRANCH   6  18
TORSDOF 7
ENDMDL
MODEL 6
REMARK VINA RESULT:      -6.2      2.889      3.735
REMARK  Name = 
REMARK  9 active torsions:
REMARK  status: ('A' for Active; 'I' for Inactive)
REMARK    1  A    between atoms: C_1  and  C_2
REMARK    2  A    between atoms: C_3  and  C_4
REMARK    3  A    between atoms: C_4  and  C_5
REMARK    4  A    between atoms: C_5  and  O_6
REMARK    5  A    between atoms: O_6  and  P_7
REMARK    6  A    between atoms: P_7  and  O_8
REMARK    7  A    between atoms: N_13  and  C_14
REMARK    8  A    between atoms: C_14  and  C_15
REMARK    9  A    between atoms: C_18  and  C_19
REMARK                            x       y       z     vdW  Elec       q    Type
REMARK                         _______ _______ _______ _____ _____    ______ ____
ROOT
ATOM      1  C   UNL     1      10.243  -1.967  23.082  0.00  0.00    +0.122 C 
ATOM      2  C   UNL     1       9.619  -1.585  24.379  0.00  0.00    +0.191 A 
ATOM      3  N   UNL     1       8.881  -2.555  25.063  0.00  0.00    -0.190 N 
ATOM      4  C   UNL     1       8.309  -2.132  26.177  0.00  0.00    +0.357 A 
ATOM      5  S   UNL     1       8.628  -0.487  26.464  0.00  0.00    -0.027 S 
ATOM      6  C   UNL     1       9.591  -0.361  25.038  0.00  0.00    +0.064 A 
ENDROOT
BRANCH   3   7
ATOM      7  C   UNL     1       8.635  -3.922  24.572  0.00  0.00    +0.399 C 
BRANCH   7   8
ATOM      8  C   UNL     1       7.324  -4.501  25.007  0.00  0.00    +0.075 A 
ATOM      9  C   UNL     1       7.278  -5.450  26.015  0.00  0.00    +0.129 A 
ATOM     10  N   UNL     1       8.368  -5.668  26.865  0.00  0.00    -0.343 N 
ATOM     11  H   UNL     1       8.561  -4.855  27.437  0.00  0.00    +0.144 HD
ATOM     12  H   UNL     1       8.079  -6.427  27.489  0.00  0.00    +0.144 HD
ATOM     13  N   UNL     1       6.206  -6.212  26.260  0.00  0.00    -0.218 NA
ATOM     14  C   UNL     1       5.118  -5.998  25.504  0.00  0.00    +0.128 A 
ATOM     15  C   UNL     1       3.959  -6.931  25.651  0.00  0.00    +0.088 C 
ATOM     16  N   UNL     1       5.014  -5.005  24.607  0.00  0.00    -0.240 NA
ATOM     17  C   UNL     1       6.114  -4.269  24.385  0.00  0.00    +0.126 A 
ENDBRANCH   7   8
ENDBRANCH   3   7
BRANCH   6  18
ATOM     18  C   UNL     1      10.186   0.982  24.657  0.00  0.00    +0.077 C 
BRANCH  18  19
ATOM     19  C   UNL     1       9.164   2.081  24.304  0.00  0.00    +0.173 C 
BRANCH  19  20
ATOM     20  O   UNL     1       9.204   2.573  22.969  0.00  0.00    -0.327 OA
BRANCH  20  21
ATOM     21  P   UNL     1       8.113   1.965  21.885  0.00  0.00    +0.210 P 
ATOM     22  O   UNL     1       9.125   0.936  21.326  0.00  0.00    -0.517 OA
ATOM     23  O   UNL     1       7.220   0.996  22.676  0.00  0.00    -0.437 OA
BRANCH  21  24
ATOM     24  O   UNL     1       6.982   3.116  22.510  0.00  0.00    -0.344 OA
ATOM     25  H   UNL     1       6.536   3.276  21.649  0.00  0.00    +0.218 HD
ENDBRANCH  21  24
ENDBRANCH  20  21
ENDBRANCH  19  20
ENDBRANCH  18  19
ENDBRANCH   6  18
TORSDOF 7
ENDMDL
MODEL 7
REMARK VINA RESULT:      -6.1      5.399      7.900
REMARK  Name = 
REMARK  9 active torsions:
REMARK  status: ('A' for Active; 'I' for Inactive)
REMARK    1  A    between atoms: C_1  and  C_2
REMARK    2  A    between atoms: C_3  and  C_4
REMARK    3  A    between atoms: C_4  and  C_5
REMARK    4  A    between atoms: C_5  and  O_6
REMARK    5  A    between atoms: O_6  and  P_7
REMARK    6  A    between atoms: P_7  and  O_8
REMARK    7  A    between atoms: N_13  and  C_14
REMARK    8  A    between atoms: C_14  and  C_15
REMARK    9  A    between atoms: C_18  and  C_19
REMARK                            x       y       z     vdW  Elec       q    Type
REMARK                         _______ _______ _______ _____ _____    ______ ____
ROOT
ATOM      1  C   UNL     1      10.329  -1.737  22.723  0.00  0.00    +0.122 C 
ATOM      2  C   UNL     1       9.596  -1.654  24.017  0.00  0.00    +0.191 A 
ATOM      3  N   UNL     1       9.491  -0.403  24.632  0.00  0.00    -0.190 N 
ATOM      4  C   UNL     1       8.878  -0.412  25.802  0.00  0.00    +0.357 A 
ATOM      5  S   UNL     1       8.389  -1.979  26.246  0.00  0.00    -0.027 S 
ATOM      6  C   UNL     1       9.016  -2.655  24.787  0.00  0.00    +0.064 A 
ENDROOT
BRANCH   3   7
ATOM      7  C   UNL     1      10.095   0.838  24.116  0.00  0.00    +0.399 C 
BRANCH   7   8
ATOM      8  C   UNL     1       9.099   1.901  23.768  0.00  0.00    +0.075 A 
ATOM      9  C   UNL     1       8.755   2.131  22.446  0.00  0.00    +0.129 A 
ATOM     10  N   UNL     1       9.058   1.207  21.440  0.00  0.00    -0.343 N 
ATOM     11  H   UNL     1       8.557   0.336  21.573  0.00  0.00    +0.144 HD
ATOM     12  H   UNL     1       8.720   1.631  20.571  0.00  0.00    +0.144 HD
ATOM     13  N   UNL     1       8.109   3.228  22.033  0.00  0.00    -0.218 NA
ATOM     14  C   UNL     1       7.750   4.116  22.973  0.00  0.00    +0.128 A 
ATOM     15  C   UNL     1       7.162   5.417  22.530  0.00  0.00    +0.088 C 
ATOM     16  N   UNL     1       7.905   3.914  24.291  0.00  0.00    -0.240 NA
ATOM     17  C   UNL     1       8.565   2.806  24.663  0.00  0.00    +0.126 A 
ENDBRANCH   7   8
ENDBRANCH   3   7
BRANCH   6  18
ATOM     18  C   UNL     1       8.934  -4.153  24.566  0.00  0.00    +0.077 C 
BRANCH  18  19
ATOM     19  C   UNL     1       7.610  -4.661  23.963  0.00  0.00    +0.173 C 
BRANCH  19  20
ATOM     20  O   UNL     1       7.291  -4.191  22.658  0.00  0.00    -0.327 OA
BRANCH  20  21
ATOM     21  P   UNL     1       5.795  -3.530  22.415  0.00  0.00    +0.210 P 
ATOM     22  O   UNL     1       6.314  -2.086  22.616  0.00  0.00    -0.517 OA
ATOM     23  O   UNL     1       5.590  -3.485  20.892  0.00  0.00    -0.437 OA
BRANCH  21  24
ATOM     24  O   UNL     1       5.214  -5.145  22.189  0.00  0.00    -0.344 OA
ATOM     25  H   UNL     1       5.962  -5.572  22.663  0.00  0.00    +0.218 HD
ENDBRANCH  21  24
ENDBRANCH  20  21
ENDBRANCH  19  20
ENDBRANCH  18  19
ENDBRANCH   6  18
TORSDOF 7
ENDMDL
MODEL 8
REMARK VINA RESULT:      -6.1      5.970      8.524
REMARK  Name = 
REMARK  9 active torsions:
REMARK  status: ('A' for Active; 'I' for Inactive)
REMARK    1  A    between atoms: C_1  and  C_2
REMARK    2  A    between atoms: C_3  and  C_4
REMARK    3  A    between atoms: C_4  and  C_5
REMARK    4  A    between atoms: C_5  and  O_6
REMARK    5  A    between atoms: O_6  and  P_7
REMARK    6  A    between atoms: P_7  and  O_8
REMARK    7  A    between atoms: N_13  and  C_14
REMARK    8  A    between atoms: C_14  and  C_15
REMARK    9  A    between atoms: C_18  and  C_19
REMARK                            x       y       z     vdW  Elec       q    Type
REMARK                         _______ _______ _______ _____ _____    ______ ____
ROOT
ATOM      1  C   UNL     1      10.110  -1.044  22.147  0.00  0.00    +0.122 C 
ATOM      2  C   UNL     1       8.780  -1.030  22.817  0.00  0.00    +0.191 A 
ATOM      3  N   UNL     1       7.946   0.070  22.598  0.00  0.00    -0.190 N 
ATOM      4  C   UNL     1       6.807   0.043  23.266  0.00  0.00    +0.357 A 
ATOM      5  S   UNL     1       6.678  -1.349  24.234  0.00  0.00    -0.027 S 
ATOM      6  C   UNL     1       8.212  -1.935  23.707  0.00  0.00    +0.064 A 
ENDROOT
BRANCH   3   7
ATOM      7  C   UNL     1       8.306   1.247  21.786  0.00  0.00    +0.399 C 
BRANCH   7   8
ATOM      8  C   UNL     1       8.505   2.499  22.583  0.00  0.00    +0.075 A 
ATOM      9  C   UNL     1       7.617   3.556  22.459  0.00  0.00    +0.129 A 
ATOM     10  N   UNL     1       6.365   3.392  21.858  0.00  0.00    -0.343 N 
ATOM     11  H   UNL     1       5.775   2.767  22.394  0.00  0.00    +0.144 HD
ATOM     12  H   UNL     1       5.932   4.320  21.875  0.00  0.00    +0.144 HD
ATOM     13  N   UNL     1       7.877   4.791  22.903  0.00  0.00    -0.218 NA
ATOM     14  C   UNL     1       9.045   4.980  23.536  0.00  0.00    +0.128 A 
ATOM     15  C   UNL     1       9.429   6.376  23.911  0.00  0.00    +0.088 C 
ATOM     16  N   UNL     1       9.902   3.992  23.836  0.00  0.00    -0.240 NA
ATOM     17  C   UNL     1       9.610   2.770  23.365  0.00  0.00    +0.126 A 
ENDBRANCH   7   8
ENDBRANCH   3   7
BRANCH   6  18
ATOM     18  C   UNL     1       8.755  -3.227  24.285  0.00  0.00    +0.077 C 
BRANCH  18  19
ATOM     19  C   UNL     1       8.034  -4.510  23.826  0.00  0.00    +0.173 C 
BRANCH  19  20
ATOM     20  O   UNL     1       7.340  -4.434  22.586  0.00  0.00    -0.327 OA
BRANCH  20  21
ATOM     21  P   UNL     1       5.825  -5.092  22.502  0.00  0.00    +0.210 P 
ATOM     22  O   UNL     1       5.695  -5.185  24.042  0.00  0.00    -0.517 OA
ATOM     23  O   UNL     1       4.862  -3.917  22.266  0.00  0.00    -0.437 OA
BRANCH  21  24
ATOM     24  O   UNL     1       5.970  -4.987  20.781  0.00  0.00    -0.344 OA
ATOM     25  H   UNL     1       6.125  -5.949  20.648  0.00  0.00    +0.218 HD
ENDBRANCH  21  24
ENDBRANCH  20  21
ENDBRANCH  19  20
ENDBRANCH  18  19
ENDBRANCH   6  18
TORSDOF 7
ENDMDL
MODEL 9
REMARK VINA RESULT:      -6.1      2.216      3.797
REMARK  Name = 
REMARK  9 active torsions:
REMARK  status: ('A' for Active; 'I' for Inactive)
REMARK    1  A    between atoms: C_1  and  C_2
REMARK    2  A    between atoms: C_3  and  C_4
REMARK    3  A    between atoms: C_4  and  C_5
REMARK    4  A    between atoms: C_5  and  O_6
REMARK    5  A    between atoms: O_6  and  P_7
REMARK    6  A    between atoms: P_7  and  O_8
REMARK    7  A    between atoms: N_13  and  C_14
REMARK    8  A    between atoms: C_14  and  C_15
REMARK    9  A    between atoms: C_18  and  C_19
REMARK                            x       y       z     vdW  Elec       q    Type
REMARK                         _______ _______ _______ _____ _____    ______ ____
ROOT
ATOM      1  C   UNL     1       9.062  -4.028  25.581  0.00  0.00    +0.122 C 
ATOM      2  C   UNL     1       8.717  -3.186  24.403  0.00  0.00    +0.191 A 
ATOM      3  N   UNL     1       7.989  -3.775  23.365  0.00  0.00    -0.190 N 
ATOM      4  C   UNL     1       7.766  -2.988  22.328  0.00  0.00    +0.357 A 
ATOM      5  S   UNL     1       8.453  -1.448  22.547  0.00  0.00    -0.027 S 
ATOM      6  C   UNL     1       9.051  -1.868  24.110  0.00  0.00    +0.064 A 
ENDROOT
BRANCH   3   7
ATOM      7  C   UNL     1       7.575  -5.190  23.330  0.00  0.00    +0.399 C 
BRANCH   7   8
ATOM      8  C   UNL     1       6.115  -5.404  23.585  0.00  0.00    +0.075 A 
ATOM      9  C   UNL     1       5.272  -5.776  22.550  0.00  0.00    +0.129 A 
ATOM     10  N   UNL     1       5.772  -6.266  21.339  0.00  0.00    -0.343 N 
ATOM     11  H   UNL     1       6.249  -7.151  21.465  0.00  0.00    +0.144 HD
ATOM     12  H   UNL     1       4.949  -6.436  20.754  0.00  0.00    +0.144 HD
ATOM     13  N   UNL     1       3.938  -5.708  22.627  0.00  0.00    -0.218 NA
ATOM     14  C   UNL     1       3.413  -5.294  23.792  0.00  0.00    +0.128 A 
ATOM     15  C   UNL     1       1.938  -5.065  23.861  0.00  0.00    +0.088 C 
ATOM     16  N   UNL     1       4.138  -5.056  24.896  0.00  0.00    -0.240 NA
ATOM     17  C   UNL     1       5.473  -5.127  24.774  0.00  0.00    +0.126 A 
ENDBRANCH   7   8
ENDBRANCH   3   7
BRANCH   6  18
ATOM     18  C   UNL     1       9.871  -0.858  24.890  0.00  0.00    +0.077 C 
BRANCH  18  19
ATOM     19  C   UNL     1      10.567   0.224  24.041  0.00  0.00    +0.173 C 
BRANCH  19  20
ATOM     20  O   UNL     1      10.443   1.564  24.503  0.00  0.00    -0.327 OA
BRANCH  20  21
ATOM     21  P   UNL     1       9.985   2.722  23.415  0.00  0.00    +0.210 P 
ATOM     22  O   UNL     1      11.388   3.373  23.398  0.00  0.00    -0.517 OA
ATOM     23  O   UNL     1      10.032   2.050  22.032  0.00  0.00    -0.437 OA
BRANCH  21  24
ATOM     24  O   UNL     1       8.415   1.992  23.434  0.00  0.00    -0.344 OA
ATOM     25  H   UNL     1       7.996   2.702  23.969  0.00  0.00    +0.218 HD
ENDBRANCH  21  24
ENDBRANCH  20  21
ENDBRANCH  19  20
ENDBRANCH  18  19
ENDBRANCH   6  18
TORSDOF 7
ENDMDL
