MODEL 1
REMARK VINA RESULT:      -4.3      0.000      0.000
REMARK  Name = 
REMARK  3 active torsions:
REMARK  status: ('A' for Active; 'I' for Inactive)
REMARK    1  A    between atoms: C_1  and  C_2
REMARK    2  A    between atoms: CA_7  and  C_9
REMARK    3  A    between atoms: C_9  and  O_10
REMARK                            x       y       z     vdW  Elec       q    Type
REMARK                         _______ _______ _______ _____ _____    ______ ____
ROOT
ATOM      1  C   UNL     1       8.405   1.409  21.396  0.00  0.00    +0.014 C 
ATOM      2  C   UNL     1       9.745   1.046  22.022  0.00  0.00    +0.041 C 
ATOM      3  CA  UNL     1       9.600  -0.007  23.145  0.00  0.00    +0.186 C 
ATOM      4  N   UNL     1      10.461   0.521  24.261  0.00  0.00    -0.337 N 
ATOM      5  H   UNL     1      11.358   0.032  24.346  0.00  0.00    +0.146 HD
ATOM      6  C   UNL     1      10.749   1.845  23.977  0.00  0.00    +0.064 C 
ATOM      7  C   UNL     1      10.364   2.213  22.753  0.00  0.00    -0.007 C 
ENDROOT
BRANCH   3   8
ATOM      8  C   UNL     1      10.017  -1.419  22.748  0.00  0.00    +0.326 C 
ATOM      9  OXT UNL     1      10.203  -2.350  23.514  0.00  0.00    -0.249 OA
BRANCH   8  10
ATOM     10  O   UNL     1      10.221  -1.520  21.405  0.00  0.00    -0.479 OA
ATOM     11  H   UNL     1      11.032  -2.044  21.225  0.00  0.00    +0.295 HD
ENDBRANCH   8  10
ENDBRANCH   3   8
TORSDOF 2
ENDMDL
MODEL 2
REMARK VINA RESULT:      -4.2      1.802      2.581
REMARK  Name = 
REMARK  3 active torsions:
REMARK  status: ('A' for Active; 'I' for Inactive)
REMARK    1  A    between atoms: C_1  and  C_2
REMARK    2  A    between atoms: CA_7  and  C_9
REMARK    3  A    between atoms: C_9  and  O_10
REMARK                            x       y       z     vdW  Elec       q    Type
REMARK                         _______ _______ _______ _____ _____    ______ ____
ROOT
ATOM      1  C   UNL     1      10.899   0.620  24.482  0.00  0.00    +0.014 C 
ATOM      2  C   UNL     1       9.768   0.062  23.628  0.00  0.00    +0.041 C 
ATOM      3  CA  UNL     1      10.146  -1.282  22.962  0.00  0.00    +0.186 C 
ATOM      4  N   UNL     1       9.681  -1.133  21.538  0.00  0.00    -0.337 N 
ATOM      5  H   UNL     1       8.811  -1.638  21.343  0.00  0.00    +0.146 HD
ATOM      6  C   UNL     1       9.425   0.209  21.320  0.00  0.00    +0.064 C 
ATOM      7  C   UNL     1       9.472   0.940  22.435  0.00  0.00    -0.007 C 
ENDROOT
BRANCH   3   8
ATOM      8  C   UNL     1       9.528  -2.510  23.619  0.00  0.00    +0.326 C 
ATOM      9  OXT UNL     1      10.143  -3.421  24.150  0.00  0.00    -0.249 OA
BRANCH   8  10
ATOM     10  O   UNL     1       8.171  -2.511  23.500  0.00  0.00    -0.479 OA
ATOM     11  H   UNL     1       7.775  -3.123  24.159  0.00  0.00    +0.295 HD
ENDBRANCH   8  10
ENDBRANCH   3   8
TORSDOF 2
ENDMDL
MODEL 3
REMARK VINA RESULT:      -4.1      5.750      6.533
REMARK  Name = 
REMARK  3 active torsions:
REMARK  status: ('A' for Active; 'I' for Inactive)
REMARK    1  A    between atoms: C_1  and  C_2
REMARK    2  A    between atoms: CA_7  and  C_9
REMARK    3  A    between atoms: C_9  and  O_10
REMARK                            x       y       z     vdW  Elec       q    Type
REMARK                         _______ _______ _______ _____ _____    ______ ____
ROOT
ATOM      1  C   UNL     1       6.091  -3.879  24.534  0.00  0.00    +0.014 C 
ATOM      2  C   UNL     1       7.080  -3.987  25.687  0.00  0.00    +0.041 C 
ATOM      3  CA  UNL     1       8.079  -5.152  25.494  0.00  0.00    +0.186 C 
ATOM      4  N   UNL     1       8.118  -5.832  26.836  0.00  0.00    -0.337 N 
ATOM      5  H   UNL     1       8.960  -5.611  27.377  0.00  0.00    +0.146 HD
ATOM      6  C   UNL     1       7.037  -5.373  27.569  0.00  0.00    +0.064 C 
ATOM      7  C   UNL     1       6.401  -4.357  26.984  0.00  0.00    -0.007 C 
ENDROOT
BRANCH   3   8
ATOM      8  C   UNL     1       9.473  -4.724  25.051  0.00  0.00    +0.326 C 
ATOM      9  OXT UNL     1       9.736  -3.749  24.366  0.00  0.00    -0.249 OA
BRANCH   8  10
ATOM     10  O   UNL     1      10.423  -5.606  25.471  0.00  0.00    -0.479 OA
ATOM     11  H   UNL     1      11.003  -5.182  26.141  0.00  0.00    +0.295 HD
ENDBRANCH   8  10
ENDBRANCH   3   8
TORSDOF 2
ENDMDL
MODEL 4
REMARK VINA RESULT:      -4.1      1.889      2.643
REMARK  Name = 
REMARK  3 active torsions:
REMARK  status: ('A' for Active; 'I' for Inactive)
REMARK    1  A    between atoms: C_1  and  C_2
REMARK    2  A    between atoms: CA_7  and  C_9
REMARK    3  A    between atoms: C_9  and  O_10
REMARK                            x       y       z     vdW  Elec       q    Type
REMARK                         _______ _______ _______ _____ _____    ______ ____
ROOT
ATOM      1  C   UNL     1      10.005   0.168  25.038  0.00  0.00    +0.014 C 
ATOM      2  C   UNL     1       9.325   1.124  24.066  0.00  0.00    +0.041 C 
ATOM      3  CA  UNL     1      10.072   1.212  22.715  0.00  0.00    +0.186 C 
ATOM      4  N   UNL     1      10.128   2.687  22.419  0.00  0.00    -0.337 N 
ATOM      5  H   UNL     1       9.450   2.982  21.708  0.00  0.00    +0.146 HD
ATOM      6  C   UNL     1       9.807   3.360  23.585  0.00  0.00    +0.064 C 
ATOM      7  C   UNL     1       9.369   2.552  24.552  0.00  0.00    -0.007 C 
ENDROOT
BRANCH   3   8
ATOM      8  C   UNL     1       9.413   0.445  21.575  0.00  0.00    +0.326 C 
ATOM      9  OXT UNL     1       9.521  -0.753  21.364  0.00  0.00    -0.249 OA
BRANCH   8  10
ATOM     10  O   UNL     1       8.709   1.275  20.755  0.00  0.00    -0.479 OA
ATOM     11  H   UNL     1       8.552   2.135  21.202  0.00  0.00    +0.295 HD
ENDBRANCH   8  10
ENDBRANCH   3   8
TORSDOF 2
ENDMDL
MODEL 5
REMARK VINA RESULT:      -4.1      2.492      3.605
REMARK  Name = 
REMARK  3 active torsions:
REMARK  status: ('A' for Active; 'I' for Inactive)
REMARK    1  A    between atoms: C_1  and  C_2
REMARK    2  A    between atoms: CA_7  and  C_9
REMARK    3  A    between atoms: C_9  and  O_10
REMARK                            x       y       z     vdW  Elec       q    Type
REMARK                         _______ _______ _______ _____ _____    ______ ____
ROOT
ATOM      1  C   UNL     1       9.432  -0.340  25.390  0.00  0.00    +0.014 C 
ATOM      2  C   UNL     1      10.165  -0.329  24.055  0.00  0.00    +0.041 C 
ATOM      3  CA  UNL     1       9.500   0.621  23.031  0.00  0.00    +0.186 C 
ATOM      4  N   UNL     1       9.457  -0.180  21.757  0.00  0.00    -0.337 N 
ATOM      5  H   UNL     1      10.175   0.098  21.081  0.00  0.00    +0.146 HD
ATOM      6  C   UNL     1       9.704  -1.502  22.086  0.00  0.00    +0.064 C 
ATOM      7  C   UNL     1      10.087  -1.664  23.354  0.00  0.00    -0.007 C 
ENDROOT
BRANCH   3   8
ATOM      8  C   UNL     1      10.230   1.943  22.827  0.00  0.00    +0.326 C 
ATOM      9  OXT UNL     1      10.704   2.640  23.710  0.00  0.00    -0.249 OA
BRANCH   8  10
ATOM     10  O   UNL     1      10.249   2.306  21.514  0.00  0.00    -0.479 OA
ATOM     11  H   UNL     1       9.369   2.654  21.248  0.00  0.00    +0.295 HD
ENDBRANCH   8  10
ENDBRANCH   3   8
TORSDOF 2
ENDMDL
MODEL 6
REMARK VINA RESULT:      -4.0      2.569      3.523
REMARK  Name = 
REMARK  3 active torsions:
REMARK  status: ('A' for Active; 'I' for Inactive)
REMARK    1  A    between atoms: C_1  and  C_2
REMARK    2  A    between atoms: CA_7  and  C_9
REMARK    3  A    between atoms: C_9  and  O_10
REMARK                            x       y       z     vdW  Elec       q    Type
REMARK                         _______ _______ _______ _____ _____    ______ ____
ROOT
ATOM      1  C   UNL     1       7.785  -0.391  24.528  0.00  0.00    +0.014 C 
ATOM      2  C   UNL     1       9.021  -0.075  23.696  0.00  0.00    +0.041 C 
ATOM      3  CA  UNL     1       8.685   0.109  22.198  0.00  0.00    +0.186 C 
ATOM      4  N   UNL     1       9.748  -0.680  21.481  0.00  0.00    -0.337 N 
ATOM      5  H   UNL     1      10.479  -0.091  21.069  0.00  0.00    +0.146 HD
ATOM      6  C   UNL     1      10.366  -1.494  22.415  0.00  0.00    +0.064 C 
ATOM      7  C   UNL     1       9.996  -1.226  23.669  0.00  0.00    -0.007 C 
ENDROOT
BRANCH   3   8
ATOM      8  C   UNL     1       8.661   1.558  21.726  0.00  0.00    +0.326 C 
ATOM      9  OXT UNL     1       7.661   2.231  21.538  0.00  0.00    -0.249 OA
BRANCH   8  10
ATOM     10  O   UNL     1       9.917   2.022  21.475  0.00  0.00    -0.479 OA
ATOM     11  H   UNL     1      10.525   1.760  22.202  0.00  0.00    +0.295 HD
ENDBRANCH   8  10
ENDBRANCH   3   8
TORSDOF 2
ENDMDL
MODEL 7
REMARK VINA RESULT:      -3.9      3.283      4.200
REMARK  Name = 
REMARK  3 active torsions:
REMARK  status: ('A' for Active; 'I' for Inactive)
REMARK    1  A    between atoms: C_1  and  C_2
REMARK    2  A    between atoms: CA_7  and  C_9
REMARK    3  A    between atoms: C_9  and  O_10
REMARK                            x       y       z     vdW  Elec       q    Type
REMARK                         _______ _______ _______ _____ _____    ______ ____
ROOT
ATOM      1  C   UNL     1      10.171   0.539  24.849  0.00  0.00    +0.014 C 
ATOM      2  C   UNL     1      10.481   1.115  23.474  0.00  0.00    +0.041 C 
ATOM      3  CA  UNL     1       9.687   2.412  23.191  0.00  0.00    +0.186 C 
ATOM      4  N   UNL     1       9.167   2.229  21.790  0.00  0.00    -0.337 N 
ATOM      5  H   UNL     1       9.690   2.766  21.091  0.00  0.00    +0.146 HD
ATOM      6  C   UNL     1       9.312   0.892  21.461  0.00  0.00    +0.064 C 
ATOM      7  C   UNL     1      10.018   0.205  22.361  0.00  0.00    -0.007 C 
ENDROOT
BRANCH   3   8
ATOM      8  C   UNL     1      10.504   3.693  23.313  0.00  0.00    +0.326 C 
ATOM      9  OXT UNL     1      11.717   3.758  23.432  0.00  0.00    -0.249 OA
BRANCH   8  10
ATOM     10  O   UNL     1       9.703   4.795  23.331  0.00  0.00    -0.479 OA
ATOM     11  H   UNL     1       8.961   4.662  23.960  0.00  0.00    +0.295 HD
ENDBRANCH   8  10
ENDBRANCH   3   8
TORSDOF 2
ENDMDL
MODEL 8
REMARK VINA RESULT:      -3.8      1.067      1.213
REMARK  Name = 
REMARK  3 active torsions:
REMARK  status: ('A' for Active; 'I' for Inactive)
REMARK    1  A    between atoms: C_1  and  C_2
REMARK    2  A    between atoms: CA_7  and  C_9
REMARK    3  A    between atoms: C_9  and  O_10
REMARK                            x       y       z     vdW  Elec       q    Type
REMARK                         _______ _______ _______ _____ _____    ______ ____
ROOT
ATOM      1  C   UNL     1       7.051   0.215  22.948  0.00  0.00    +0.014 C 
ATOM      2  C   UNL     1       8.458   0.344  22.381  0.00  0.00    +0.041 C 
ATOM      3  CA  UNL     1       9.521  -0.298  23.302  0.00  0.00    +0.186 C 
ATOM      4  N   UNL     1      10.629   0.720  23.355  0.00  0.00    -0.337 N 
ATOM      5  H   UNL     1      11.435   0.471  22.773  0.00  0.00    +0.146 HD
ATOM      6  C   UNL     1      10.126   1.911  22.859  0.00  0.00    +0.064 C 
ATOM      7  C   UNL     1       8.914   1.782  22.316  0.00  0.00    -0.007 C 
ENDROOT
BRANCH   3   8
ATOM      8  C   UNL     1      10.038  -1.651  22.827  0.00  0.00    +0.326 C 
ATOM      9  OXT UNL     1      10.246  -2.624  23.535  0.00  0.00    -0.249 OA
BRANCH   8  10
ATOM     10  O   UNL     1      10.305  -1.643  21.492  0.00  0.00    -0.479 OA
ATOM     11  H   UNL     1      10.164  -2.539  21.114  0.00  0.00    +0.295 HD
ENDBRANCH   8  10
ENDBRANCH   3   8
TORSDOF 2
ENDMDL
MODEL 9
REMARK VINA RESULT:      -3.8      3.271      4.043
REMARK  Name = 
REMARK  3 active torsions:
REMARK  status: ('A' for Active; 'I' for Inactive)
REMARK    1  A    between atoms: C_1  and  C_2
REMARK    2  A    between atoms: CA_7  and  C_9
REMARK    3  A    between atoms: C_9  and  O_10
REMARK                            x       y       z     vdW  Elec       q    Type
REMARK                         _______ _______ _______ _____ _____    ______ ____
ROOT
ATOM      1  C   UNL     1       6.628  -2.315  22.713  0.00  0.00    +0.014 C 
ATOM      2  C   UNL     1       8.045  -2.870  22.646  0.00  0.00    +0.041 C 
ATOM      3  CA  UNL     1       8.630  -3.149  24.051  0.00  0.00    +0.186 C 
ATOM      4  N   UNL     1      10.022  -2.579  23.992  0.00  0.00    -0.337 N 
ATOM      5  H   UNL     1      10.748  -3.295  23.889  0.00  0.00    +0.146 HD
ATOM      6  C   UNL     1      10.095  -1.768  22.872  0.00  0.00    +0.064 C 
ATOM      7  C   UNL     1       9.021  -1.865  22.085  0.00  0.00    -0.007 C 
ENDROOT
BRANCH   3   8
ATOM      8  C   UNL     1       8.653  -4.621  24.447  0.00  0.00    +0.326 C 
ATOM      9  OXT UNL     1       7.673  -5.327  24.624  0.00  0.00    -0.249 OA
BRANCH   8  10
ATOM     10  O   UNL     1       9.925  -5.066  24.643  0.00  0.00    -0.479 OA
ATOM     11  H   UNL     1      10.505  -4.319  24.912  0.00  0.00    +0.295 HD
ENDBRANCH   8  10
ENDBRANCH   3   8
TORSDOF 2
ENDMDL
