MODEL 1
REMARK VINA RESULT:      -7.1      0.000      0.000
REMARK  Name = 
REMARK  8 active torsions:
REMARK  status: ('A' for Active; 'I' for Inactive)
REMARK    1  A    between atoms: C_5  and  C_6
REMARK    2  A    between atoms: CA_7  and  C_26
REMARK    3  A    between atoms: CA_11  and  N_13
REMARK    4  A    between atoms: C_14  and  CA_16
REMARK    5  A    between atoms: CA_16  and  N_18
REMARK    6  A    between atoms: CA_16  and  C_19
REMARK    7  A    between atoms: C_22  and  O_23
REMARK    8  A    between atoms: C_26  and  O_27
REMARK                            x       y       z     vdW  Elec       q    Type
REMARK                         _______ _______ _______ _____ _____    ______ ____
ROOT
ATOM      1  N   UNL     1       9.089  -1.662  24.453  0.00  0.00    -0.300 N 
ATOM      2  H   UNL     1       8.455  -1.516  25.241  0.00  0.00    +0.150 HD
ATOM      3  C   UNL     1       9.772  -0.535  24.055  0.00  0.00    +0.235 C 
ATOM      4  O   UNL     1      10.580  -0.532  23.132  0.00  0.00    -0.274 OA
ENDROOT
BRANCH   1   6
ATOM      5  C   UNL     1       8.721  -4.199  24.670  0.00  0.00    +0.169 C 
ATOM      6  CA  UNL     1       9.200  -2.986  23.806  0.00  0.00    +0.191 C 
ATOM      7  C   UNL     1       7.989  -3.390  22.891  0.00  0.00    +0.244 C 
ATOM      8  O   UNL     1       7.502  -3.079  21.831  0.00  0.00    -0.273 OA
ATOM      9  N   UNL     1       7.531  -4.234  23.837  0.00  0.00    -0.249 N 
ATOM     10  CA  UNL     1       6.401  -4.952  24.114  0.00  0.00    +0.122 C 
ATOM     11  C   UNL     1       6.218  -5.440  25.376  0.00  0.00    -0.034 C 
ATOM     12  C   UNL     1       4.988  -6.210  25.813  0.00  0.00    +0.042 C 
ATOM     13  C   UNL     1       7.182  -5.247  26.531  0.00  0.00    +0.103 C 
ATOM     14  S   UNL     1       8.254  -3.806  26.372  0.00  0.00    -0.131 S 
BRANCH  10  15
ATOM     15  C   UNL     1       5.336  -5.190  23.053  0.00  0.00    +0.351 C 
ATOM     16  OXT UNL     1       4.419  -4.412  22.826  0.00  0.00    -0.244 OA
BRANCH  15  17
ATOM     17  O   UNL     1       5.373  -6.362  22.394  0.00  0.00    -0.476 OA
ATOM     18  H   UNL     1       4.680  -6.537  21.720  0.00  0.00    +0.295 HD
ENDBRANCH  15  17
ENDBRANCH  10  15
ENDBRANCH   1   6
BRANCH   3  19
ATOM     19  CA  UNL     1       9.416   0.716  24.895  0.00  0.00    +0.168 C 
BRANCH  19  20
ATOM     20  C   UNL     1       8.758   1.790  24.049  0.00  0.00    -0.022 A 
ATOM     21  C   UNL     1       7.749   1.497  23.114  0.00  0.00    +0.009 A 
ATOM     22  C   UNL     1       7.138   2.515  22.379  0.00  0.00    +0.046 A 
ATOM     23  C   UNL     1       7.538   3.832  22.563  0.00  0.00    +0.117 A 
ATOM     24  C   UNL     1       8.561   4.146  23.449  0.00  0.00    +0.046 A 
ATOM     25  C   UNL     1       9.171   3.126  24.186  0.00  0.00    +0.009 A 
BRANCH  23  26
ATOM     26  O   UNL     1       6.892   4.797  21.849  0.00  0.00    -0.507 OA
ATOM     27  H   UNL     1       6.156   4.385  21.368  0.00  0.00    +0.292 HD
ENDBRANCH  23  26
ENDBRANCH  19  20
BRANCH  19  28
ATOM     28  N   UNL     1       8.560   0.314  26.047  0.00  0.00    -0.316 NA
ATOM     29  H1  UNL     1       7.998  -0.486  25.757  0.00  0.00    +0.119 HD
ATOM     30  H2  UNL     1       9.180  -0.038  26.778  0.00  0.00    +0.119 HD
ENDBRANCH  19  28
ENDBRANCH   3  19
TORSDOF 7
ENDMDL
MODEL 2
REMARK VINA RESULT:      -6.9      2.244      7.621
REMARK  Name = 
REMARK  8 active torsions:
REMARK  status: ('A' for Active; 'I' for Inactive)
REMARK    1  A    between atoms: C_5  and  C_6
REMARK    2  A    between atoms: CA_7  and  C_26
REMARK    3  A    between atoms: CA_11  and  N_13
REMARK    4  A    between atoms: C_14  and  CA_16
REMARK    5  A    between atoms: CA_16  and  N_18
REMARK    6  A    between atoms: CA_16  and  C_19
REMARK    7  A    between atoms: C_22  and  O_23
REMARK    8  A    between atoms: C_26  and  O_27
REMARK                            x       y       z     vdW  Elec       q    Type
REMARK                         _______ _______ _______ _____ _____    ______ ____
ROOT
ATOM      1  N   UNL     1       8.082  -3.111  24.083  0.00  0.00    -0.300 N 
ATOM      2  H   UNL     1       8.081  -2.613  24.976  0.00  0.00    +0.150 HD
ATOM      3  C   UNL     1       8.255  -4.472  24.189  0.00  0.00    +0.235 C 
ATOM      4  O   UNL     1       8.273  -5.223  23.219  0.00  0.00    -0.274 OA
ENDROOT
BRANCH   1   6
ATOM      5  C   UNL     1       7.124  -1.045  22.884  0.00  0.00    +0.169 C 
ATOM      6  CA  UNL     1       7.942  -2.376  22.808  0.00  0.00    +0.191 C 
ATOM      7  C   UNL     1       9.132  -1.415  22.453  0.00  0.00    +0.244 C 
ATOM      8  O   UNL     1      10.290  -1.479  22.116  0.00  0.00    -0.273 OA
ATOM      9  N   UNL     1       8.392  -0.342  22.795  0.00  0.00    -0.249 N 
ATOM     10  CA  UNL     1       8.566   0.993  23.037  0.00  0.00    +0.122 C 
ATOM     11  C   UNL     1       7.586   1.682  23.691  0.00  0.00    -0.034 C 
ATOM     12  C   UNL     1       7.685   3.150  24.055  0.00  0.00    +0.042 C 
ATOM     13  C   UNL     1       6.286   1.081  24.190  0.00  0.00    +0.103 C 
ATOM     14  S   UNL     1       6.352  -0.696  24.482  0.00  0.00    -0.131 S 
BRANCH  10  15
ATOM     15  C   UNL     1       9.842   1.713  22.618  0.00  0.00    +0.351 C 
ATOM     16  OXT UNL     1      10.791   1.900  23.368  0.00  0.00    -0.244 OA
BRANCH  15  17
ATOM     17  O   UNL     1       9.876   2.235  21.380  0.00  0.00    -0.476 OA
ATOM     18  H   UNL     1      10.323   1.720  20.673  0.00  0.00    +0.295 HD
ENDBRANCH  15  17
ENDBRANCH  10  15
ENDBRANCH   1   6
BRANCH   3  19
ATOM     19  CA  UNL     1       8.419  -4.948  25.654  0.00  0.00    +0.168 C 
BRANCH  19  20
ATOM     20  C   UNL     1       7.120  -5.500  26.211  0.00  0.00    -0.022 A 
ATOM     21  C   UNL     1       6.048  -5.879  25.384  0.00  0.00    +0.009 A 
ATOM     22  C   UNL     1       4.881  -6.419  25.928  0.00  0.00    +0.046 A 
ATOM     23  C   UNL     1       4.771  -6.574  27.304  0.00  0.00    +0.117 A 
ATOM     24  C   UNL     1       5.798  -6.169  28.148  0.00  0.00    +0.046 A 
ATOM     25  C   UNL     1       6.967  -5.630  27.602  0.00  0.00    +0.009 A 
BRANCH  23  26
ATOM     26  O   UNL     1       3.629  -7.135  27.790  0.00  0.00    -0.507 OA
ATOM     27  H   UNL     1       2.869  -6.724  27.347  0.00  0.00    +0.292 HD
ENDBRANCH  23  26
ENDBRANCH  19  20
BRANCH  19  28
ATOM     28  N   UNL     1       9.525  -5.944  25.731  0.00  0.00    -0.316 NA
ATOM     29  H1  UNL     1       9.882  -6.092  24.787  0.00  0.00    +0.119 HD
ATOM     30  H2  UNL     1      10.290  -5.508  26.248  0.00  0.00    +0.119 HD
ENDBRANCH  19  28
ENDBRANCH   3  19
TORSDOF 7
ENDMDL
MODEL 3
REMARK VINA RESULT:      -6.8      2.428      7.838
REMARK  Name = 
REMARK  8 active torsions:
REMARK  status: ('A' for Active; 'I' for Inactive)
REMARK    1  A    between atoms: C_5  and  C_6
REMARK    2  A    between atoms: CA_7  and  C_26
REMARK    3  A    between atoms: CA_11  and  N_13
REMARK    4  A    between atoms: C_14  and  CA_16
REMARK    5  A    between atoms: CA_16  and  N_18
REMARK    6  A    between atoms: CA_16  and  C_19
REMARK    7  A    between atoms: C_22  and  O_23
REMARK    8  A    between atoms: C_26  and  O_27
REMARK                            x       y       z     vdW  Elec       q    Type
REMARK                         _______ _______ _______ _____ _____    ______ ____
ROOT
ATOM      1  N   UNL     1       9.283  -0.123  23.132  0.00  0.00    -0.300 N 
ATOM      2  H   UNL     1       8.850   0.054  24.040  0.00  0.00    +0.150 HD
ATOM      3  C   UNL     1       9.471  -1.455  22.839  0.00  0.00    +0.235 C 
ATOM      4  O   UNL     1       9.969  -1.846  21.788  0.00  0.00    -0.274 OA
ENDROOT
BRANCH   1   6
ATOM      5  C   UNL     1       8.539   1.963  21.822  0.00  0.00    +0.169 C 
ATOM      6  CA  UNL     1       9.690   0.997  22.257  0.00  0.00    +0.191 C 
ATOM      7  C   UNL     1      10.233   2.268  23.003  0.00  0.00    +0.244 C 
ATOM      8  O   UNL     1      11.200   2.610  23.639  0.00  0.00    -0.273 OA
ATOM      9  N   UNL     1       9.075   2.919  22.778  0.00  0.00    -0.249 N 
ATOM     10  CA  UNL     1       8.434   4.054  23.193  0.00  0.00    +0.122 C 
ATOM     11  C   UNL     1       7.096   4.185  22.957  0.00  0.00    -0.034 C 
ATOM     12  C   UNL     1       6.272   5.373  23.410  0.00  0.00    +0.042 C 
ATOM     13  C   UNL     1       6.231   3.153  22.258  0.00  0.00    +0.103 C 
ATOM     14  S   UNL     1       6.875   1.471  22.332  0.00  0.00    -0.131 S 
BRANCH  10  15
ATOM     15  C   UNL     1       9.179   5.153  23.938  0.00  0.00    +0.351 C 
ATOM     16  OXT UNL     1       9.181   5.266  25.157  0.00  0.00    -0.244 OA
BRANCH  15  17
ATOM     17  O   UNL     1       9.797   6.090  23.196  0.00  0.00    -0.476 OA
ATOM     18  H   UNL     1      10.759   5.990  23.031  0.00  0.00    +0.295 HD
ENDBRANCH  15  17
ENDBRANCH  10  15
ENDBRANCH   1   6
BRANCH   3  19
ATOM     19  CA  UNL     1       8.985  -2.397  23.968  0.00  0.00    +0.168 C 
BRANCH  19  20
ATOM     20  C   UNL     1       7.694  -3.101  23.593  0.00  0.00    -0.022 A 
ATOM     21  C   UNL     1       6.611  -2.422  23.008  0.00  0.00    +0.009 A 
ATOM     22  C   UNL     1       5.452  -3.109  22.640  0.00  0.00    +0.046 A 
ATOM     23  C   UNL     1       5.361  -4.476  22.865  0.00  0.00    +0.117 A 
ATOM     24  C   UNL     1       6.400  -5.165  23.480  0.00  0.00    +0.046 A 
ATOM     25  C   UNL     1       7.561  -4.477  23.846  0.00  0.00    +0.009 A 
BRANCH  23  26
ATOM     26  O   UNL     1       4.226  -5.112  22.461  0.00  0.00    -0.507 OA
ATOM     27  H   UNL     1       4.321  -6.061  22.646  0.00  0.00    +0.292 HD
ENDBRANCH  23  26
ENDBRANCH  19  20
BRANCH  19  28
ATOM     28  N   UNL     1      10.068  -3.363  24.309  0.00  0.00    -0.316 NA
ATOM     29  H1  UNL     1       9.815  -4.270  23.916  0.00  0.00    +0.119 HD
ATOM     30  H2  UNL     1      10.906  -3.070  23.805  0.00  0.00    +0.119 HD
ENDBRANCH  19  28
ENDBRANCH   3  19
TORSDOF 7
ENDMDL
MODEL 4
REMARK VINA RESULT:      -6.7      2.436      7.097
REMARK  Name = 
REMARK  8 active torsions:
REMARK  status: ('A' for Active; 'I' for Inactive)
REMARK    1  A    between atoms: C_5  and  C_6
REMARK    2  A    between atoms: CA_7  and  C_26
REMARK    3  A    between atoms: CA_11  and  N_13
REMARK    4  A    between atoms: C_14  and  CA_16
REMARK    5  A    between atoms: CA_16  and  N_18
REMARK    6  A    between atoms: CA_16  and  C_19
REMARK    7  A    between atoms: C_22  and  O_23
REMARK    8  A    between atoms: C_26  and  O_27
REMARK                            x       y       z     vdW  Elec       q    Type
REMARK                         _______ _______ _______ _____ _____    ______ ____
ROOT
ATOM      1  N   UNL     1       7.717  -2.486  26.144  0.00  0.00    -0.300 N 
ATOM      2  H   UNL     1       6.786  -2.256  25.790  0.00  0.00    +0.150 HD
ATOM      3  C   UNL     1       7.927  -3.827  26.368  0.00  0.00    +0.235 C 
ATOM      4  O   UNL     1       8.990  -4.279  26.784  0.00  0.00    -0.274 OA
ENDROOT
BRANCH   1   6
ATOM      5  C   UNL     1       9.599  -1.011  25.195  0.00  0.00    +0.169 C 
ATOM      6  CA  UNL     1       8.707  -1.421  26.412  0.00  0.00    +0.191 C 
ATOM      7  C   UNL     1       8.166   0.047  26.282  0.00  0.00    +0.244 C 
ATOM      8  O   UNL     1       7.422   0.801  26.861  0.00  0.00    -0.273 OA
ATOM      9  N   UNL     1       8.790   0.192  25.097  0.00  0.00    -0.249 N 
ATOM     10  CA  UNL     1       8.800   1.058  24.038  0.00  0.00    +0.122 C 
ATOM     11  C   UNL     1       9.357   0.658  22.858  0.00  0.00    -0.034 C 
ATOM     12  C   UNL     1       9.386   1.511  21.605  0.00  0.00    +0.042 C 
ATOM     13  C   UNL     1       9.981  -0.702  22.608  0.00  0.00    +0.103 C 
ATOM     14  S   UNL     1       9.383  -2.006  23.700  0.00  0.00    -0.131 S 
BRANCH  10  15
ATOM     15  C   UNL     1       8.176   2.443  24.145  0.00  0.00    +0.351 C 
ATOM     16  OXT UNL     1       7.021   2.693  23.824  0.00  0.00    -0.244 OA
BRANCH  15  17
ATOM     17  O   UNL     1       8.975   3.451  24.538  0.00  0.00    -0.476 OA
ATOM     18  H   UNL     1       8.574   4.186  25.051  0.00  0.00    +0.295 HD
ENDBRANCH  15  17
ENDBRANCH  10  15
ENDBRANCH   1   6
BRANCH   3  19
ATOM     19  CA  UNL     1       6.690  -4.697  26.037  0.00  0.00    +0.168 C 
BRANCH  19  20
ATOM     20  C   UNL     1       6.534  -4.902  24.541  0.00  0.00    -0.022 A 
ATOM     21  C   UNL     1       7.606  -5.297  23.722  0.00  0.00    +0.009 A 
ATOM     22  C   UNL     1       7.418  -5.514  22.355  0.00  0.00    +0.046 A 
ATOM     23  C   UNL     1       6.162  -5.326  21.794  0.00  0.00    +0.117 A 
ATOM     24  C   UNL     1       5.094  -4.896  22.573  0.00  0.00    +0.046 A 
ATOM     25  C   UNL     1       5.282  -4.681  23.942  0.00  0.00    +0.009 A 
BRANCH  23  26
ATOM     26  O   UNL     1       6.016  -5.581  20.464  0.00  0.00    -0.507 OA
ATOM     27  H   UNL     1       6.694  -6.222  20.196  0.00  0.00    +0.292 HD
ENDBRANCH  23  26
ENDBRANCH  19  20
BRANCH  19  28
ATOM     28  N   UNL     1       6.782  -5.992  26.769  0.00  0.00    -0.316 NA
ATOM     29  H1  UNL     1       7.744  -6.323  26.704  0.00  0.00    +0.119 HD
ATOM     30  H2  UNL     1       6.627  -5.793  27.759  0.00  0.00    +0.119 HD
ENDBRANCH  19  28
ENDBRANCH   3  19
TORSDOF 7
ENDMDL
MODEL 5
REMARK VINA RESULT:      -6.7      2.126      7.604
REMARK  Name = 
REMARK  8 active torsions:
REMARK  status: ('A' for Active; 'I' for Inactive)
REMARK    1  A    between atoms: C_5  and  C_6
REMARK    2  A    between atoms: CA_7  and  C_26
REMARK    3  A    between atoms: CA_11  and  N_13
REMARK    4  A    between atoms: C_14  and  CA_16
REMARK    5  A    between atoms: CA_16  and  N_18
REMARK    6  A    between atoms: CA_16  and  C_19
REMARK    7  A    between atoms: C_22  and  O_23
REMARK    8  A    between atoms: C_26  and  O_27
REMARK                            x       y       z     vdW  Elec       q    Type
REMARK                         _______ _______ _______ _____ _____    ______ ____
ROOT
ATOM      1  N   UNL     1       8.939  -2.164  24.618  0.00  0.00    -0.300 N 
ATOM      2  H   UNL     1       8.177  -1.744  25.156  0.00  0.00    +0.150 HD
ATOM      3  C   UNL     1       9.201  -3.478  24.930  0.00  0.00    +0.235 C 
ATOM      4  O   UNL     1      10.074  -4.137  24.376  0.00  0.00    -0.274 OA
ENDROOT
BRANCH   1   6
ATOM      5  C   UNL     1       8.824  -0.445  22.707  0.00  0.00    +0.169 C 
ATOM      6  CA  UNL     1       9.691  -1.368  23.625  0.00  0.00    +0.191 C 
ATOM      7  C   UNL     1      10.263  -0.004  24.152  0.00  0.00    +0.244 C 
ATOM      8  O   UNL     1      11.120   0.399  24.901  0.00  0.00    -0.273 OA
ATOM      9  N   UNL     1       9.296   0.675  23.504  0.00  0.00    -0.249 N 
ATOM     10  CA  UNL     1       8.772   1.938  23.468  0.00  0.00    +0.122 C 
ATOM     11  C   UNL     1       7.550   2.133  22.892  0.00  0.00    -0.034 C 
ATOM     12  C   UNL     1       6.850   3.476  22.833  0.00  0.00    +0.042 C 
ATOM     13  C   UNL     1       6.696   1.043  22.274  0.00  0.00    +0.103 C 
ATOM     14  S   UNL     1       7.034  -0.612  22.902  0.00  0.00    -0.131 S 
BRANCH  10  15
ATOM     15  C   UNL     1       9.512   3.117  24.084  0.00  0.00    +0.351 C 
ATOM     16  OXT UNL     1       9.020   3.865  24.919  0.00  0.00    -0.244 OA
BRANCH  15  17
ATOM     17  O   UNL     1      10.743   3.386  23.613  0.00  0.00    -0.476 OA
ATOM     18  H   UNL     1      11.311   2.631  23.344  0.00  0.00    +0.295 HD
ENDBRANCH  15  17
ENDBRANCH  10  15
ENDBRANCH   1   6
BRANCH   3  19
ATOM     19  CA  UNL     1       8.276  -4.031  26.043  0.00  0.00    +0.168 C 
BRANCH  19  20
ATOM     20  C   UNL     1       7.145  -4.865  25.469  0.00  0.00    -0.022 A 
ATOM     21  C   UNL     1       6.857  -4.893  24.093  0.00  0.00    +0.009 A 
ATOM     22  C   UNL     1       5.833  -5.701  23.594  0.00  0.00    +0.046 A 
ATOM     23  C   UNL     1       5.081  -6.477  24.467  0.00  0.00    +0.117 A 
ATOM     24  C   UNL     1       5.317  -6.436  25.836  0.00  0.00    +0.046 A 
ATOM     25  C   UNL     1       6.344  -5.628  26.334  0.00  0.00    +0.009 A 
BRANCH  23  26
ATOM     26  O   UNL     1       4.114  -7.276  23.934  0.00  0.00    -0.507 OA
ATOM     27  H   UNL     1       3.384  -6.714  23.627  0.00  0.00    +0.292 HD
ENDBRANCH  23  26
ENDBRANCH  19  20
BRANCH  19  28
ATOM     28  N   UNL     1       9.089  -4.800  27.028  0.00  0.00    -0.316 NA
ATOM     29  H1  UNL     1       8.586  -5.659  27.249  0.00  0.00    +0.119 HD
ATOM     30  H2  UNL     1       9.942  -5.097  26.551  0.00  0.00    +0.119 HD
ENDBRANCH  19  28
ENDBRANCH   3  19
TORSDOF 7
ENDMDL
MODEL 6
REMARK VINA RESULT:      -6.5      2.900      7.391
REMARK  Name = 
REMARK  8 active torsions:
REMARK  status: ('A' for Active; 'I' for Inactive)
REMARK    1  A    between atoms: C_5  and  C_6
REMARK    2  A    between atoms: CA_7  and  C_26
REMARK    3  A    between atoms: CA_11  and  N_13
REMARK    4  A    between atoms: C_14  and  CA_16
REMARK    5  A    between atoms: CA_16  and  N_18
REMARK    6  A    between atoms: CA_16  and  C_19
REMARK    7  A    between atoms: C_22  and  O_23
REMARK    8  A    between atoms: C_26  and  O_27
REMARK                            x       y       z     vdW  Elec       q    Type
REMARK                         _______ _______ _______ _____ _____    ______ ____
ROOT
ATOM      1  N   UNL     1       9.568  -0.089  23.434  0.00  0.00    -0.300 N 
ATOM      2  H   UNL     1       9.102   0.132  24.317  0.00  0.00    +0.150 HD
ATOM      3  C   UNL     1       9.886  -1.418  23.274  0.00  0.00    +0.235 C 
ATOM      4  O   UNL     1      10.440  -1.859  22.272  0.00  0.00    -0.274 OA
ENDROOT
BRANCH   1   6
ATOM      5  C   UNL     1       8.663   1.808  21.950  0.00  0.00    +0.169 C 
ATOM      6  CA  UNL     1       9.886   0.976  22.460  0.00  0.00    +0.191 C 
ATOM      7  C   UNL     1      10.329   2.347  23.085  0.00  0.00    +0.244 C 
ATOM      8  O   UNL     1      11.268   2.819  23.680  0.00  0.00    -0.273 OA
ATOM      9  N   UNL     1       9.124   2.884  22.811  0.00  0.00    -0.249 N 
ATOM     10  CA  UNL     1       8.398   3.998  23.129  0.00  0.00    +0.122 C 
ATOM     11  C   UNL     1       7.053   4.004  22.892  0.00  0.00    -0.034 C 
ATOM     12  C   UNL     1       6.139   5.161  23.243  0.00  0.00    +0.042 C 
ATOM     13  C   UNL     1       6.270   2.850  22.295  0.00  0.00    +0.103 C 
ATOM     14  S   UNL     1       7.043   1.236  22.514  0.00  0.00    -0.131 S 
BRANCH  10  15
ATOM     15  C   UNL     1       9.056   5.215  23.766  0.00  0.00    +0.351 C 
ATOM     16  OXT UNL     1       9.130   5.389  24.975  0.00  0.00    -0.244 OA
BRANCH  15  17
ATOM     17  O   UNL     1       9.502   6.178  22.940  0.00  0.00    -0.476 OA
ATOM     18  H   UNL     1       9.507   7.103  23.268  0.00  0.00    +0.295 HD
ENDBRANCH  15  17
ENDBRANCH  10  15
ENDBRANCH   1   6
BRANCH   3  19
ATOM     19  CA  UNL     1       9.467  -2.290  24.484  0.00  0.00    +0.168 C 
BRANCH  19  20
ATOM     20  C   UNL     1       7.981  -2.176  24.769  0.00  0.00    -0.022 A 
ATOM     21  C   UNL     1       7.005  -2.527  23.820  0.00  0.00    +0.009 A 
ATOM     22  C   UNL     1       5.646  -2.446  24.130  0.00  0.00    +0.046 A 
ATOM     23  C   UNL     1       5.251  -2.000  25.384  0.00  0.00    +0.117 A 
ATOM     24  C   UNL     1       6.193  -1.606  26.327  0.00  0.00    +0.046 A 
ATOM     25  C   UNL     1       7.554  -1.690  26.017  0.00  0.00    +0.009 A 
BRANCH  23  26
ATOM     26  O   UNL     1       3.916  -1.968  25.655  0.00  0.00    -0.507 OA
ATOM     27  H   UNL     1       3.755  -2.461  26.476  0.00  0.00    +0.292 HD
ENDBRANCH  23  26
ENDBRANCH  19  20
BRANCH  19  28
ATOM     28  N   UNL     1       9.880  -3.703  24.245  0.00  0.00    -0.316 NA
ATOM     29  H1  UNL     1      10.853  -3.698  23.939  0.00  0.00    +0.119 HD
ATOM     30  H2  UNL     1       9.880  -4.176  25.150  0.00  0.00    +0.119 HD
ENDBRANCH  19  28
ENDBRANCH   3  19
TORSDOF 7
ENDMDL
MODEL 7
REMARK VINA RESULT:      -6.5      3.096      4.204
REMARK  Name = 
REMARK  8 active torsions:
REMARK  status: ('A' for Active; 'I' for Inactive)
REMARK    1  A    between atoms: C_5  and  C_6
REMARK    2  A    between atoms: CA_7  and  C_26
REMARK    3  A    between atoms: CA_11  and  N_13
REMARK    4  A    between atoms: C_14  and  CA_16
REMARK    5  A    between atoms: CA_16  and  N_18
REMARK    6  A    between atoms: CA_16  and  C_19
REMARK    7  A    between atoms: C_22  and  O_23
REMARK    8  A    between atoms: C_26  and  O_27
REMARK                            x       y       z     vdW  Elec       q    Type
REMARK                         _______ _______ _______ _____ _____    ______ ____
ROOT
ATOM      1  N   UNL     1       6.535  -2.910  24.561  0.00  0.00    -0.300 N 
ATOM      2  H   UNL     1       6.450  -3.219  23.590  0.00  0.00    +0.150 HD
ATOM      3  C   UNL     1       7.817  -2.596  24.949  0.00  0.00    +0.235 C 
ATOM      4  O   UNL     1       8.098  -2.200  26.076  0.00  0.00    -0.274 OA
ENDROOT
BRANCH   1   6
ATOM      5  C   UNL     1       4.115  -3.689  24.960  0.00  0.00    +0.169 C 
ATOM      6  CA  UNL     1       5.351  -2.860  25.444  0.00  0.00    +0.191 C 
ATOM      7  C   UNL     1       5.352  -3.891  26.629  0.00  0.00    +0.244 C 
ATOM      8  O   UNL     1       5.934  -4.087  27.669  0.00  0.00    -0.273 OA
ATOM      9  N   UNL     1       4.455  -4.663  25.984  0.00  0.00    -0.249 N 
ATOM     10  CA  UNL     1       3.924  -5.920  26.077  0.00  0.00    +0.122 C 
ATOM     11  C   UNL     1       3.262  -6.441  25.003  0.00  0.00    -0.034 C 
ATOM     12  C   UNL     1       2.672  -7.837  24.971  0.00  0.00    +0.042 C 
ATOM     13  C   UNL     1       3.060  -5.731  23.678  0.00  0.00    +0.103 C 
ATOM     14  S   UNL     1       4.278  -4.449  23.328  0.00  0.00    -0.131 S 
BRANCH  10  15
ATOM     15  C   UNL     1       4.085  -6.754  27.340  0.00  0.00    +0.351 C 
ATOM     16  OXT UNL     1       3.203  -6.890  28.179  0.00  0.00    -0.244 OA
BRANCH  15  17
ATOM     17  O   UNL     1       5.293  -7.297  27.571  0.00  0.00    -0.476 OA
ATOM     18  H   UNL     1       5.344  -8.267  27.718  0.00  0.00    +0.295 HD
ENDBRANCH  15  17
ENDBRANCH  10  15
ENDBRANCH   1   6
BRANCH   3  19
ATOM     19  CA  UNL     1       8.856  -2.788  23.817  0.00  0.00    +0.168 C 
BRANCH  19  20
ATOM     20  C   UNL     1       9.271  -1.463  23.206  0.00  0.00    -0.022 A 
ATOM     21  C   UNL     1       8.938  -1.107  21.887  0.00  0.00    +0.009 A 
ATOM     22  C   UNL     1       9.303   0.137  21.369  0.00  0.00    +0.046 A 
ATOM     23  C   UNL     1      10.014   1.030  22.159  0.00  0.00    +0.117 A 
ATOM     24  C   UNL     1      10.394   0.688  23.452  0.00  0.00    +0.046 A 
ATOM     25  C   UNL     1      10.026  -0.557  23.970  0.00  0.00    +0.009 A 
BRANCH  23  26
ATOM     26  O   UNL     1      10.321   2.246  21.625  0.00  0.00    -0.507 OA
ATOM     27  H   UNL     1       9.494   2.707  21.412  0.00  0.00    +0.292 HD
ENDBRANCH  23  26
ENDBRANCH  19  20
BRANCH  19  28
ATOM     28  N   UNL     1      10.026  -3.550  24.341  0.00  0.00    -0.316 NA
ATOM     29  H1  UNL     1      10.792  -2.892  24.481  0.00  0.00    +0.119 HD
ATOM     30  H2  UNL     1       9.777  -3.884  25.274  0.00  0.00    +0.119 HD
ENDBRANCH  19  28
ENDBRANCH   3  19
TORSDOF 7
ENDMDL
MODEL 8
REMARK VINA RESULT:      -6.5      2.495      3.095
REMARK  Name = 
REMARK  8 active torsions:
REMARK  status: ('A' for Active; 'I' for Inactive)
REMARK    1  A    between atoms: C_5  and  C_6
REMARK    2  A    between atoms: CA_7  and  C_26
REMARK    3  A    between atoms: CA_11  and  N_13
REMARK    4  A    between atoms: C_14  and  CA_16
REMARK    5  A    between atoms: CA_16  and  N_18
REMARK    6  A    between atoms: CA_16  and  C_19
REMARK    7  A    between atoms: C_22  and  O_23
REMARK    8  A    between atoms: C_26  and  O_27
REMARK                            x       y       z     vdW  Elec       q    Type
REMARK                         _______ _______ _______ _____ _____    ______ ____
ROOT
ATOM      1  N   UNL     1       8.942   0.340  24.322  0.00  0.00    -0.300 N 
ATOM      2  H   UNL     1       8.025   0.647  23.991  0.00  0.00    +0.150 HD
ATOM      3  C   UNL     1       9.989   1.141  23.926  0.00  0.00    +0.235 C 
ATOM      4  O   UNL     1      11.155   0.924  24.241  0.00  0.00    -0.274 OA
ENDROOT
BRANCH   1   6
ATOM      5  C   UNL     1       7.740  -1.584  25.536  0.00  0.00    +0.169 C 
ATOM      6  CA  UNL     1       9.082  -0.892  25.127  0.00  0.00    +0.191 C 
ATOM      7  C   UNL     1       9.303  -2.211  24.303  0.00  0.00    +0.244 C 
ATOM      8  O   UNL     1      10.156  -2.734  23.628  0.00  0.00    -0.273 OA
ATOM      9  N   UNL     1       8.026  -2.583  24.520  0.00  0.00    -0.249 N 
ATOM     10  CA  UNL     1       7.132  -3.510  24.060  0.00  0.00    +0.122 C 
ATOM     11  C   UNL     1       5.803  -3.337  24.319  0.00  0.00    -0.034 C 
ATOM     12  C   UNL     1       4.717  -4.271  23.823  0.00  0.00    +0.042 C 
ATOM     13  C   UNL     1       5.213  -2.172  25.091  0.00  0.00    +0.103 C 
ATOM     14  S   UNL     1       6.235  -0.687  25.092  0.00  0.00    -0.131 S 
BRANCH  10  15
ATOM     15  C   UNL     1       7.590  -4.710  23.242  0.00  0.00    +0.351 C 
ATOM     16  OXT UNL     1       8.228  -5.645  23.708  0.00  0.00    -0.244 OA
BRANCH  15  17
ATOM     17  O   UNL     1       7.340  -4.687  21.920  0.00  0.00    -0.476 OA
ATOM     18  H   UNL     1       7.345  -3.817  21.464  0.00  0.00    +0.295 HD
ENDBRANCH  15  17
ENDBRANCH  10  15
ENDBRANCH   1   6
BRANCH   3  19
ATOM     19  CA  UNL     1       9.538   2.337  23.052  0.00  0.00    +0.168 C 
BRANCH  19  20
ATOM     20  C   UNL     1       9.457   3.621  23.858  0.00  0.00    -0.022 A 
ATOM     21  C   UNL     1       8.426   3.861  24.784  0.00  0.00    +0.009 A 
ATOM     22  C   UNL     1       8.403   5.037  25.537  0.00  0.00    +0.046 A 
ATOM     23  C   UNL     1       9.400   5.987  25.361  0.00  0.00    +0.117 A 
ATOM     24  C   UNL     1      10.407   5.794  24.422  0.00  0.00    +0.046 A 
ATOM     25  C   UNL     1      10.431   4.616  23.671  0.00  0.00    +0.009 A 
BRANCH  23  26
ATOM     26  O   UNL     1       9.357   7.104  26.140  0.00  0.00    -0.507 OA
ATOM     27  H   UNL     1       9.044   6.853  27.024  0.00  0.00    +0.292 HD
ENDBRANCH  23  26
ENDBRANCH  19  20
BRANCH  19  28
ATOM     28  N   UNL     1      10.454   2.471  21.883  0.00  0.00    -0.316 NA
ATOM     29  H1  UNL     1      11.311   2.921  22.205  0.00  0.00    +0.119 HD
ATOM     30  H2  UNL     1      10.728   1.529  21.602  0.00  0.00    +0.119 HD
ENDBRANCH  19  28
ENDBRANCH   3  19
TORSDOF 7
ENDMDL
MODEL 9
REMARK VINA RESULT:      -6.4      2.024      2.618
REMARK  Name = 
REMARK  8 active torsions:
REMARK  status: ('A' for Active; 'I' for Inactive)
REMARK    1  A    between atoms: C_5  and  C_6
REMARK    2  A    between atoms: CA_7  and  C_26
REMARK    3  A    between atoms: CA_11  and  N_13
REMARK    4  A    between atoms: C_14  and  CA_16
REMARK    5  A    between atoms: CA_16  and  N_18
REMARK    6  A    between atoms: CA_16  and  C_19
REMARK    7  A    between atoms: C_22  and  O_23
REMARK    8  A    between atoms: C_26  and  O_27
REMARK                            x       y       z     vdW  Elec       q    Type
REMARK                         _______ _______ _______ _____ _____    ______ ____
ROOT
ATOM      1  N   UNL     1       7.920  -2.641  23.478  0.00  0.00    -0.300 N 
ATOM      2  H   UNL     1       7.048  -2.281  23.085  0.00  0.00    +0.150 HD
ATOM      3  C   UNL     1       9.040  -1.913  23.148  0.00  0.00    +0.235 C 
ATOM      4  O   UNL     1      10.166  -2.199  23.540  0.00  0.00    -0.274 OA
ENDROOT
BRANCH   1   6
ATOM      5  C   UNL     1       6.820  -3.952  25.400  0.00  0.00    +0.169 C 
ATOM      6  CA  UNL     1       7.927  -3.871  24.298  0.00  0.00    +0.191 C 
ATOM      7  C   UNL     1       7.154  -5.092  23.684  0.00  0.00    +0.244 C 
ATOM      8  O   UNL     1       7.263  -5.878  22.773  0.00  0.00    -0.273 OA
ATOM      9  N   UNL     1       6.131  -4.899  24.538  0.00  0.00    -0.249 N 
ATOM     10  CA  UNL     1       4.840  -5.318  24.710  0.00  0.00    +0.122 C 
ATOM     11  C   UNL     1       4.019  -4.613  25.542  0.00  0.00    -0.034 C 
ATOM     12  C   UNL     1       2.560  -4.954  25.776  0.00  0.00    +0.042 C 
ATOM     13  C   UNL     1       4.420  -3.369  26.312  0.00  0.00    +0.103 C 
ATOM     14  S   UNL     1       5.807  -2.467  25.595  0.00  0.00    -0.131 S 
BRANCH  10  15
ATOM     15  C   UNL     1       4.300  -6.534  23.970  0.00  0.00    +0.351 C 
ATOM     16  OXT UNL     1       4.154  -7.633  24.488  0.00  0.00    -0.244 OA
BRANCH  15  17
ATOM     17  O   UNL     1       4.051  -6.395  22.656  0.00  0.00    -0.476 OA
ATOM     18  H   UNL     1       4.007  -7.206  22.105  0.00  0.00    +0.295 HD
ENDBRANCH  15  17
ENDBRANCH  10  15
ENDBRANCH   1   6
BRANCH   3  19
ATOM     19  CA  UNL     1       8.725  -0.699  22.238  0.00  0.00    +0.168 C 
BRANCH  19  20
ATOM     20  C   UNL     1       8.826   0.611  22.996  0.00  0.00    -0.022 A 
ATOM     21  C   UNL     1       9.571   1.702  22.514  0.00  0.00    +0.009 A 
ATOM     22  C   UNL     1       9.611   2.907  23.219  0.00  0.00    +0.046 A 
ATOM     23  C   UNL     1       8.919   3.027  24.417  0.00  0.00    +0.117 A 
ATOM     24  C   UNL     1       8.210   1.951  24.938  0.00  0.00    +0.046 A 
ATOM     25  C   UNL     1       8.168   0.746  24.230  0.00  0.00    +0.009 A 
BRANCH  23  26
ATOM     26  O   UNL     1       8.959   4.230  25.055  0.00  0.00    -0.507 OA
ATOM     27  H   UNL     1       8.146   4.718  24.845  0.00  0.00    +0.292 HD
ENDBRANCH  23  26
ENDBRANCH  19  20
BRANCH  19  28
ATOM     28  N   UNL     1       9.623  -0.724  21.048  0.00  0.00    -0.316 NA
ATOM     29  H1  UNL     1       9.397  -1.555  20.501  0.00  0.00    +0.119 HD
ATOM     30  H2  UNL     1       9.368   0.070  20.459  0.00  0.00    +0.119 HD
ENDBRANCH  19  28
ENDBRANCH   3  19
TORSDOF 7
ENDMDL
