MODEL 1
REMARK VINA RESULT:      -6.7      0.000      0.000
REMARK  Name = 
REMARK  9 active torsions:
REMARK  status: ('A' for Active; 'I' for Inactive)
REMARK    1  A    between atoms: C_1  and  C_2
REMARK    2  A    between atoms: C_2  and  N_3
REMARK    3  A    between atoms: N_3  and  C_4
REMARK    4  A    between atoms: N_3  and  S_6
REMARK    5  A    between atoms: C_4  and  C_5
REMARK    6  A    between atoms: S_6  and  C_9
REMARK    7  A    between atoms: C_14  and  C_16
REMARK    8  A    between atoms: N_18  and  C_19
REMARK    9  A    between atoms: C_20  and  C_21
REMARK                            x       y       z     vdW  Elec       q    Type
REMARK                         _______ _______ _______ _____ _____    ______ ____
ROOT
ATOM      1  C   UNL     1       7.625  -3.240  22.819  0.00  0.00    +0.106 A 
ATOM      2  C   UNL     1       7.604  -1.897  22.428  0.00  0.00    +0.043 A 
ATOM      3  C   UNL     1       8.469  -0.955  23.035  0.00  0.00    +0.057 A 
ATOM      4  C   UNL     1       9.350  -1.398  24.031  0.00  0.00    +0.053 A 
ATOM      5 CL   UNL     1      10.388  -0.344  24.926  0.00  0.00    -0.083 Cl
ATOM      6  C   UNL     1       9.383  -2.756  24.392  0.00  0.00    +0.022 A 
ATOM      7  C   UNL     1       8.527  -3.679  23.786  0.00  0.00    +0.030 A 
ENDROOT
BRANCH   3   8
ATOM      8  C   UNL     1       8.296   0.468  22.601  0.00  0.00    +0.250 C 
ATOM      9  N   UNL     1       7.754   1.360  23.518  0.00  0.00    -0.275 N 
ATOM     10  H   UNL     1       7.580   1.024  24.459  0.00  0.00    +0.156 HD
ATOM     11  O   UNL     1       8.705   0.740  21.476  0.00  0.00    -0.270 OA
BRANCH   9  12
ATOM     12  C   UNL     1       7.488   2.711  23.280  0.00  0.00    +0.090 A 
ATOM     13  S   UNL     1       5.867   3.250  23.043  0.00  0.00    -0.077 S 
ATOM     14  C   UNL     1       6.374   4.813  22.792  0.00  0.00    -0.004 A 
ATOM     15  C   UNL     1       5.622   6.036  22.432  0.00  0.00    +0.043 C 
ATOM     16  C   UNL     1       6.787   6.967  21.986  0.00  0.00    +0.010 C 
ATOM     17  C   UNL     1       8.088   6.408  22.653  0.00  0.00    +0.037 C 
ATOM     18  C   UNL     1       7.724   4.989  22.916  0.00  0.00    -0.018 A 
ATOM     19  C   UNL     1       8.390   3.776  23.236  0.00  0.00    +0.084 A 
BRANCH  19  20
ATOM     20  C   UNL     1       9.804   3.640  23.434  0.00  0.00    +0.102 C 
ATOM     21  N   UNL     1      10.947   3.515  23.609  0.00  0.00    -0.191 NA
ENDBRANCH  19  20
ENDBRANCH   9  12
ENDBRANCH   3   8
BRANCH   1  22
ATOM     22  S   UNL     1       6.505  -4.418  22.086  0.00  0.00    +0.061 S 
ATOM     23  O   UNL     1       5.688  -3.720  21.117  0.00  0.00    -0.153 OA
ATOM     24  O   UNL     1       7.304  -5.566  21.711  0.00  0.00    -0.153 OA
BRANCH  22  25
ATOM     25  N   UNL     1       5.486  -4.866  23.400  0.00  0.00    -0.177 NA
BRANCH  25  27
ATOM     26  C   UNL     1       4.606  -3.035  24.882  0.00  0.00    +0.022 C 
ATOM     27  C   UNL     1       4.366  -3.912  23.662  0.00  0.00    +0.106 C 
ENDBRANCH  25  27
BRANCH  25  28
ATOM     28  C   UNL     1       5.107  -6.314  23.407  0.00  0.00    +0.106 C 
ATOM     29  C   UNL     1       4.572  -6.802  24.742  0.00  0.00    +0.022 C 
ENDBRANCH  25  28
ENDBRANCH  22  25
ENDBRANCH   1  22
TORSDOF 7
ENDMDL
MODEL 2
REMARK VINA RESULT:      -6.4      3.389      8.663
REMARK  Name = 
REMARK  9 active torsions:
REMARK  status: ('A' for Active; 'I' for Inactive)
REMARK    1  A    between atoms: C_1  and  C_2
REMARK    2  A    between atoms: C_2  and  N_3
REMARK    3  A    between atoms: N_3  and  C_4
REMARK    4  A    between atoms: N_3  and  S_6
REMARK    5  A    between atoms: C_4  and  C_5
REMARK    6  A    between atoms: S_6  and  C_9
REMARK    7  A    between atoms: C_14  and  C_16
REMARK    8  A    between atoms: N_18  and  C_19
REMARK    9  A    between atoms: C_20  and  C_21
REMARK                            x       y       z     vdW  Elec       q    Type
REMARK                         _______ _______ _______ _____ _____    ______ ____
ROOT
ATOM      1  C   UNL     1       9.380   2.724  23.796  0.00  0.00    +0.106 A 
ATOM      2  C   UNL     1       9.055   1.714  24.709  0.00  0.00    +0.043 A 
ATOM      3  C   UNL     1       9.268   0.352  24.384  0.00  0.00    +0.057 A 
ATOM      4  C   UNL     1       9.815   0.039  23.132  0.00  0.00    +0.053 A 
ATOM      5 CL   UNL     1      10.033  -1.578  22.562  0.00  0.00    -0.083 Cl
ATOM      6  C   UNL     1      10.166   1.065  22.238  0.00  0.00    +0.022 A 
ATOM      7  C   UNL     1       9.955   2.406  22.568  0.00  0.00    +0.030 A 
ENDROOT
BRANCH   3   8
ATOM      8  C   UNL     1       8.800  -0.645  25.399  0.00  0.00    +0.250 C 
ATOM      9  N   UNL     1       7.828  -1.556  25.008  0.00  0.00    -0.275 N 
ATOM     10  H   UNL     1       7.543  -1.556  24.034  0.00  0.00    +0.156 HD
ATOM     11  O   UNL     1       9.364  -0.606  26.489  0.00  0.00    -0.270 OA
BRANCH   9  12
ATOM     12  C   UNL     1       7.249  -2.530  25.825  0.00  0.00    +0.090 A 
ATOM     13  S   UNL     1       5.793  -2.192  26.685  0.00  0.00    -0.077 S 
ATOM     14  C   UNL     1       5.804  -3.698  27.389  0.00  0.00    -0.004 A 
ATOM     15  C   UNL     1       4.906  -4.310  28.394  0.00  0.00    +0.043 C 
ATOM     16  C   UNL     1       5.766  -5.529  28.839  0.00  0.00    +0.010 C 
ATOM     17  C   UNL     1       6.780  -5.811  27.680  0.00  0.00    +0.037 C 
ATOM     18  C   UNL     1       6.837  -4.496  26.985  0.00  0.00    -0.018 A 
ATOM     19  C   UNL     1       7.675  -3.842  26.042  0.00  0.00    +0.084 A 
BRANCH  19  20
ATOM     20  C   UNL     1       8.837  -4.421  25.433  0.00  0.00    +0.102 C 
ATOM     21  N   UNL     1       9.792  -4.878  24.952  0.00  0.00    -0.191 NA
ENDBRANCH  19  20
ENDBRANCH   9  12
ENDBRANCH   3   8
BRANCH   1  22
ATOM     22  S   UNL     1       9.072   4.436  24.189  0.00  0.00    +0.061 S 
ATOM     23  O   UNL     1       8.397   4.491  25.468  0.00  0.00    -0.153 OA
ATOM     24  O   UNL     1      10.317   5.139  23.963  0.00  0.00    -0.153 OA
BRANCH  22  25
ATOM     25  N   UNL     1       7.943   4.921  22.982  0.00  0.00    -0.177 NA
BRANCH  25  27
ATOM     26  C   UNL     1       6.214   3.240  22.270  0.00  0.00    +0.022 C 
ATOM     27  C   UNL     1       6.558   4.400  23.192  0.00  0.00    +0.106 C 
ENDBRANCH  25  27
BRANCH  25  28
ATOM     28  C   UNL     1       8.032   6.369  22.615  0.00  0.00    +0.106 C 
ATOM     29  C   UNL     1       6.820   6.888  21.861  0.00  0.00    +0.022 C 
ENDBRANCH  25  28
ENDBRANCH  22  25
ENDBRANCH   1  22
TORSDOF 7
ENDMDL
MODEL 3
REMARK VINA RESULT:      -6.3      2.120      2.777
REMARK  Name = 
REMARK  9 active torsions:
REMARK  status: ('A' for Active; 'I' for Inactive)
REMARK    1  A    between atoms: C_1  and  C_2
REMARK    2  A    between atoms: C_2  and  N_3
REMARK    3  A    between atoms: N_3  and  C_4
REMARK    4  A    between atoms: N_3  and  S_6
REMARK    5  A    between atoms: C_4  and  C_5
REMARK    6  A    between atoms: S_6  and  C_9
REMARK    7  A    between atoms: C_14  and  C_16
REMARK    8  A    between atoms: N_18  and  C_19
REMARK    9  A    between atoms: C_20  and  C_21
REMARK                            x       y       z     vdW  Elec       q    Type
REMARK                         _______ _______ _______ _____ _____    ______ ____
ROOT
ATOM      1  C   UNL     1       5.397  -3.394  23.543  0.00  0.00    +0.106 A 
ATOM      2  C   UNL     1       5.764  -2.078  23.844  0.00  0.00    +0.043 A 
ATOM      3  C   UNL     1       6.967  -1.531  23.336  0.00  0.00    +0.057 A 
ATOM      4  C   UNL     1       7.779  -2.334  22.522  0.00  0.00    +0.053 A 
ATOM      5 CL   UNL     1       9.319  -1.834  21.919  0.00  0.00    -0.083 Cl
ATOM      6  C   UNL     1       7.381  -3.644  22.202  0.00  0.00    +0.022 A 
ATOM      7  C   UNL     1       6.192  -4.175  22.706  0.00  0.00    +0.030 A 
ENDROOT
BRANCH   3   8
ATOM      8  C   UNL     1       7.303  -0.146  23.796  0.00  0.00    +0.250 C 
ATOM      9  N   UNL     1       7.581   0.807  22.825  0.00  0.00    -0.275 N 
ATOM     10  H   UNL     1       7.463   0.541  21.853  0.00  0.00    +0.156 HD
ATOM     11  O   UNL     1       7.249   0.045  25.008  0.00  0.00    -0.270 OA
BRANCH   9  12
ATOM     12  C   UNL     1       7.946   2.134  23.066  0.00  0.00    +0.090 A 
ATOM     13  S   UNL     1       6.842   3.416  22.729  0.00  0.00    -0.077 S 
ATOM     14  C   UNL     1       7.955   4.559  23.195  0.00  0.00    -0.004 A 
ATOM     15  C   UNL     1       7.897   6.038  23.180  0.00  0.00    +0.043 C 
ATOM     16  C   UNL     1       9.404   6.384  23.365  0.00  0.00    +0.010 C 
ATOM     17  C   UNL     1      10.075   5.130  24.020  0.00  0.00    +0.037 C 
ATOM     18  C   UNL     1       9.135   4.038  23.646  0.00  0.00    -0.018 A 
ATOM     19  C   UNL     1       9.136   2.618  23.612  0.00  0.00    +0.084 A 
BRANCH  19  20
ATOM     20  C   UNL     1      10.228   1.785  24.025  0.00  0.00    +0.102 C 
ATOM     21  N   UNL     1      11.128   1.123  24.348  0.00  0.00    -0.191 NA
ENDBRANCH  19  20
ENDBRANCH   9  12
ENDBRANCH   3   8
BRANCH   1  22
ATOM     22  S   UNL     1       3.904  -4.097  24.217  0.00  0.00    +0.061 S 
ATOM     23  O   UNL     1       3.187  -3.051  24.914  0.00  0.00    -0.153 OA
ATOM     24  O   UNL     1       3.285  -4.851  23.148  0.00  0.00    -0.153 OA
BRANCH  22  25
ATOM     25  N   UNL     1       4.487  -5.205  25.400  0.00  0.00    -0.177 NA
BRANCH  25  27
ATOM     26  C   UNL     1       3.547  -7.534  25.258  0.00  0.00    +0.022 C 
ATOM     27  C   UNL     1       4.689  -6.597  24.892  0.00  0.00    +0.106 C 
ENDBRANCH  25  27
BRANCH  25  28
ATOM     28  C   UNL     1       5.601  -4.665  26.241  0.00  0.00    +0.106 C 
ATOM     29  C   UNL     1       6.877  -5.485  26.171  0.00  0.00    +0.022 C 
ENDBRANCH  25  28
ENDBRANCH  22  25
ENDBRANCH   1  22
TORSDOF 7
ENDMDL
MODEL 4
REMARK VINA RESULT:      -6.3      2.459      3.425
REMARK  Name = 
REMARK  9 active torsions:
REMARK  status: ('A' for Active; 'I' for Inactive)
REMARK    1  A    between atoms: C_1  and  C_2
REMARK    2  A    between atoms: C_2  and  N_3
REMARK    3  A    between atoms: N_3  and  C_4
REMARK    4  A    between atoms: N_3  and  S_6
REMARK    5  A    between atoms: C_4  and  C_5
REMARK    6  A    between atoms: S_6  and  C_9
REMARK    7  A    between atoms: C_14  and  C_16
REMARK    8  A    between atoms: N_18  and  C_19
REMARK    9  A    between atoms: C_20  and  C_21
REMARK                            x       y       z     vdW  Elec       q    Type
REMARK                         _______ _______ _______ _____ _____    ______ ____
ROOT
ATOM      1  C   UNL     1       5.765  -2.714  23.915  0.00  0.00    +0.106 A 
ATOM      2  C   UNL     1       6.527  -1.596  23.555  0.00  0.00    +0.043 A 
ATOM      3  C   UNL     1       6.435  -0.393  24.296  0.00  0.00    +0.057 A 
ATOM      4  C   UNL     1       5.571  -0.347  25.398  0.00  0.00    +0.053 A 
ATOM      5 CL   UNL     1       5.284   1.081  26.328  0.00  0.00    -0.083 Cl
ATOM      6  C   UNL     1       4.837  -1.487  25.767  0.00  0.00    +0.022 A 
ATOM      7  C   UNL     1       4.934  -2.671  25.033  0.00  0.00    +0.030 A 
ENDROOT
BRANCH   3   8
ATOM      8  C   UNL     1       7.227   0.763  23.766  0.00  0.00    +0.250 C 
ATOM      9  N   UNL     1       8.240   1.273  24.568  0.00  0.00    -0.275 N 
ATOM     10  H   UNL     1       8.448   0.787  25.434  0.00  0.00    +0.156 HD
ATOM     11  O   UNL     1       6.945   1.131  22.629  0.00  0.00    -0.270 OA
BRANCH   9  12
ATOM     12  C   UNL     1       9.053   2.365  24.256  0.00  0.00    +0.090 A 
ATOM     13  S   UNL     1      10.648   2.117  23.646  0.00  0.00    -0.077 S 
ATOM     14  C   UNL     1      10.932   3.753  23.591  0.00  0.00    -0.004 A 
ATOM     15  C   UNL     1      12.145   4.521  23.229  0.00  0.00    +0.043 C 
ATOM     16  C   UNL     1      11.777   5.922  23.799  0.00  0.00    +0.010 C 
ATOM     17  C   UNL     1      10.216   5.964  23.914  0.00  0.00    +0.037 C 
ATOM     18  C   UNL     1       9.865   4.519  23.973  0.00  0.00    -0.018 A 
ATOM     19  C   UNL     1       8.744   3.724  24.332  0.00  0.00    +0.084 A 
BRANCH  19  20
ATOM     20  C   UNL     1       7.478   4.237  24.770  0.00  0.00    +0.102 C 
ATOM     21  N   UNL     1       6.459   4.652  25.147  0.00  0.00    -0.191 NA
ENDBRANCH  19  20
ENDBRANCH   9  12
ENDBRANCH   3   8
BRANCH   1  22
ATOM     22  S   UNL     1       5.847  -4.216  22.957  0.00  0.00    +0.061 S 
ATOM     23  O   UNL     1       4.501  -4.576  22.567  0.00  0.00    -0.153 OA
ATOM     24  O   UNL     1       6.891  -4.019  21.974  0.00  0.00    -0.153 OA
BRANCH  22  25
ATOM     25  N   UNL     1       6.388  -5.385  24.101  0.00  0.00    -0.177 NA
BRANCH  25  27
ATOM     26  C   UNL     1       8.830  -5.223  24.679  0.00  0.00    +0.022 C 
ATOM     27  C   UNL     1       7.402  -4.872  25.071  0.00  0.00    +0.106 C 
ENDBRANCH  25  27
BRANCH  25  28
ATOM     28  C   UNL     1       5.287  -6.202  24.700  0.00  0.00    +0.106 C 
ATOM     29  C   UNL     1       5.329  -6.273  26.217  0.00  0.00    +0.022 C 
ENDBRANCH  25  28
ENDBRANCH  22  25
ENDBRANCH   1  22
TORSDOF 7
ENDMDL
MODEL 5
REMARK VINA RESULT:      -6.2      3.948      5.717
REMARK  Name = 
REMARK  9 active torsions:
REMARK  status: ('A' for Active; 'I' for Inactive)
REMARK    1  A    between atoms: C_1  and  C_2
REMARK    2  A    between atoms: C_2  and  N_3
REMARK    3  A    between atoms: N_3  and  C_4
REMARK    4  A    between atoms: N_3  and  S_6
REMARK    5  A    between atoms: C_4  and  C_5
REMARK    6  A    between atoms: S_6  and  C_9
REMARK    7  A    between atoms: C_14  and  C_16
REMARK    8  A    between atoms: N_18  and  C_19
REMARK    9  A    between atoms: C_20  and  C_21
REMARK                            x       y       z     vdW  Elec       q    Type
REMARK                         _______ _______ _______ _____ _____    ______ ____
ROOT
ATOM      1  C   UNL     1       5.518  -5.937  26.713  0.00  0.00    +0.106 A 
ATOM      2  C   UNL     1       6.320  -4.905  26.211  0.00  0.00    +0.043 A 
ATOM      3  C   UNL     1       6.400  -4.669  24.817  0.00  0.00    +0.057 A 
ATOM      4  C   UNL     1       5.656  -5.485  23.954  0.00  0.00    +0.053 A 
ATOM      5 CL   UNL     1       5.737  -5.377  22.231  0.00  0.00    -0.083 Cl
ATOM      6  C   UNL     1       4.831  -6.497  24.475  0.00  0.00    +0.022 A 
ATOM      7  C   UNL     1       4.756  -6.722  25.851  0.00  0.00    +0.030 A 
ENDROOT
BRANCH   3   8
ATOM      8  C   UNL     1       7.357  -3.599  24.388  0.00  0.00    +0.250 C 
ATOM      9  N   UNL     1       6.927  -2.280  24.465  0.00  0.00    -0.275 N 
ATOM     10  H   UNL     1       6.020  -2.102  24.884  0.00  0.00    +0.156 HD
ATOM     11  O   UNL     1       8.474  -3.981  24.053  0.00  0.00    -0.270 OA
BRANCH   9  12
ATOM     12  C   UNL     1       7.665  -1.160  24.078  0.00  0.00    +0.090 A 
ATOM     13  S   UNL     1       8.133  -0.953  22.430  0.00  0.00    -0.077 S 
ATOM     14  C   UNL     1       8.942   0.454  22.788  0.00  0.00    -0.004 A 
ATOM     15  C   UNL     1       9.759   1.352  21.940  0.00  0.00    +0.043 C 
ATOM     16  C   UNL     1      10.491   2.187  23.031  0.00  0.00    +0.010 C 
ATOM     17  C   UNL     1       9.626   2.083  24.332  0.00  0.00    +0.037 C 
ATOM     18  C   UNL     1       8.857   0.830  24.100  0.00  0.00    -0.018 A 
ATOM     19  C   UNL     1       8.083  -0.084  24.864  0.00  0.00    +0.084 A 
BRANCH  19  20
ATOM     20  C   UNL     1       7.810   0.040  26.266  0.00  0.00    +0.102 C 
ATOM     21  N   UNL     1       7.571   0.154  27.398  0.00  0.00    -0.191 NA
ENDBRANCH  19  20
ENDBRANCH   9  12
ENDBRANCH   3   8
BRANCH   1  22
ATOM     22  S   UNL     1       5.451  -6.262  28.465  0.00  0.00    +0.061 S 
ATOM     23  O   UNL     1       5.700  -7.673  28.672  0.00  0.00    -0.153 OA
ATOM     24  O   UNL     1       6.267  -5.251  29.103  0.00  0.00    -0.153 OA
BRANCH  22  25
ATOM     25  N   UNL     1       3.801  -5.962  28.860  0.00  0.00    -0.177 NA
BRANCH  25  27
ATOM     26  C   UNL     1       1.869  -7.572  28.869  0.00  0.00    +0.022 C 
ATOM     27  C   UNL     1       3.126  -7.087  29.576  0.00  0.00    +0.106 C 
ENDBRANCH  25  27
BRANCH  25  28
ATOM     28  C   UNL     1       3.552  -4.601  29.430  0.00  0.00    +0.106 C 
ATOM     29  C   UNL     1       3.166  -3.561  28.393  0.00  0.00    +0.022 C 
ENDBRANCH  25  28
ENDBRANCH  22  25
ENDBRANCH   1  22
TORSDOF 7
ENDMDL
MODEL 6
REMARK VINA RESULT:      -6.1      2.529      8.770
REMARK  Name = 
REMARK  9 active torsions:
REMARK  status: ('A' for Active; 'I' for Inactive)
REMARK    1  A    between atoms: C_1  and  C_2
REMARK    2  A    between atoms: C_2  and  N_3
REMARK    3  A    between atoms: N_3  and  C_4
REMARK    4  A    between atoms: N_3  and  S_6
REMARK    5  A    between atoms: C_4  and  C_5
REMARK    6  A    between atoms: S_6  and  C_9
REMARK    7  A    between atoms: C_14  and  C_16
REMARK    8  A    between atoms: N_18  and  C_19
REMARK    9  A    between atoms: C_20  and  C_21
REMARK                            x       y       z     vdW  Elec       q    Type
REMARK                         _______ _______ _______ _____ _____    ______ ____
ROOT
ATOM      1  C   UNL     1       8.513   2.212  23.808  0.00  0.00    +0.106 A 
ATOM      2  C   UNL     1       8.151   0.959  24.314  0.00  0.00    +0.043 A 
ATOM      3  C   UNL     1       8.768  -0.220  23.831  0.00  0.00    +0.057 A 
ATOM      4  C   UNL     1       9.753  -0.105  22.840  0.00  0.00    +0.053 A 
ATOM      5 CL   UNL     1      10.515  -1.461  22.088  0.00  0.00    -0.083 Cl
ATOM      6  C   UNL     1      10.130   1.163  22.364  0.00  0.00    +0.022 A 
ATOM      7  C   UNL     1       9.517   2.321  22.847  0.00  0.00    +0.030 A 
ENDROOT
BRANCH   3   8
ATOM      8  C   UNL     1       8.238  -1.509  24.380  0.00  0.00    +0.250 C 
ATOM      9  N   UNL     1       6.903  -1.811  24.141  0.00  0.00    -0.275 N 
ATOM     10  H   UNL     1       6.377  -1.187  23.539  0.00  0.00    +0.156 HD
ATOM     11  O   UNL     1       9.054  -2.224  24.954  0.00  0.00    -0.270 OA
BRANCH   9  12
ATOM     12  C   UNL     1       6.230  -2.945  24.602  0.00  0.00    +0.090 A 
ATOM     13  S   UNL     1       5.960  -3.170  26.291  0.00  0.00    -0.077 S 
ATOM     14  C   UNL     1       5.222  -4.635  26.025  0.00  0.00    -0.004 A 
ATOM     15  C   UNL     1       4.687  -5.643  26.969  0.00  0.00    +0.043 C 
ATOM     16  C   UNL     1       4.542  -6.871  26.023  0.00  0.00    +0.010 C 
ATOM     17  C   UNL     1       4.465  -6.308  24.565  0.00  0.00    +0.037 C 
ATOM     18  C   UNL     1       5.116  -4.976  24.706  0.00  0.00    -0.018 A 
ATOM     19  C   UNL     1       5.669  -3.982  23.855  0.00  0.00    +0.084 A 
BRANCH  19  20
ATOM     20  C   UNL     1       5.704  -4.051  22.423  0.00  0.00    +0.102 C 
ATOM     21  N   UNL     1       5.733  -4.129  21.263  0.00  0.00    -0.191 NA
ENDBRANCH  19  20
ENDBRANCH   9  12
ENDBRANCH   3   8
BRANCH   1  22
ATOM     22  S   UNL     1       7.705   3.693  24.385  0.00  0.00    +0.061 S 
ATOM     23  O   UNL     1       6.277   3.512  24.243  0.00  0.00    -0.153 OA
ATOM     24  O   UNL     1       8.302   4.015  25.664  0.00  0.00    -0.153 OA
BRANCH  22  25
ATOM     25  N   UNL     1       8.195   4.883  23.239  0.00  0.00    -0.177 NA
BRANCH  25  27
ATOM     26  C   UNL     1       7.152   6.697  21.845  0.00  0.00    +0.022 C 
ATOM     27  C   UNL     1       7.153   5.223  22.223  0.00  0.00    +0.106 C 
ENDBRANCH  25  27
BRANCH  25  28
ATOM     28  C   UNL     1       8.903   6.054  23.845  0.00  0.00    +0.106 C 
ATOM     29  C   UNL     1      10.413   6.004  23.695  0.00  0.00    +0.022 C 
ENDBRANCH  25  28
ENDBRANCH  22  25
ENDBRANCH   1  22
TORSDOF 7
ENDMDL
MODEL 7
REMARK VINA RESULT:      -6.0      2.616      8.486
REMARK  Name = 
REMARK  9 active torsions:
REMARK  status: ('A' for Active; 'I' for Inactive)
REMARK    1  A    between atoms: C_1  and  C_2
REMARK    2  A    between atoms: C_2  and  N_3
REMARK    3  A    between atoms: N_3  and  C_4
REMARK    4  A    between atoms: N_3  and  S_6
REMARK    5  A    between atoms: C_4  and  C_5
REMARK    6  A    between atoms: S_6  and  C_9
REMARK    7  A    between atoms: C_14  and  C_16
REMARK    8  A    between atoms: N_18  and  C_19
REMARK    9  A    between atoms: C_20  and  C_21
REMARK                            x       y       z     vdW  Elec       q    Type
REMARK                         _______ _______ _______ _____ _____    ______ ____
ROOT
ATOM      1  C   UNL     1       8.857   1.598  24.616  0.00  0.00    +0.106 A 
ATOM      2  C   UNL     1       7.932   0.577  24.865  0.00  0.00    +0.043 A 
ATOM      3  C   UNL     1       8.299  -0.781  24.709  0.00  0.00    +0.057 A 
ATOM      4  C   UNL     1       9.608  -1.081  24.305  0.00  0.00    +0.053 A 
ATOM      5 CL   UNL     1      10.162  -2.685  23.977  0.00  0.00    -0.083 Cl
ATOM      6  C   UNL     1      10.535  -0.047  24.090  0.00  0.00    +0.022 A 
ATOM      7  C   UNL     1      10.165   1.291  24.248  0.00  0.00    +0.030 A 
ENDROOT
BRANCH   3   8
ATOM      8  C   UNL     1       7.205  -1.784  24.915  0.00  0.00    +0.250 C 
ATOM      9  N   UNL     1       7.244  -2.946  24.156  0.00  0.00    -0.275 N 
ATOM     10  H   UNL     1       8.052  -3.097  23.561  0.00  0.00    +0.156 HD
ATOM     11  O   UNL     1       6.387  -1.513  25.789  0.00  0.00    -0.270 OA
BRANCH   9  12
ATOM     12  C   UNL     1       6.295  -3.971  24.187  0.00  0.00    +0.090 A 
ATOM     13  S   UNL     1       5.057  -4.047  22.988  0.00  0.00    -0.077 S 
ATOM     14  C   UNL     1       4.383  -5.388  23.702  0.00  0.00    -0.004 A 
ATOM     15  C   UNL     1       3.164  -6.160  23.372  0.00  0.00    +0.043 C 
ATOM     16  C   UNL     1       2.979  -6.977  24.684  0.00  0.00    +0.010 C 
ATOM     17  C   UNL     1       4.378  -7.022  25.385  0.00  0.00    +0.037 C 
ATOM     18  C   UNL     1       5.062  -5.837  24.800  0.00  0.00    -0.018 A 
ATOM     19  C   UNL     1       6.205  -5.041  25.079  0.00  0.00    +0.084 A 
BRANCH  19  20
ATOM     20  C   UNL     1       7.119  -5.262  26.162  0.00  0.00    +0.102 C 
ATOM     21  N   UNL     1       7.845  -5.457  27.049  0.00  0.00    -0.191 NA
ENDBRANCH  19  20
ENDBRANCH   9  12
ENDBRANCH   3   8
BRANCH   1  22
ATOM     22  S   UNL     1       8.382   3.310  24.771  0.00  0.00    +0.061 S 
ATOM     23  O   UNL     1       7.853   3.512  26.103  0.00  0.00    -0.153 OA
ATOM     24  O   UNL     1       9.495   4.091  24.274  0.00  0.00    -0.153 OA
BRANCH  22  25
ATOM     25  N   UNL     1       7.073   3.459  23.662  0.00  0.00    -0.177 NA
BRANCH  25  27
ATOM     26  C   UNL     1       5.389   5.157  22.884  0.00  0.00    +0.022 C 
ATOM     27  C   UNL     1       6.033   4.453  24.069  0.00  0.00    +0.106 C 
ENDBRANCH  25  27
BRANCH  25  28
ATOM     28  C   UNL     1       7.496   3.528  22.228  0.00  0.00    +0.106 C 
ATOM     29  C   UNL     1       7.607   2.172  21.553  0.00  0.00    +0.022 C 
ENDBRANCH  25  28
ENDBRANCH  22  25
ENDBRANCH   1  22
TORSDOF 7
ENDMDL
MODEL 8
REMARK VINA RESULT:      -5.9      3.371      8.912
REMARK  Name = 
REMARK  9 active torsions:
REMARK  status: ('A' for Active; 'I' for Inactive)
REMARK    1  A    between atoms: C_1  and  C_2
REMARK    2  A    between atoms: C_2  and  N_3
REMARK    3  A    between atoms: N_3  and  C_4
REMARK    4  A    between atoms: N_3  and  S_6
REMARK    5  A    between atoms: C_4  and  C_5
REMARK    6  A    between atoms: S_6  and  C_9
REMARK    7  A    between atoms: C_14  and  C_16
REMARK    8  A    between atoms: N_18  and  C_19
REMARK    9  A    between atoms: C_20  and  C_21
REMARK                            x       y       z     vdW  Elec       q    Type
REMARK                         _______ _______ _______ _____ _____    ______ ____
ROOT
ATOM      1  C   UNL     1       8.734   2.704  23.551  0.00  0.00    +0.106 A 
ATOM      2  C   UNL     1       8.440   1.686  24.466  0.00  0.00    +0.043 A 
ATOM      3  C   UNL     1       8.945   0.377  24.275  0.00  0.00    +0.057 A 
ATOM      4  C   UNL     1       9.749   0.125  23.155  0.00  0.00    +0.053 A 
ATOM      5 CL   UNL     1      10.347  -1.443  22.743  0.00  0.00    -0.083 Cl
ATOM      6  C   UNL     1      10.062   1.164  22.262  0.00  0.00    +0.022 A 
ATOM      7  C   UNL     1       9.561   2.453  22.459  0.00  0.00    +0.030 A 
ENDROOT
BRANCH   3   8
ATOM      8  C   UNL     1       8.492  -0.651  25.266  0.00  0.00    +0.250 C 
ATOM      9  N   UNL     1       7.479  -1.519  24.878  0.00  0.00    -0.275 N 
ATOM     10  H   UNL     1       7.155  -1.468  23.918  0.00  0.00    +0.156 HD
ATOM     11  O   UNL     1       9.101  -0.674  26.331  0.00  0.00    -0.270 OA
BRANCH   9  12
ATOM     12  C   UNL     1       6.908  -2.512  25.676  0.00  0.00    +0.090 A 
ATOM     13  S   UNL     1       5.804  -2.091  26.933  0.00  0.00    -0.077 S 
ATOM     14  C   UNL     1       5.648  -3.681  27.392  0.00  0.00    -0.004 A 
ATOM     15  C   UNL     1       4.897  -4.304  28.506  0.00  0.00    +0.043 C 
ATOM     16  C   UNL     1       5.548  -5.719  28.531  0.00  0.00    +0.010 C 
ATOM     17  C   UNL     1       6.176  -5.950  27.116  0.00  0.00    +0.037 C 
ATOM     18  C   UNL     1       6.357  -4.558  26.620  0.00  0.00    -0.018 A 
ATOM     19  C   UNL     1       7.073  -3.896  25.588  0.00  0.00    +0.084 A 
BRANCH  19  20
ATOM     20  C   UNL     1       7.904  -4.545  24.615  0.00  0.00    +0.102 C 
ATOM     21  N   UNL     1       8.572  -5.091  23.836  0.00  0.00    -0.191 NA
ENDBRANCH  19  20
ENDBRANCH   9  12
ENDBRANCH   3   8
BRANCH   1  22
ATOM     22  S   UNL     1       8.063   4.342  23.768  0.00  0.00    +0.061 S 
ATOM     23  O   UNL     1       7.904   4.940  22.460  0.00  0.00    -0.153 OA
ATOM     24  O   UNL     1       6.945   4.210  24.678  0.00  0.00    -0.153 OA
BRANCH  22  25
ATOM     25  N   UNL     1       9.329   5.184  24.576  0.00  0.00    -0.177 NA
BRANCH  25  27
ATOM     26  C   UNL     1      11.635   5.373  23.591  0.00  0.00    +0.022 C 
ATOM     27  C   UNL     1      10.231   5.955  23.668  0.00  0.00    +0.106 C 
ENDBRANCH  25  27
BRANCH  25  28
ATOM     28  C   UNL     1       8.885   5.914  25.805  0.00  0.00    +0.106 C 
ATOM     29  C   UNL     1       9.808   7.049  26.213  0.00  0.00    +0.022 C 
ENDBRANCH  25  28
ENDBRANCH  22  25
ENDBRANCH   1  22
TORSDOF 7
ENDMDL
MODEL 9
REMARK VINA RESULT:      -5.9      2.856      8.550
REMARK  Name = 
REMARK  9 active torsions:
REMARK  status: ('A' for Active; 'I' for Inactive)
REMARK    1  A    between atoms: C_1  and  C_2
REMARK    2  A    between atoms: C_2  and  N_3
REMARK    3  A    between atoms: N_3  and  C_4
REMARK    4  A    between atoms: N_3  and  S_6
REMARK    5  A    between atoms: C_4  and  C_5
REMARK    6  A    between atoms: S_6  and  C_9
REMARK    7  A    between atoms: C_14  and  C_16
REMARK    8  A    between atoms: N_18  and  C_19
REMARK    9  A    between atoms: C_20  and  C_21
REMARK                            x       y       z     vdW  Elec       q    Type
REMARK                         _______ _______ _______ _____ _____    ______ ____
ROOT
ATOM      1  C   UNL     1       9.149   2.418  23.532  0.00  0.00    +0.106 A 
ATOM      2  C   UNL     1       8.725   1.347  24.327  0.00  0.00    +0.043 A 
ATOM      3  C   UNL     1       8.836   0.015  23.860  0.00  0.00    +0.057 A 
ATOM      4  C   UNL     1       9.385  -0.208  22.590  0.00  0.00    +0.053 A 
ATOM      5 CL   UNL     1       9.487  -1.768  21.854  0.00  0.00    -0.083 Cl
ATOM      6  C   UNL     1       9.836   0.875  21.816  0.00  0.00    +0.022 A 
ATOM      7  C   UNL     1       9.724   2.186  22.284  0.00  0.00    +0.030 A 
ENDROOT
BRANCH   3   8
ATOM      8  C   UNL     1       8.268  -1.042  24.756  0.00  0.00    +0.250 C 
ATOM      9  N   UNL     1       7.204  -1.793  24.274  0.00  0.00    -0.275 N 
ATOM     10  H   UNL     1       6.918  -1.646  23.312  0.00  0.00    +0.156 HD
ATOM     11  O   UNL     1       8.836  -1.194  25.834  0.00  0.00    -0.270 OA
BRANCH   9  12
ATOM     12  C   UNL     1       6.527  -2.792  24.977  0.00  0.00    +0.090 A 
ATOM     13  S   UNL     1       7.072  -4.428  24.907  0.00  0.00    -0.077 S 
ATOM     14  C   UNL     1       5.818  -4.936  25.873  0.00  0.00    -0.004 A 
ATOM     15  C   UNL     1       5.420  -6.289  26.323  0.00  0.00    +0.043 C 
ATOM     16  C   UNL     1       3.975  -6.008  26.829  0.00  0.00    +0.010 C 
ATOM     17  C   UNL     1       3.899  -4.476  27.142  0.00  0.00    +0.037 C 
ATOM     18  C   UNL     1       5.001  -3.928  26.304  0.00  0.00    -0.018 A 
ATOM     19  C   UNL     1       5.421  -2.661  25.819  0.00  0.00    +0.084 A 
BRANCH  19  20
ATOM     20  C   UNL     1       4.771  -1.414  26.102  0.00  0.00    +0.102 C 
ATOM     21  N   UNL     1       4.250  -0.405  26.353  0.00  0.00    -0.191 NA
ENDBRANCH  19  20
ENDBRANCH   9  12
ENDBRANCH   3   8
BRANCH   1  22
ATOM     22  S   UNL     1       8.969   4.098  24.101  0.00  0.00    +0.061 S 
ATOM     23  O   UNL     1       8.365   4.067  25.416  0.00  0.00    -0.153 OA
ATOM     24  O   UNL     1      10.242   4.749  23.872  0.00  0.00    -0.153 OA
BRANCH  22  25
ATOM     25  N   UNL     1       7.813   4.763  23.012  0.00  0.00    -0.177 NA
BRANCH  25  27
ATOM     26  C   UNL     1       5.860   3.295  22.414  0.00  0.00    +0.022 C 
ATOM     27  C   UNL     1       6.397   4.394  23.319  0.00  0.00    +0.106 C 
ENDBRANCH  25  27
BRANCH  25  28
ATOM     28  C   UNL     1       8.041   6.207  22.691  0.00  0.00    +0.106 C 
ATOM     29  C   UNL     1       6.925   6.840  21.877  0.00  0.00    +0.022 C 
ENDBRANCH  25  28
ENDBRANCH  22  25
ENDBRANCH   1  22
TORSDOF 7
ENDMDL
