MODEL 1
REMARK VINA RESULT:      -6.4      0.000      0.000
REMARK  Name = 
REMARK  5 active torsions:
REMARK  status: ('A' for Active; 'I' for Inactive)
REMARK    1  A    between atoms: C_1  and  C_2
REMARK    2  A    between atoms: C_2  and  C_3
REMARK    3  A    between atoms: C_6  and  O_7
REMARK    4  A    between atoms: N_12  and  C_13
REMARK    5  A    between atoms: C_16  and  O_17
REMARK                            x       y       z     vdW  Elec       q    Type
REMARK                         _______ _______ _______ _____ _____    ______ ____
ROOT
ATOM      1  C   UNL     1       6.907  -2.780  24.034  0.00  0.00    +0.053 A 
ATOM      2  N   UNL     1       8.086  -2.045  24.224  0.00  0.00    -0.236 N 
ATOM      3  N   UNL     1       8.802  -2.493  25.295  0.00  0.00    -0.166 NA
ATOM      4  C   UNL     1       8.185  -3.598  25.724  0.00  0.00    +0.094 A 
ATOM      5  C   UNL     1       8.560  -4.512  26.725  0.00  0.00    +0.034 A 
ATOM      6  C   UNL     1       7.623  -5.549  26.932  0.00  0.00    +0.047 A 
ATOM      7  C   UNL     1       6.398  -5.645  26.213  0.00  0.00    +0.118 A 
ATOM      8  C   UNL     1       5.995  -4.747  25.209  0.00  0.00    +0.057 A 
ATOM      9  C   UNL     1       6.959  -3.763  25.001  0.00  0.00    +0.027 A 
ENDROOT
BRANCH   2  10
ATOM     10  C   UNL     1       8.614  -0.955  23.474  0.00  0.00    +0.066 A 
ATOM     11  C   UNL     1       8.766   0.294  24.106  0.00  0.00    +0.031 A 
ATOM     12  C   UNL     1       9.296   1.383  23.409  0.00  0.00    +0.047 A 
ATOM     13  C   UNL     1       9.703   1.220  22.090  0.00  0.00    +0.117 A 
ATOM     14  C   UNL     1       9.582  -0.011  21.455  0.00  0.00    +0.047 A 
ATOM     15  C   UNL     1       9.039  -1.100  22.149  0.00  0.00    +0.031 A 
BRANCH  13  16
ATOM     16  O   UNL     1      10.245   2.296  21.454  0.00  0.00    -0.507 OA
ATOM     17  H   UNL     1       9.935   2.302  20.534  0.00  0.00    +0.292 HD
ENDBRANCH  13  16
ENDBRANCH   2  10
BRANCH   1  19
ATOM     18  C   UNL     1       5.966  -3.310  21.777  0.00  0.00    +0.010 C 
ATOM     19  C   UNL     1       5.819  -2.484  23.052  0.00  0.00    +0.053 C 
ENDBRANCH   1  19
BRANCH   7  20
ATOM     20  O   UNL     1       5.580  -6.701  26.541  0.00  0.00    -0.507 OA
ATOM     21  H   UNL     1       4.949  -6.405  27.217  0.00  0.00    +0.292 HD
ENDBRANCH   7  20
TORSDOF 4
ENDMDL
MODEL 2
REMARK VINA RESULT:      -6.4      1.168      6.422
REMARK  Name = 
REMARK  5 active torsions:
REMARK  status: ('A' for Active; 'I' for Inactive)
REMARK    1  A    between atoms: C_1  and  C_2
REMARK    2  A    between atoms: C_2  and  C_3
REMARK    3  A    between atoms: C_6  and  O_7
REMARK    4  A    between atoms: N_12  and  C_13
REMARK    5  A    between atoms: C_16  and  O_17
REMARK                            x       y       z     vdW  Elec       q    Type
REMARK                         _______ _______ _______ _____ _____    ______ ____
ROOT
ATOM      1  C   UNL     1       8.491  -1.736  23.540  0.00  0.00    +0.053 A 
ATOM      2  N   UNL     1       8.613  -2.043  24.902  0.00  0.00    -0.236 N 
ATOM      3  N   UNL     1       9.387  -1.136  25.565  0.00  0.00    -0.166 NA
ATOM      4  C   UNL     1       9.658  -0.163  24.691  0.00  0.00    +0.094 A 
ATOM      5  C   UNL     1      10.324   1.062  24.878  0.00  0.00    +0.034 A 
ATOM      6  C   UNL     1      10.461   1.824  23.697  0.00  0.00    +0.047 A 
ATOM      7  C   UNL     1       9.995   1.381  22.427  0.00  0.00    +0.118 A 
ATOM      8  C   UNL     1       9.329   0.163  22.208  0.00  0.00    +0.057 A 
ATOM      9  C   UNL     1       9.171  -0.544  23.398  0.00  0.00    +0.027 A 
ENDROOT
BRANCH   2  10
ATOM     10  C   UNL     1       8.050  -3.117  25.650  0.00  0.00    +0.066 A 
ATOM     11  C   UNL     1       8.734  -4.348  25.691  0.00  0.00    +0.031 A 
ATOM     12  C   UNL     1       8.223  -5.419  26.428  0.00  0.00    +0.047 A 
ATOM     13  C   UNL     1       7.046  -5.257  27.149  0.00  0.00    +0.117 A 
ATOM     14  C   UNL     1       6.368  -4.042  27.140  0.00  0.00    +0.047 A 
ATOM     15  C   UNL     1       6.872  -2.971  26.392  0.00  0.00    +0.031 A 
BRANCH  13  16
ATOM     16  O   UNL     1       6.596  -6.314  27.881  0.00  0.00    -0.507 OA
ATOM     17  H   UNL     1       5.634  -6.235  27.983  0.00  0.00    +0.292 HD
ENDBRANCH  13  16
ENDBRANCH   2  10
BRANCH   1  19
ATOM     18  C   UNL     1       6.316  -2.529  22.589  0.00  0.00    +0.010 C 
ATOM     19  C   UNL     1       7.839  -2.577  22.489  0.00  0.00    +0.053 C 
ENDBRANCH   1  19
BRANCH   7  20
ATOM     20  O   UNL     1      10.221   2.227  21.366  0.00  0.00    -0.507 OA
ATOM     21  H   UNL     1       9.486   2.860  21.314  0.00  0.00    +0.292 HD
ENDBRANCH   7  20
TORSDOF 4
ENDMDL
MODEL 3
REMARK VINA RESULT:      -6.3      1.336      2.467
REMARK  Name = 
REMARK  5 active torsions:
REMARK  status: ('A' for Active; 'I' for Inactive)
REMARK    1  A    between atoms: C_1  and  C_2
REMARK    2  A    between atoms: C_2  and  C_3
REMARK    3  A    between atoms: C_6  and  O_7
REMARK    4  A    between atoms: N_12  and  C_13
REMARK    5  A    between atoms: C_16  and  O_17
REMARK                            x       y       z     vdW  Elec       q    Type
REMARK                         _______ _______ _______ _____ _____    ______ ____
ROOT
ATOM      1  C   UNL     1       7.714  -3.010  24.817  0.00  0.00    +0.053 A 
ATOM      2  N   UNL     1       7.570  -2.503  23.518  0.00  0.00    -0.236 N 
ATOM      3  N   UNL     1       6.764  -3.289  22.748  0.00  0.00    -0.166 NA
ATOM      4  C   UNL     1       6.264  -4.225  23.560  0.00  0.00    +0.094 A 
ATOM      5  C   UNL     1       5.300  -5.219  23.309  0.00  0.00    +0.034 A 
ATOM      6  C   UNL     1       5.052  -6.065  24.413  0.00  0.00    +0.047 A 
ATOM      7  C   UNL     1       5.736  -5.943  25.656  0.00  0.00    +0.118 A 
ATOM      8  C   UNL     1       6.704  -4.963  25.935  0.00  0.00    +0.057 A 
ATOM      9  C   UNL     1       6.894  -4.120  24.843  0.00  0.00    +0.027 A 
ENDROOT
BRANCH   2  10
ATOM     10  C   UNL     1       8.117  -1.327  22.931  0.00  0.00    +0.066 A 
ATOM     11  C   UNL     1       7.424  -0.109  23.077  0.00  0.00    +0.031 A 
ATOM     12  C   UNL     1       7.936   1.070  22.530  0.00  0.00    +0.047 A 
ATOM     13  C   UNL     1       9.155   1.043  21.862  0.00  0.00    +0.117 A 
ATOM     14  C   UNL     1       9.866  -0.145  21.726  0.00  0.00    +0.047 A 
ATOM     15  C   UNL     1       9.347  -1.329  22.264  0.00  0.00    +0.031 A 
BRANCH  13  16
ATOM     16  O   UNL     1       9.638   2.218  21.370  0.00  0.00    -0.507 OA
ATOM     17  H   UNL     1       8.995   2.921  21.557  0.00  0.00    +0.292 HD
ENDBRANCH  13  16
ENDBRANCH   2  10
BRANCH   1  19
ATOM     18  C   UNL     1       8.001  -1.326  26.645  0.00  0.00    +0.010 C 
ATOM     19  C   UNL     1       8.626  -2.492  25.882  0.00  0.00    +0.053 C 
ENDBRANCH   1  19
BRANCH   7  20
ATOM     20  O   UNL     1       5.398  -6.854  26.629  0.00  0.00    -0.507 OA
ATOM     21  H   UNL     1       4.512  -7.201  26.434  0.00  0.00    +0.292 HD
ENDBRANCH   7  20
TORSDOF 4
ENDMDL
MODEL 4
REMARK VINA RESULT:      -6.2      2.375      3.574
REMARK  Name = 
REMARK  5 active torsions:
REMARK  status: ('A' for Active; 'I' for Inactive)
REMARK    1  A    between atoms: C_1  and  C_2
REMARK    2  A    between atoms: C_2  and  C_3
REMARK    3  A    between atoms: C_6  and  O_7
REMARK    4  A    between atoms: N_12  and  C_13
REMARK    5  A    between atoms: C_16  and  O_17
REMARK                            x       y       z     vdW  Elec       q    Type
REMARK                         _______ _______ _______ _____ _____    ______ ____
ROOT
ATOM      1  C   UNL     1       8.661  -1.277  24.443  0.00  0.00    +0.053 A 
ATOM      2  N   UNL     1       7.862  -0.818  23.386  0.00  0.00    -0.236 N 
ATOM      3  N   UNL     1       7.408  -1.841  22.606  0.00  0.00    -0.166 NA
ATOM      4  C   UNL     1       7.779  -2.972  23.215  0.00  0.00    +0.094 A 
ATOM      5  C   UNL     1       7.479  -4.310  22.900  0.00  0.00    +0.034 A 
ATOM      6  C   UNL     1       8.091  -5.250  23.757  0.00  0.00    +0.047 A 
ATOM      7  C   UNL     1       8.957  -4.880  24.825  0.00  0.00    +0.118 A 
ATOM      8  C   UNL     1       9.277  -3.554  25.164  0.00  0.00    +0.057 A 
ATOM      9  C   UNL     1       8.624  -2.651  24.327  0.00  0.00    +0.027 A 
ENDROOT
BRANCH   2  10
ATOM     10  C   UNL     1       7.471   0.508  23.046  0.00  0.00    +0.066 A 
ATOM     11  C   UNL     1       8.172   1.184  22.028  0.00  0.00    +0.031 A 
ATOM     12  C   UNL     1       7.807   2.479  21.655  0.00  0.00    +0.047 A 
ATOM     13  C   UNL     1       6.723   3.092  22.272  0.00  0.00    +0.117 A 
ATOM     14  C   UNL     1       6.004   2.433  23.264  0.00  0.00    +0.047 A 
ATOM     15  C   UNL     1       6.376   1.139  23.648  0.00  0.00    +0.031 A 
BRANCH  13  16
ATOM     16  O   UNL     1       6.378   4.343  21.859  0.00  0.00    -0.507 OA
ATOM     17  H   UNL     1       7.186   4.836  21.647  0.00  0.00    +0.292 HD
ENDBRANCH  13  16
ENDBRANCH   2  10
BRANCH   1  19
ATOM     18  C   UNL     1      10.624   0.248  24.734  0.00  0.00    +0.010 C 
ATOM     19  C   UNL     1       9.436  -0.436  25.407  0.00  0.00    +0.053 C 
ENDBRANCH   1  19
BRANCH   7  20
ATOM     20  O   UNL     1       9.493  -5.912  25.560  0.00  0.00    -0.507 OA
ATOM     21  H   UNL     1       9.058  -5.932  26.428  0.00  0.00    +0.292 HD
ENDBRANCH   7  20
TORSDOF 4
ENDMDL
MODEL 5
REMARK VINA RESULT:      -6.1      2.300      2.930
REMARK  Name = 
REMARK  5 active torsions:
REMARK  status: ('A' for Active; 'I' for Inactive)
REMARK    1  A    between atoms: C_1  and  C_2
REMARK    2  A    between atoms: C_2  and  C_3
REMARK    3  A    between atoms: C_6  and  O_7
REMARK    4  A    between atoms: N_12  and  C_13
REMARK    5  A    between atoms: C_16  and  O_17
REMARK                            x       y       z     vdW  Elec       q    Type
REMARK                         _______ _______ _______ _____ _____    ______ ____
ROOT
ATOM      1  C   UNL     1       9.402  -1.486  23.850  0.00  0.00    +0.053 A 
ATOM      2  N   UNL     1       8.587  -0.460  24.348  0.00  0.00    -0.236 N 
ATOM      3  N   UNL     1       7.771  -0.895  25.351  0.00  0.00    -0.166 NA
ATOM      4  C   UNL     1       8.138  -2.152  25.615  0.00  0.00    +0.094 A 
ATOM      5  C   UNL     1       7.701  -3.029  26.625  0.00  0.00    +0.034 A 
ATOM      6  C   UNL     1       8.290  -4.311  26.563  0.00  0.00    +0.047 A 
ATOM      7  C   UNL     1       9.219  -4.692  25.554  0.00  0.00    +0.118 A 
ATOM      8  C   UNL     1       9.673  -3.841  24.531  0.00  0.00    +0.057 A 
ATOM      9  C   UNL     1       9.106  -2.573  24.646  0.00  0.00    +0.027 A 
ENDROOT
BRANCH   2  10
ATOM     10  C   UNL     1       8.513   0.912  23.972  0.00  0.00    +0.066 A 
ATOM     11  C   UNL     1       9.517   1.794  24.417  0.00  0.00    +0.031 A 
ATOM     12  C   UNL     1       9.488   3.143  24.056  0.00  0.00    +0.047 A 
ATOM     13  C   UNL     1       8.476   3.609  23.226  0.00  0.00    +0.117 A 
ATOM     14  C   UNL     1       7.487   2.750  22.758  0.00  0.00    +0.047 A 
ATOM     15  C   UNL     1       7.508   1.400  23.129  0.00  0.00    +0.031 A 
BRANCH  13  16
ATOM     16  O   UNL     1       8.499   4.924  22.869  0.00  0.00    -0.507 OA
ATOM     17  H   UNL     1       8.537   4.984  21.901  0.00  0.00    +0.292 HD
ENDBRANCH  13  16
ENDBRANCH   2  10
BRANCH   1  19
ATOM     18  C   UNL     1       9.541  -1.137  21.376  0.00  0.00    +0.010 C 
ATOM     19  C   UNL     1      10.312  -1.408  22.666  0.00  0.00    +0.053 C 
ENDBRANCH   1  19
BRANCH   7  20
ATOM     20  O   UNL     1       9.691  -5.982  25.616  0.00  0.00    -0.507 OA
ATOM     21  H   UNL     1       9.680  -6.359  24.721  0.00  0.00    +0.292 HD
ENDBRANCH   7  20
TORSDOF 4
ENDMDL
MODEL 6
REMARK VINA RESULT:      -6.1      1.663      3.046
REMARK  Name = 
REMARK  5 active torsions:
REMARK  status: ('A' for Active; 'I' for Inactive)
REMARK    1  A    between atoms: C_1  and  C_2
REMARK    2  A    between atoms: C_2  and  C_3
REMARK    3  A    between atoms: C_6  and  O_7
REMARK    4  A    between atoms: N_12  and  C_13
REMARK    5  A    between atoms: C_16  and  O_17
REMARK                            x       y       z     vdW  Elec       q    Type
REMARK                         _______ _______ _______ _____ _____    ______ ____
ROOT
ATOM      1  C   UNL     1       7.233  -3.273  24.482  0.00  0.00    +0.053 A 
ATOM      2  N   UNL     1       7.828  -2.478  23.493  0.00  0.00    -0.236 N 
ATOM      3  N   UNL     1       7.698  -3.025  22.250  0.00  0.00    -0.166 NA
ATOM      4  C   UNL     1       6.906  -4.092  22.389  0.00  0.00    +0.094 A 
ATOM      5  C   UNL     1       6.364  -4.950  21.414  0.00  0.00    +0.034 A 
ATOM      6  C   UNL     1       5.599  -6.010  21.948  0.00  0.00    +0.047 A 
ATOM      7  C   UNL     1       5.415  -6.209  23.346  0.00  0.00    +0.118 A 
ATOM      8  C   UNL     1       5.944  -5.371  24.343  0.00  0.00    +0.057 A 
ATOM      9  C   UNL     1       6.657  -4.314  23.783  0.00  0.00    +0.027 A 
ENDROOT
BRANCH   2  10
ATOM     10  C   UNL     1       8.504  -1.230  23.608  0.00  0.00    +0.066 A 
ATOM     11  C   UNL     1       9.845  -1.220  24.040  0.00  0.00    +0.031 A 
ATOM     12  C   UNL     1      10.547  -0.017  24.149  0.00  0.00    +0.047 A 
ATOM     13  C   UNL     1       9.924   1.175  23.800  0.00  0.00    +0.117 A 
ATOM     14  C   UNL     1       8.607   1.184  23.350  0.00  0.00    +0.047 A 
ATOM     15  C   UNL     1       7.899  -0.019  23.252  0.00  0.00    +0.031 A 
BRANCH  13  16
ATOM     16  O   UNL     1      10.651   2.324  23.889  0.00  0.00    -0.507 OA
ATOM     17  H   UNL     1      11.361   2.295  23.228  0.00  0.00    +0.292 HD
ENDBRANCH  13  16
ENDBRANCH   2  10
BRANCH   1  19
ATOM     18  C   UNL     1       8.546  -3.699  26.569  0.00  0.00    +0.010 C 
ATOM     19  C   UNL     1       7.301  -3.059  25.961  0.00  0.00    +0.053 C 
ENDBRANCH   1  19
BRANCH   7  20
ATOM     20  O   UNL     1       4.658  -7.298  23.712  0.00  0.00    -0.507 OA
ATOM     21  H   UNL     1       4.074  -7.531  22.972  0.00  0.00    +0.292 HD
ENDBRANCH   7  20
TORSDOF 4
ENDMDL
MODEL 7
REMARK VINA RESULT:      -6.1      1.763      6.442
REMARK  Name = 
REMARK  5 active torsions:
REMARK  status: ('A' for Active; 'I' for Inactive)
REMARK    1  A    between atoms: C_1  and  C_2
REMARK    2  A    between atoms: C_2  and  C_3
REMARK    3  A    between atoms: C_6  and  O_7
REMARK    4  A    between atoms: N_12  and  C_13
REMARK    5  A    between atoms: C_16  and  O_17
REMARK                            x       y       z     vdW  Elec       q    Type
REMARK                         _______ _______ _______ _____ _____    ______ ____
ROOT
ATOM      1  C   UNL     1       8.242  -2.293  24.598  0.00  0.00    +0.053 A 
ATOM      2  N   UNL     1       7.547  -2.919  23.553  0.00  0.00    -0.236 N 
ATOM      3  N   UNL     1       7.711  -2.267  22.366  0.00  0.00    -0.166 NA
ATOM      4  C   UNL     1       8.614  -1.307  22.586  0.00  0.00    +0.094 A 
ATOM      5  C   UNL     1       9.226  -0.416  21.684  0.00  0.00    +0.034 A 
ATOM      6  C   UNL     1      10.109   0.500  22.297  0.00  0.00    +0.047 A 
ATOM      7  C   UNL     1      10.339   0.538  23.701  0.00  0.00    +0.118 A 
ATOM      8  C   UNL     1       9.742  -0.336  24.627  0.00  0.00    +0.057 A 
ATOM      9  C   UNL     1       8.911  -1.252  23.987  0.00  0.00    +0.027 A 
ENDROOT
BRANCH   2  10
ATOM     10  C   UNL     1       6.745  -4.096  23.566  0.00  0.00    +0.066 A 
ATOM     11  C   UNL     1       5.649  -4.162  24.448  0.00  0.00    +0.031 A 
ATOM     12  C   UNL     1       4.829  -5.292  24.478  0.00  0.00    +0.047 A 
ATOM     13  C   UNL     1       5.081  -6.346  23.607  0.00  0.00    +0.117 A 
ATOM     14  C   UNL     1       6.145  -6.290  22.712  0.00  0.00    +0.047 A 
ATOM     15  C   UNL     1       6.975  -5.163  22.690  0.00  0.00    +0.031 A 
BRANCH  13  16
ATOM     16  O   UNL     1       4.240  -7.417  23.643  0.00  0.00    -0.507 OA
ATOM     17  H   UNL     1       3.564  -7.260  24.321  0.00  0.00    +0.292 HD
ENDBRANCH  13  16
ENDBRANCH   2  10
BRANCH   1  19
ATOM     18  C   UNL     1       8.856  -3.983  26.338  0.00  0.00    +0.010 C 
ATOM     19  C   UNL     1       8.179  -2.645  26.050  0.00  0.00    +0.053 C 
ENDBRANCH   1  19
BRANCH   7  20
ATOM     20  O   UNL     1      11.213   1.501  24.149  0.00  0.00    -0.507 OA
ATOM     21  H   UNL     1      10.724   2.127  24.708  0.00  0.00    +0.292 HD
ENDBRANCH   7  20
TORSDOF 4
ENDMDL
MODEL 8
REMARK VINA RESULT:      -6.0      2.039      2.743
REMARK  Name = 
REMARK  5 active torsions:
REMARK  status: ('A' for Active; 'I' for Inactive)
REMARK    1  A    between atoms: C_1  and  C_2
REMARK    2  A    between atoms: C_2  and  C_3
REMARK    3  A    between atoms: C_6  and  O_7
REMARK    4  A    between atoms: N_12  and  C_13
REMARK    5  A    between atoms: C_16  and  O_17
REMARK                            x       y       z     vdW  Elec       q    Type
REMARK                         _______ _______ _______ _____ _____    ______ ____
ROOT
ATOM      1  C   UNL     1       6.057  -4.839  23.522  0.00  0.00    +0.053 A 
ATOM      2  N   UNL     1       6.801  -3.933  24.290  0.00  0.00    -0.236 N 
ATOM      3  N   UNL     1       6.556  -4.072  25.625  0.00  0.00    -0.166 NA
ATOM      4  C   UNL     1       5.773  -5.147  25.754  0.00  0.00    +0.094 A 
ATOM      5  C   UNL     1       5.313  -5.797  26.914  0.00  0.00    +0.034 A 
ATOM      6  C   UNL     1       4.457  -6.890  26.655  0.00  0.00    +0.047 A 
ATOM      7  C   UNL     1       4.071  -7.281  25.342  0.00  0.00    +0.118 A 
ATOM      8  C   UNL     1       4.512  -6.651  24.165  0.00  0.00    +0.057 A 
ATOM      9  C   UNL     1       5.387  -5.606  24.453  0.00  0.00    +0.027 A 
ENDROOT
BRANCH   2  10
ATOM     10  C   UNL     1       7.742  -2.945  23.881  0.00  0.00    +0.066 A 
ATOM     11  C   UNL     1       7.266  -1.691  23.450  0.00  0.00    +0.031 A 
ATOM     12  C   UNL     1       8.159  -0.691  23.057  0.00  0.00    +0.047 A 
ATOM     13  C   UNL     1       9.527  -0.927  23.122  0.00  0.00    +0.117 A 
ATOM     14  C   UNL     1      10.017  -2.151  23.566  0.00  0.00    +0.047 A 
ATOM     15  C   UNL     1       9.123  -3.159  23.948  0.00  0.00    +0.031 A 
BRANCH  13  16
ATOM     16  O   UNL     1      10.366   0.083  22.761  0.00  0.00    -0.507 OA
ATOM     17  H   UNL     1       9.834   0.840  22.467  0.00  0.00    +0.292 HD
ENDBRANCH  13  16
ENDBRANCH   2  10
BRANCH   1  19
ATOM     18  C   UNL     1       7.007  -5.821  21.425  0.00  0.00    +0.010 C 
ATOM     19  C   UNL     1       5.966  -4.881  22.030  0.00  0.00    +0.053 C 
ENDBRANCH   1  19
BRANCH   7  20
ATOM     20  O   UNL     1       3.216  -8.354  25.252  0.00  0.00    -0.507 OA
ATOM     21  H   UNL     1       3.638  -9.042  24.712  0.00  0.00    +0.292 HD
ENDBRANCH   7  20
TORSDOF 4
ENDMDL
MODEL 9
REMARK VINA RESULT:      -6.0      2.297      6.401
REMARK  Name = 
REMARK  5 active torsions:
REMARK  status: ('A' for Active; 'I' for Inactive)
REMARK    1  A    between atoms: C_1  and  C_2
REMARK    2  A    between atoms: C_2  and  C_3
REMARK    3  A    between atoms: C_6  and  O_7
REMARK    4  A    between atoms: N_12  and  C_13
REMARK    5  A    between atoms: C_16  and  O_17
REMARK                            x       y       z     vdW  Elec       q    Type
REMARK                         _______ _______ _______ _____ _____    ______ ____
ROOT
ATOM      1  C   UNL     1       7.558  -0.662  23.987  0.00  0.00    +0.053 A 
ATOM      2  N   UNL     1       7.853  -1.579  22.969  0.00  0.00    -0.236 N 
ATOM      3  N   UNL     1       8.668  -1.042  22.017  0.00  0.00    -0.166 NA
ATOM      4  C   UNL     1       9.027   0.164  22.465  0.00  0.00    +0.094 A 
ATOM      5  C   UNL     1       9.939   1.094  21.931  0.00  0.00    +0.034 A 
ATOM      6  C   UNL     1      10.027   2.295  22.668  0.00  0.00    +0.047 A 
ATOM      7  C   UNL     1       9.244   2.555  23.829  0.00  0.00    +0.118 A 
ATOM      8  C   UNL     1       8.325   1.648  24.385  0.00  0.00    +0.057 A 
ATOM      9  C   UNL     1       8.293   0.459  23.660  0.00  0.00    +0.027 A 
ENDROOT
BRANCH   2  10
ATOM     10  C   UNL     1       7.444  -2.935  22.814  0.00  0.00    +0.066 A 
ATOM     11  C   UNL     1       6.434  -3.237  21.880  0.00  0.00    +0.031 A 
ATOM     12  C   UNL     1       6.018  -4.557  21.687  0.00  0.00    +0.047 A 
ATOM     13  C   UNL     1       6.629  -5.580  22.402  0.00  0.00    +0.117 A 
ATOM     14  C   UNL     1       7.644  -5.304  23.313  0.00  0.00    +0.047 A 
ATOM     15  C   UNL     1       8.053  -3.981  23.517  0.00  0.00    +0.031 A 
BRANCH  13  16
ATOM     16  O   UNL     1       6.219  -6.857  22.164  0.00  0.00    -0.507 OA
ATOM     17  H   UNL     1       6.686  -7.453  22.770  0.00  0.00    +0.292 HD
ENDBRANCH  13  16
ENDBRANCH   2  10
BRANCH   1  19
ATOM     18  C   UNL     1       7.241  -1.557  26.303  0.00  0.00    +0.010 C 
ATOM     19  C   UNL     1       6.592  -0.856  25.112  0.00  0.00    +0.053 C 
ENDBRANCH   1  19
BRANCH   7  20
ATOM     20  O   UNL     1       9.428   3.780  24.427  0.00  0.00    -0.507 OA
ATOM     21  H   UNL     1       8.703   4.367  24.159  0.00  0.00    +0.292 HD
ENDBRANCH   7  20
TORSDOF 4
ENDMDL
