MODEL 1
REMARK VINA RESULT:      -4.9      0.000      0.000
REMARK  Name = 
REMARK  0 active torsions:
REMARK  status: ('A' for Active; 'I' for Inactive)
REMARK                            x       y       z     vdW  Elec       q    Type
REMARK                         _______ _______ _______ _____ _____    ______ ____
ROOT
ATOM      1  O   UNL     1       7.217  -5.959  28.153  0.00  0.00    -0.247 OA
ATOM      2  C   UNL     1       7.410  -5.610  26.991  0.00  0.00    +0.328 A 
ATOM      3  N   UNL     1       8.690  -5.400  26.514  0.00  0.00    -0.273 N 
ATOM      4  H   UNL     1       9.442  -5.548  27.167  0.00  0.00    +0.173 HD
ATOM      5  C   UNL     1       9.037  -5.010  25.235  0.00  0.00    +0.280 A 
ATOM      6  O   UNL     1      10.197  -4.841  24.879  0.00  0.00    -0.265 OA
ATOM      7  C   UNL     1       7.903  -4.830  24.399  0.00  0.00    +0.148 A 
ATOM      8  N   UNL     1       7.784  -4.457  23.094  0.00  0.00    -0.339 N 
ATOM      9  H   UNL     1       8.539  -4.230  22.460  0.00  0.00    +0.167 HD
ATOM     10  C   UNL     1       6.439  -4.450  22.812  0.00  0.00    +0.199 A 
ATOM     11  N   UNL     1       5.712  -4.795  23.859  0.00  0.00    -0.218 NA
ATOM     12  C   UNL     1       6.626  -5.026  24.830  0.00  0.00    +0.165 A 
ATOM     13  N   UNL     1       6.375  -5.412  26.111  0.00  0.00    -0.291 N 
ATOM     14  H   UNL     1       5.420  -5.552  26.406  0.00  0.00    +0.172 HD
ENDROOT
TORSDOF 0
ENDMDL
MODEL 2
REMARK VINA RESULT:      -4.8      1.811      3.634
REMARK  Name = 
REMARK  0 active torsions:
REMARK  status: ('A' for Active; 'I' for Inactive)
REMARK                            x       y       z     vdW  Elec       q    Type
REMARK                         _______ _______ _______ _____ _____    ______ ____
ROOT
ATOM      1  O   UNL     1      10.297  -4.801  24.849  0.00  0.00    -0.247 OA
ATOM      2  C   UNL     1       9.140  -5.005  25.205  0.00  0.00    +0.328 A 
ATOM      3  N   UNL     1       8.094  -4.928  24.304  0.00  0.00    -0.273 N 
ATOM      4  H   UNL     1       8.337  -4.697  23.354  0.00  0.00    +0.173 HD
ATOM      5  C   UNL     1       6.756  -5.135  24.578  0.00  0.00    +0.280 A 
ATOM      6  O   UNL     1       5.879  -5.049  23.728  0.00  0.00    -0.265 OA
ATOM      7  C   UNL     1       6.528  -5.453  25.943  0.00  0.00    +0.148 A 
ATOM      8  N   UNL     1       5.386  -5.728  26.635  0.00  0.00    -0.339 N 
ATOM      9  H   UNL     1       4.446  -5.751  26.263  0.00  0.00    +0.167 HD
ATOM     10  C   UNL     1       5.767  -5.964  27.935  0.00  0.00    +0.199 A 
ATOM     11  N   UNL     1       7.072  -5.855  28.095  0.00  0.00    -0.218 NA
ATOM     12  C   UNL     1       7.530  -5.539  26.862  0.00  0.00    +0.165 A 
ATOM     13  N   UNL     1       8.824  -5.319  26.504  0.00  0.00    -0.291 N 
ATOM     14  H   UNL     1       9.548  -5.389  27.202  0.00  0.00    +0.172 HD
ENDROOT
TORSDOF 0
ENDMDL
MODEL 3
REMARK VINA RESULT:      -4.7      0.886      2.838
REMARK  Name = 
REMARK  0 active torsions:
REMARK  status: ('A' for Active; 'I' for Inactive)
REMARK                            x       y       z     vdW  Elec       q    Type
REMARK                         _______ _______ _______ _____ _____    ______ ____
ROOT
ATOM      1  O   UNL     1      10.291  -4.839  24.882  0.00  0.00    -0.247 OA
ATOM      2  C   UNL     1       9.114  -5.022  25.180  0.00  0.00    +0.328 A 
ATOM      3  N   UNL     1       8.750  -5.353  26.472  0.00  0.00    -0.273 N 
ATOM      4  H   UNL     1       9.498  -5.434  27.142  0.00  0.00    +0.173 HD
ATOM      5  C   UNL     1       7.468  -5.583  26.932  0.00  0.00    +0.280 A 
ATOM      6  O   UNL     1       7.217  -5.874  28.095  0.00  0.00    -0.265 OA
ATOM      7  C   UNL     1       6.494  -5.443  25.907  0.00  0.00    +0.148 A 
ATOM      8  N   UNL     1       5.138  -5.577  25.916  0.00  0.00    -0.339 N 
ATOM      9  H   UNL     1       4.560  -5.816  26.712  0.00  0.00    +0.167 HD
ATOM     10  C   UNL     1       4.714  -5.325  24.633  0.00  0.00    +0.199 A 
ATOM     11  N   UNL     1       5.720  -5.042  23.827  0.00  0.00    -0.218 NA
ATOM     12  C   UNL     1       6.811  -5.118  24.623  0.00  0.00    +0.165 A 
ATOM     13  N   UNL     1       8.105  -4.909  24.256  0.00  0.00    -0.291 N 
ATOM     14  H   UNL     1       8.313  -4.669  23.299  0.00  0.00    +0.172 HD
ENDROOT
TORSDOF 0
ENDMDL
MODEL 4
REMARK VINA RESULT:      -4.6      2.057      3.889
REMARK  Name = 
REMARK  0 active torsions:
REMARK  status: ('A' for Active; 'I' for Inactive)
REMARK                            x       y       z     vdW  Elec       q    Type
REMARK                         _______ _______ _______ _____ _____    ______ ____
ROOT
ATOM      1  O   UNL     1       5.263  -4.452  22.283  0.00  0.00    -0.247 OA
ATOM      2  C   UNL     1       5.976  -4.755  23.236  0.00  0.00    +0.328 A 
ATOM      3  N   UNL     1       5.462  -5.442  24.319  0.00  0.00    -0.273 N 
ATOM      4  H   UNL     1       4.483  -5.676  24.279  0.00  0.00    +0.173 HD
ATOM      5  C   UNL     1       6.156  -5.838  25.446  0.00  0.00    +0.280 A 
ATOM      6  O   UNL     1       5.635  -6.447  26.372  0.00  0.00    -0.265 OA
ATOM      7  C   UNL     1       7.524  -5.459  25.399  0.00  0.00    +0.148 A 
ATOM      8  N   UNL     1       8.550  -5.640  26.277  0.00  0.00    -0.339 N 
ATOM      9  H   UNL     1       8.503  -6.110  27.172  0.00  0.00    +0.167 HD
ATOM     10  C   UNL     1       9.658  -5.060  25.706  0.00  0.00    +0.199 A 
ATOM     11  N   UNL     1       9.386  -4.529  24.528  0.00  0.00    -0.218 NA
ATOM     12  C   UNL     1       8.069  -4.780  24.351  0.00  0.00    +0.165 A 
ATOM     13  N   UNL     1       7.309  -4.429  23.278  0.00  0.00    -0.291 N 
ATOM     14  H   UNL     1       7.736  -3.928  22.514  0.00  0.00    +0.172 HD
ENDROOT
TORSDOF 0
ENDMDL
MODEL 5
REMARK VINA RESULT:      -4.6      2.793      4.619
REMARK  Name = 
REMARK  0 active torsions:
REMARK  status: ('A' for Active; 'I' for Inactive)
REMARK                            x       y       z     vdW  Elec       q    Type
REMARK                         _______ _______ _______ _____ _____    ______ ____
ROOT
ATOM      1  O   UNL     1       5.989  -5.627  20.085  0.00  0.00    -0.247 OA
ATOM      2  C   UNL     1       6.120  -5.576  21.305  0.00  0.00    +0.328 A 
ATOM      3  N   UNL     1       5.217  -6.201  22.145  0.00  0.00    -0.273 N 
ATOM      4  H   UNL     1       4.457  -6.693  21.701  0.00  0.00    +0.173 HD
ATOM      5  C   UNL     1       5.253  -6.218  23.525  0.00  0.00    +0.280 A 
ATOM      6  O   UNL     1       4.416  -6.794  24.209  0.00  0.00    -0.265 OA
ATOM      7  C   UNL     1       6.361  -5.497  24.045  0.00  0.00    +0.148 A 
ATOM      8  N   UNL     1       6.775  -5.259  25.321  0.00  0.00    -0.339 N 
ATOM      9  H   UNL     1       6.328  -5.581  26.170  0.00  0.00    +0.167 HD
ATOM     10  C   UNL     1       7.915  -4.498  25.225  0.00  0.00    +0.199 A 
ATOM     11  N   UNL     1       8.238  -4.247  23.970  0.00  0.00    -0.218 NA
ATOM     12  C   UNL     1       7.273  -4.867  23.252  0.00  0.00    +0.165 A 
ATOM     13  N   UNL     1       7.160  -4.902  21.897  0.00  0.00    -0.291 N 
ATOM     14  H   UNL     1       7.848  -4.429  21.332  0.00  0.00    +0.172 HD
ENDROOT
TORSDOF 0
ENDMDL
MODEL 6
REMARK VINA RESULT:      -4.6      4.942      6.011
REMARK  Name = 
REMARK  0 active torsions:
REMARK  status: ('A' for Active; 'I' for Inactive)
REMARK                            x       y       z     vdW  Elec       q    Type
REMARK                         _______ _______ _______ _____ _____    ______ ____
ROOT
ATOM      1  O   UNL     1      10.676   2.385  23.958  0.00  0.00    -0.247 OA
ATOM      2  C   UNL     1      10.306   1.228  24.136  0.00  0.00    +0.328 A 
ATOM      3  N   UNL     1      10.517   0.257  23.175  0.00  0.00    -0.273 N 
ATOM      4  H   UNL     1      10.985   0.553  22.334  0.00  0.00    +0.173 HD
ATOM      5  C   UNL     1      10.150  -1.072  23.254  0.00  0.00    +0.280 A 
ATOM      6  O   UNL     1      10.369  -1.880  22.361  0.00  0.00    -0.265 OA
ATOM      7  C   UNL     1       9.499  -1.380  24.479  0.00  0.00    +0.148 A 
ATOM      8  N   UNL     1       8.980  -2.542  24.967  0.00  0.00    -0.339 N 
ATOM      9  H   UNL     1       8.974  -3.442  24.504  0.00  0.00    +0.167 HD
ATOM     10  C   UNL     1       8.470  -2.248  26.209  0.00  0.00    +0.199 A 
ATOM     11  N   UNL     1       8.637  -0.978  26.525  0.00  0.00    -0.218 NA
ATOM     12  C   UNL     1       9.272  -0.454  25.451  0.00  0.00    +0.165 A 
ATOM     13  N   UNL     1       9.668   0.838  25.288  0.00  0.00    -0.291 N 
ATOM     14  H   UNL     1       9.489   1.505  26.023  0.00  0.00    +0.172 HD
ENDROOT
TORSDOF 0
ENDMDL
MODEL 7
REMARK VINA RESULT:      -4.5      2.540      4.067
REMARK  Name = 
REMARK  0 active torsions:
REMARK  status: ('A' for Active; 'I' for Inactive)
REMARK                            x       y       z     vdW  Elec       q    Type
REMARK                         _______ _______ _______ _____ _____    ______ ____
ROOT
ATOM      1  O   UNL     1       6.010  -5.655  20.267  0.00  0.00    -0.247 OA
ATOM      2  C   UNL     1       6.109  -5.596  21.489  0.00  0.00    +0.328 A 
ATOM      3  N   UNL     1       7.127  -4.876  22.087  0.00  0.00    -0.273 N 
ATOM      4  H   UNL     1       7.772  -4.412  21.467  0.00  0.00    +0.173 HD
ATOM      5  C   UNL     1       7.347  -4.733  23.443  0.00  0.00    +0.280 A 
ATOM      6  O   UNL     1       8.273  -4.078  23.904  0.00  0.00    -0.265 OA
ATOM      7  C   UNL     1       6.383  -5.427  24.222  0.00  0.00    +0.148 A 
ATOM      8  N   UNL     1       6.222  -5.555  25.569  0.00  0.00    -0.339 N 
ATOM      9  H   UNL     1       6.806  -5.147  26.288  0.00  0.00    +0.167 HD
ATOM     10  C   UNL     1       5.114  -6.347  25.755  0.00  0.00    +0.199 A 
ATOM     11  N   UNL     1       4.574  -6.719  24.609  0.00  0.00    -0.218 NA
ATOM     12  C   UNL     1       5.365  -6.147  23.673  0.00  0.00    +0.165 A 
ATOM     13  N   UNL     1       5.224  -6.235  22.322  0.00  0.00    -0.291 N 
ATOM     14  H   UNL     1       4.462  -6.773  21.940  0.00  0.00    +0.172 HD
ENDROOT
TORSDOF 0
ENDMDL
MODEL 8
REMARK VINA RESULT:      -4.5      2.905      3.735
REMARK  Name = 
REMARK  0 active torsions:
REMARK  status: ('A' for Active; 'I' for Inactive)
REMARK                            x       y       z     vdW  Elec       q    Type
REMARK                         _______ _______ _______ _____ _____    ______ ____
ROOT
ATOM      1  O   UNL     1       6.469  -0.648  23.573  0.00  0.00    -0.247 OA
ATOM      2  C   UNL     1       6.716  -1.810  23.262  0.00  0.00    +0.328 A 
ATOM      3  N   UNL     1       7.749  -2.504  23.863  0.00  0.00    -0.273 N 
ATOM      4  H   UNL     1       8.278  -2.006  24.561  0.00  0.00    +0.173 HD
ATOM      5  C   UNL     1       8.125  -3.807  23.603  0.00  0.00    +0.280 A 
ATOM      6  O   UNL     1       9.055  -4.362  24.176  0.00  0.00    -0.265 OA
ATOM      7  C   UNL     1       7.315  -4.414  22.606  0.00  0.00    +0.148 A 
ATOM      8  N   UNL     1       7.333  -5.659  22.052  0.00  0.00    -0.339 N 
ATOM      9  H   UNL     1       7.973  -6.411  22.277  0.00  0.00    +0.167 HD
ATOM     10  C   UNL     1       6.313  -5.689  21.131  0.00  0.00    +0.199 A 
ATOM     11  N   UNL     1       5.661  -4.543  21.077  0.00  0.00    -0.218 NA
ATOM     12  C   UNL     1       6.289  -3.765  21.989  0.00  0.00    +0.165 A 
ATOM     13  N   UNL     1       5.986  -2.477  22.309  0.00  0.00    -0.291 N 
ATOM     14  H   UNL     1       5.221  -2.019  21.839  0.00  0.00    +0.172 HD
ENDROOT
TORSDOF 0
ENDMDL
MODEL 9
REMARK VINA RESULT:      -4.5      1.664      3.323
REMARK  Name = 
REMARK  0 active torsions:
REMARK  status: ('A' for Active; 'I' for Inactive)
REMARK                            x       y       z     vdW  Elec       q    Type
REMARK                         _______ _______ _______ _____ _____    ______ ____
ROOT
ATOM      1  O   UNL     1       6.133  -4.499  22.277  0.00  0.00    -0.247 OA
ATOM      2  C   UNL     1       6.620  -4.756  23.374  0.00  0.00    +0.328 A 
ATOM      3  N   UNL     1       7.990  -4.805  23.551  0.00  0.00    -0.273 N 
ATOM      4  H   UNL     1       8.554  -4.619  22.738  0.00  0.00    +0.173 HD
ATOM      5  C   UNL     1       8.658  -5.081  24.728  0.00  0.00    +0.280 A 
ATOM      6  O   UNL     1       9.879  -5.108  24.813  0.00  0.00    -0.265 OA
ATOM      7  C   UNL     1       7.768  -5.327  25.808  0.00  0.00    +0.148 A 
ATOM      8  N   UNL     1       7.990  -5.632  27.118  0.00  0.00    -0.339 N 
ATOM      9  H   UNL     1       8.889  -5.742  27.569  0.00  0.00    +0.167 HD
ATOM     10  C   UNL     1       6.752  -5.761  27.701  0.00  0.00    +0.199 A 
ATOM     11  N   UNL     1       5.774  -5.555  26.839  0.00  0.00    -0.218 NA
ATOM     12  C   UNL     1       6.413  -5.289  25.676  0.00  0.00    +0.165 A 
ATOM     13  N   UNL     1       5.839  -5.007  24.475  0.00  0.00    -0.291 N 
ATOM     14  H   UNL     1       4.833  -4.984  24.403  0.00  0.00    +0.172 HD
ENDROOT
TORSDOF 0
ENDMDL
