MODEL 1
REMARK VINA RESULT:      -4.0      0.000      0.000
REMARK  Name = 
REMARK  0 active torsions:
REMARK  status: ('A' for Active; 'I' for Inactive)
REMARK                            x       y       z     vdW  Elec       q    Type
REMARK                         _______ _______ _______ _____ _____    ______ ____
ROOT
ATOM      1  O   UNL     1       7.223  -5.881  28.085  0.00  0.00    -0.247 OA
ATOM      2  C   UNL     1       7.480  -5.570  26.928  0.00  0.00    +0.327 A 
ATOM      3  N   UNL     1       8.756  -5.342  26.496  0.00  0.00    -0.275 N 
ATOM      4  H   UNL     1       9.497  -5.444  27.171  0.00  0.00    +0.173 HD
ATOM      5  C   UNL     1       9.109  -5.012  25.217  0.00  0.00    +0.254 A 
ATOM      6  O   UNL     1      10.271  -4.838  24.867  0.00  0.00    -0.268 OA
ATOM      7  C   UNL     1       7.997  -4.874  24.254  0.00  0.00    +0.088 A 
ATOM      8  C   UNL     1       6.750  -5.088  24.679  0.00  0.00    +0.092 A 
ATOM      9  N   UNL     1       6.502  -5.430  25.979  0.00  0.00    -0.314 N 
ATOM     10  H   UNL     1       5.554  -5.598  26.299  0.00  0.00    +0.170 HD
ENDROOT
TORSDOF 0
ENDMDL
MODEL 2
REMARK VINA RESULT:      -4.0      5.489      6.212
REMARK  Name = 
REMARK  0 active torsions:
REMARK  status: ('A' for Active; 'I' for Inactive)
REMARK                            x       y       z     vdW  Elec       q    Type
REMARK                         _______ _______ _______ _____ _____    ______ ____
ROOT
ATOM      1  O   UNL     1      10.171  -2.868  23.645  0.00  0.00    -0.247 OA
ATOM      2  C   UNL     1      10.072  -1.741  23.175  0.00  0.00    +0.327 A 
ATOM      3  N   UNL     1      10.383  -0.618  23.889  0.00  0.00    -0.275 N 
ATOM      4  H   UNL     1      10.709  -0.748  24.833  0.00  0.00    +0.173 HD
ATOM      5  C   UNL     1      10.313   0.662  23.417  0.00  0.00    +0.254 A 
ATOM      6  O   UNL     1      10.625   1.641  24.086  0.00  0.00    -0.268 OA
ATOM      7  C   UNL     1       9.834   0.814  22.028  0.00  0.00    +0.088 A 
ATOM      8  C   UNL     1       9.522  -0.282  21.334  0.00  0.00    +0.092 A 
ATOM      9  N   UNL     1       9.641  -1.524  21.893  0.00  0.00    -0.314 N 
ATOM     10  H   UNL     1       9.409  -2.356  21.361  0.00  0.00    +0.170 HD
ENDROOT
TORSDOF 0
ENDMDL
MODEL 3
REMARK VINA RESULT:      -3.8      7.146      7.961
REMARK  Name = 
REMARK  0 active torsions:
REMARK  status: ('A' for Active; 'I' for Inactive)
REMARK                            x       y       z     vdW  Elec       q    Type
REMARK                         _______ _______ _______ _____ _____    ______ ____
ROOT
ATOM      1  O   UNL     1      11.040   3.812  23.365  0.00  0.00    -0.247 OA
ATOM      2  C   UNL     1      10.610   2.681  23.168  0.00  0.00    +0.327 A 
ATOM      3  N   UNL     1      10.631   1.710  24.130  0.00  0.00    -0.275 N 
ATOM      4  H   UNL     1      11.015   1.959  25.028  0.00  0.00    +0.173 HD
ATOM      5  C   UNL     1      10.151   0.440  23.979  0.00  0.00    +0.254 A 
ATOM      6  O   UNL     1      10.169  -0.394  24.878  0.00  0.00    -0.268 OA
ATOM      7  C   UNL     1       9.593   0.112  22.651  0.00  0.00    +0.088 A 
ATOM      8  C   UNL     1       9.581   1.058  21.710  0.00  0.00    +0.092 A 
ATOM      9  N   UNL     1      10.073   2.307  21.965  0.00  0.00    -0.314 N 
ATOM     10  H   UNL     1      10.057   3.026  21.250  0.00  0.00    +0.170 HD
ENDROOT
TORSDOF 0
ENDMDL
MODEL 4
REMARK VINA RESULT:      -3.8      1.326      3.090
REMARK  Name = 
REMARK  0 active torsions:
REMARK  status: ('A' for Active; 'I' for Inactive)
REMARK                            x       y       z     vdW  Elec       q    Type
REMARK                         _______ _______ _______ _____ _____    ______ ____
ROOT
ATOM      1  O   UNL     1      10.137  -5.004  24.952  0.00  0.00    -0.247 OA
ATOM      2  C   UNL     1       9.121  -4.759  25.593  0.00  0.00    +0.327 A 
ATOM      3  N   UNL     1       8.629  -5.614  26.539  0.00  0.00    -0.275 N 
ATOM      4  H   UNL     1       9.139  -6.467  26.701  0.00  0.00    +0.173 HD
ATOM      5  C   UNL     1       7.516  -5.390  27.300  0.00  0.00    +0.254 A 
ATOM      6  O   UNL     1       7.121  -6.175  28.156  0.00  0.00    -0.268 OA
ATOM      7  C   UNL     1       6.794  -4.128  27.037  0.00  0.00    +0.088 A 
ATOM      8  C   UNL     1       7.272  -3.299  26.107  0.00  0.00    +0.092 A 
ATOM      9  N   UNL     1       8.405  -3.607  25.408  0.00  0.00    -0.314 N 
ATOM     10  H   UNL     1       8.769  -2.972  24.706  0.00  0.00    +0.170 HD
ENDROOT
TORSDOF 0
ENDMDL
MODEL 5
REMARK VINA RESULT:      -3.7      1.503      2.245
REMARK  Name = 
REMARK  0 active torsions:
REMARK  status: ('A' for Active; 'I' for Inactive)
REMARK                            x       y       z     vdW  Elec       q    Type
REMARK                         _______ _______ _______ _____ _____    ______ ____
ROOT
ATOM      1  O   UNL     1       7.224  -5.856  28.017  0.00  0.00    -0.247 OA
ATOM      2  C   UNL     1       7.599  -5.522  26.898  0.00  0.00    +0.327 A 
ATOM      3  N   UNL     1       6.738  -5.394  25.845  0.00  0.00    -0.275 N 
ATOM      4  H   UNL     1       5.764  -5.581  26.020  0.00  0.00    +0.173 HD
ATOM      5  C   UNL     1       7.090  -5.008  24.582  0.00  0.00    +0.254 A 
ATOM      6  O   UNL     1       6.280  -4.883  23.670  0.00  0.00    -0.268 OA
ATOM      7  C   UNL     1       8.526  -4.740  24.363  0.00  0.00    +0.088 A 
ATOM      8  C   UNL     1       9.367  -4.874  25.391  0.00  0.00    +0.092 A 
ATOM      9  N   UNL     1       8.913  -5.252  26.623  0.00  0.00    -0.314 N 
ATOM     10  H   UNL     1       9.553  -5.347  27.404  0.00  0.00    +0.170 HD
ENDROOT
TORSDOF 0
ENDMDL
MODEL 6
REMARK VINA RESULT:      -3.6      1.819      3.086
REMARK  Name = 
REMARK  0 active torsions:
REMARK  status: ('A' for Active; 'I' for Inactive)
REMARK                            x       y       z     vdW  Elec       q    Type
REMARK                         _______ _______ _______ _____ _____    ______ ____
ROOT
ATOM      1  O   UNL     1      10.281  -4.875  24.882  0.00  0.00    -0.247 OA
ATOM      2  C   UNL     1       9.126  -5.017  25.266  0.00  0.00    +0.327 A 
ATOM      3  N   UNL     1       8.062  -5.011  24.409  0.00  0.00    -0.275 N 
ATOM      4  H   UNL     1       8.260  -4.889  23.429  0.00  0.00    +0.173 HD
ATOM      5  C   UNL     1       6.756  -5.183  24.772  0.00  0.00    +0.254 A 
ATOM      6  O   UNL     1       5.833  -5.194  23.966  0.00  0.00    -0.268 OA
ATOM      7  C   UNL     1       6.504  -5.362  26.216  0.00  0.00    +0.088 A 
ATOM      8  C   UNL     1       7.543  -5.359  27.054  0.00  0.00    +0.092 A 
ATOM      9  N   UNL     1       8.818  -5.194  26.589  0.00  0.00    -0.314 N 
ATOM     10  H   UNL     1       9.606  -5.198  27.226  0.00  0.00    +0.170 HD
ENDROOT
TORSDOF 0
ENDMDL
MODEL 7
REMARK VINA RESULT:      -3.6      3.519      4.451
REMARK  Name = 
REMARK  0 active torsions:
REMARK  status: ('A' for Active; 'I' for Inactive)
REMARK                            x       y       z     vdW  Elec       q    Type
REMARK                         _______ _______ _______ _____ _____    ______ ____
ROOT
ATOM      1  O   UNL     1       5.998  -5.656  20.105  0.00  0.00    -0.247 OA
ATOM      2  C   UNL     1       6.116  -5.582  21.323  0.00  0.00    +0.327 A 
ATOM      3  N   UNL     1       7.182  -4.969  21.921  0.00  0.00    -0.275 N 
ATOM      4  H   UNL     1       7.881  -4.568  21.317  0.00  0.00    +0.173 HD
ATOM      5  C   UNL     1       7.360  -4.837  23.269  0.00  0.00    +0.254 A 
ATOM      6  O   UNL     1       8.321  -4.258  23.763  0.00  0.00    -0.268 OA
ATOM      7  C   UNL     1       6.314  -5.435  24.123  0.00  0.00    +0.088 A 
ATOM      8  C   UNL     1       5.278  -6.040  23.538  0.00  0.00    +0.092 A 
ATOM      9  N   UNL     1       5.182  -6.108  22.176  0.00  0.00    -0.314 N 
ATOM     10  H   UNL     1       4.391  -6.563  21.734  0.00  0.00    +0.170 HD
ENDROOT
TORSDOF 0
ENDMDL
MODEL 8
REMARK VINA RESULT:      -3.6      5.669      6.552
REMARK  Name = 
REMARK  0 active torsions:
REMARK  status: ('A' for Active; 'I' for Inactive)
REMARK                            x       y       z     vdW  Elec       q    Type
REMARK                         _______ _______ _______ _____ _____    ______ ____
ROOT
ATOM      1  O   UNL     1      10.784   2.431  23.842  0.00  0.00    -0.247 OA
ATOM      2  C   UNL     1      10.411   1.276  24.014  0.00  0.00    +0.327 A 
ATOM      3  N   UNL     1      10.539   0.314  23.053  0.00  0.00    -0.275 N 
ATOM      4  H   UNL     1      10.963   0.586  22.181  0.00  0.00    +0.173 HD
ATOM      5  C   UNL     1      10.162  -0.993  23.190  0.00  0.00    +0.254 A 
ATOM      6  O   UNL     1      10.316  -1.830  22.309  0.00  0.00    -0.268 OA
ATOM      7  C   UNL     1       9.546  -1.357  24.483  0.00  0.00    +0.088 A 
ATOM      8  C   UNL     1       9.414  -0.413  25.418  0.00  0.00    +0.092 A 
ATOM      9  N   UNL     1       9.838   0.866  25.189  0.00  0.00    -0.314 N 
ATOM     10  H   UNL     1       9.742   1.579  25.903  0.00  0.00    +0.170 HD
ENDROOT
TORSDOF 0
ENDMDL
MODEL 9
REMARK VINA RESULT:      -3.6      3.553      4.180
REMARK  Name = 
REMARK  0 active torsions:
REMARK  status: ('A' for Active; 'I' for Inactive)
REMARK                            x       y       z     vdW  Elec       q    Type
REMARK                         _______ _______ _______ _____ _____    ______ ____
ROOT
ATOM      1  O   UNL     1       4.426  -7.318  24.321  0.00  0.00    -0.247 OA
ATOM      2  C   UNL     1       5.148  -6.510  23.749  0.00  0.00    +0.327 A 
ATOM      3  N   UNL     1       5.212  -6.420  22.387  0.00  0.00    -0.275 N 
ATOM      4  H   UNL     1       4.631  -7.048  21.855  0.00  0.00    +0.173 HD
ATOM      5  C   UNL     1       5.980  -5.529  21.691  0.00  0.00    +0.254 A 
ATOM      6  O   UNL     1       5.990  -5.467  20.466  0.00  0.00    -0.268 OA
ATOM      7  C   UNL     1       6.816  -4.622  22.503  0.00  0.00    +0.088 A 
ATOM      8  C   UNL     1       6.759  -4.717  23.833  0.00  0.00    +0.092 A 
ATOM      9  N   UNL     1       5.945  -5.633  24.437  0.00  0.00    -0.314 N 
ATOM     10  H   UNL     1       5.899  -5.699  25.447  0.00  0.00    +0.170 HD
ENDROOT
TORSDOF 0
ENDMDL
