MODEL 1
REMARK VINA RESULT:      -6.2      0.000      0.000
REMARK  Name = 
REMARK  1 active torsions:
REMARK  status: ('A' for Active; 'I' for Inactive)
REMARK    1  A    between atoms: N_1  and  C_2
REMARK                            x       y       z     vdW  Elec       q    Type
REMARK                         _______ _______ _______ _____ _____    ______ ____
ROOT
ATOM      1  C   UNL     1       7.343  -3.487  26.362  0.00  0.00    +0.286 A 
ATOM      2  N   UNL     1       8.022  -4.704  26.271  0.00  0.00    -0.120 N 
ATOM      3  O   UNL     1       7.599  -5.725  26.942  0.00  0.00    -0.616 OA
ATOM      4  C   UNL     1       9.149  -4.785  25.445  0.00  0.00    +0.386 A 
ATOM      5  N   UNL     1       9.845  -5.995  25.326  0.00  0.00    -0.287 N 
ATOM      6  H   UNL     1       9.575  -6.615  26.090  0.00  0.00    +0.149 HD
ATOM      7  H   UNL     1      10.829  -5.845  25.157  0.00  0.00    +0.149 HD
ATOM      8  N   UNL     1       9.586  -3.707  24.747  0.00  0.00    -0.156 NA
ATOM      9  C   UNL     1       8.924  -2.535  24.835  0.00  0.00    +0.137 A 
ATOM     10  N   UNL     1       9.269  -1.483  23.994  0.00  0.00    -0.315 N 
ATOM     11  C   UNL     1       9.663  -0.214  24.609  0.00  0.00    +0.106 C 
ATOM     12  C   UNL     1       9.363   0.907  23.609  0.00  0.00    +0.019 C 
ATOM     13  C   UNL     1      10.008   0.643  22.247  0.00  0.00    +0.003 C 
ATOM     14  C   UNL     1       9.709  -0.766  21.735  0.00  0.00    +0.019 C 
ATOM     15  C   UNL     1      10.031  -1.825  22.792  0.00  0.00    +0.106 C 
ATOM     16  C   UNL     1       7.813  -2.390  25.653  0.00  0.00    +0.141 A 
ENDROOT
BRANCH   1  17
ATOM     17  N   UNL     1       6.190  -3.383  27.181  0.00  0.00    -0.304 N 
ATOM     18  H   UNL     1       5.385  -3.435  26.541  0.00  0.00    +0.148 HD
ATOM     19  H   UNL     1       6.176  -2.517  27.713  0.00  0.00    +0.148 HD
ENDBRANCH   1  17
TORSDOF 1
ENDMDL
MODEL 2
REMARK VINA RESULT:      -6.0      0.995      2.618
REMARK  Name = 
REMARK  1 active torsions:
REMARK  status: ('A' for Active; 'I' for Inactive)
REMARK    1  A    between atoms: N_1  and  C_2
REMARK                            x       y       z     vdW  Elec       q    Type
REMARK                         _______ _______ _______ _____ _____    ______ ____
ROOT
ATOM      1  C   UNL     1       9.200  -4.469  25.537  0.00  0.00    +0.286 A 
ATOM      2  N   UNL     1       8.113  -4.372  26.410  0.00  0.00    -0.120 N 
ATOM      3  O   UNL     1       7.949  -5.265  27.330  0.00  0.00    -0.616 OA
ATOM      4  C   UNL     1       7.227  -3.298  26.263  0.00  0.00    +0.386 A 
ATOM      5  N   UNL     1       6.134  -3.168  27.130  0.00  0.00    -0.287 N 
ATOM      6  H   UNL     1       5.980  -4.055  27.611  0.00  0.00    +0.149 HD
ATOM      7  H   UNL     1       5.347  -2.728  26.675  0.00  0.00    +0.149 HD
ATOM      8  N   UNL     1       7.407  -2.368  25.292  0.00  0.00    -0.156 NA
ATOM      9  C   UNL     1       8.461  -2.465  24.455  0.00  0.00    +0.137 A 
ATOM     10  N   UNL     1       8.739  -1.426  23.574  0.00  0.00    -0.315 N 
ATOM     11  C   UNL     1       8.789  -1.735  22.143  0.00  0.00    +0.106 C 
ATOM     12  C   UNL     1       9.702  -0.705  21.471  0.00  0.00    +0.019 C 
ATOM     13  C   UNL     1       9.272   0.730  21.788  0.00  0.00    +0.003 C 
ATOM     14  C   UNL     1       9.061   0.946  23.287  0.00  0.00    +0.019 C 
ATOM     15  C   UNL     1       8.143  -0.125  23.882  0.00  0.00    +0.106 C 
ATOM     16  C   UNL     1       9.360  -3.518  24.540  0.00  0.00    +0.141 A 
ENDROOT
BRANCH   1  17
ATOM     17  N   UNL     1      10.119  -5.541  25.675  0.00  0.00    -0.304 N 
ATOM     18  H   UNL     1      10.943  -5.277  25.116  0.00  0.00    +0.148 HD
ATOM     19  H   UNL     1       9.728  -6.422  25.353  0.00  0.00    +0.148 HD
ENDBRANCH   1  17
TORSDOF 1
ENDMDL
MODEL 3
REMARK VINA RESULT:      -5.8      3.839      5.926
REMARK  Name = 
REMARK  1 active torsions:
REMARK  status: ('A' for Active; 'I' for Inactive)
REMARK    1  A    between atoms: N_1  and  C_2
REMARK                            x       y       z     vdW  Elec       q    Type
REMARK                         _______ _______ _______ _____ _____    ______ ____
ROOT
ATOM      1  C   UNL     1       6.698   1.442  22.767  0.00  0.00    +0.286 A 
ATOM      2  N   UNL     1       7.812   2.138  22.289  0.00  0.00    -0.120 N 
ATOM      3  O   UNL     1       7.717   3.404  22.041  0.00  0.00    -0.616 OA
ATOM      4  C   UNL     1       9.008   1.440  22.093  0.00  0.00    +0.386 A 
ATOM      5  N   UNL     1      10.144   2.112  21.625  0.00  0.00    -0.287 N 
ATOM      6  H   UNL     1       9.863   3.009  21.228  0.00  0.00    +0.149 HD
ATOM      7  H   UNL     1      10.734   1.508  21.071  0.00  0.00    +0.149 HD
ATOM      8  N   UNL     1       9.095   0.110  22.353  0.00  0.00    -0.156 NA
ATOM      9  C   UNL     1       8.018  -0.555  22.819  0.00  0.00    +0.137 A 
ATOM     10  N   UNL     1       8.152  -1.873  23.244  0.00  0.00    -0.315 N 
ATOM     11  C   UNL     1       7.315  -2.889  22.603  0.00  0.00    +0.106 C 
ATOM     12  C   UNL     1       7.134  -4.043  23.594  0.00  0.00    +0.019 C 
ATOM     13  C   UNL     1       8.477  -4.569  24.107  0.00  0.00    +0.003 C 
ATOM     14  C   UNL     1       9.383  -3.440  24.600  0.00  0.00    +0.019 C 
ATOM     15  C   UNL     1       9.508  -2.327  23.557  0.00  0.00    +0.106 C 
ATOM     16  C   UNL     1       6.801   0.080  23.013  0.00  0.00    +0.141 A 
ENDROOT
BRANCH   1  17
ATOM     17  N   UNL     1       5.478   2.131  22.986  0.00  0.00    -0.304 N 
ATOM     18  H   UNL     1       5.719   2.954  23.556  0.00  0.00    +0.148 HD
ATOM     19  H   UNL     1       4.791   1.550  23.458  0.00  0.00    +0.148 HD
ENDBRANCH   1  17
TORSDOF 1
ENDMDL
MODEL 4
REMARK VINA RESULT:      -5.8      4.174      6.165
REMARK  Name = 
REMARK  1 active torsions:
REMARK  status: ('A' for Active; 'I' for Inactive)
REMARK    1  A    between atoms: N_1  and  C_2
REMARK                            x       y       z     vdW  Elec       q    Type
REMARK                         _______ _______ _______ _____ _____    ______ ____
ROOT
ATOM      1  C   UNL     1       9.392   0.522  22.130  0.00  0.00    +0.286 A 
ATOM      2  N   UNL     1       9.827   0.006  23.355  0.00  0.00    -0.120 N 
ATOM      3  O   UNL     1      10.251  -1.213  23.420  0.00  0.00    -0.616 OA
ATOM      4  C   UNL     1       9.794   0.833  24.482  0.00  0.00    +0.386 A 
ATOM      5  N   UNL     1      10.232   0.348  25.721  0.00  0.00    -0.287 N 
ATOM      6  H   UNL     1      10.280  -0.671  25.685  0.00  0.00    +0.149 HD
ATOM      7  H   UNL     1       9.734   0.776  26.488  0.00  0.00    +0.149 HD
ATOM      8  N   UNL     1       9.343   2.111  24.402  0.00  0.00    -0.156 NA
ATOM      9  C   UNL     1       8.929   2.605  23.217  0.00  0.00    +0.137 A 
ATOM     10  N   UNL     1       8.630   3.958  23.101  0.00  0.00    -0.315 N 
ATOM     11  C   UNL     1       7.288   4.327  22.643  0.00  0.00    +0.106 C 
ATOM     12  C   UNL     1       7.378   5.707  21.985  0.00  0.00    +0.019 C 
ATOM     13  C   UNL     1       8.031   6.737  22.910  0.00  0.00    +0.003 C 
ATOM     14  C   UNL     1       9.345   6.225  23.501  0.00  0.00    +0.019 C 
ATOM     15  C   UNL     1       9.171   4.843  24.134  0.00  0.00    +0.106 C 
ATOM     16  C   UNL     1       8.921   1.826  22.070  0.00  0.00    +0.141 A 
ENDROOT
BRANCH   1  17
ATOM     17  N   UNL     1       9.430  -0.292  20.970  0.00  0.00    -0.304 N 
ATOM     18  H   UNL     1      10.422  -0.527  20.823  0.00  0.00    +0.148 HD
ATOM     19  H   UNL     1       9.044   0.182  20.158  0.00  0.00    +0.148 HD
ENDBRANCH   1  17
TORSDOF 1
ENDMDL
MODEL 5
REMARK VINA RESULT:      -5.6      1.930      2.027
REMARK  Name = 
REMARK  1 active torsions:
REMARK  status: ('A' for Active; 'I' for Inactive)
REMARK    1  A    between atoms: N_1  and  C_2
REMARK                            x       y       z     vdW  Elec       q    Type
REMARK                         _______ _______ _______ _____ _____    ______ ____
ROOT
ATOM      1  C   UNL     1       5.745  -4.656  24.545  0.00  0.00    +0.286 A 
ATOM      2  N   UNL     1       6.396  -5.395  25.537  0.00  0.00    -0.120 N 
ATOM      3  O   UNL     1       5.810  -6.422  26.059  0.00  0.00    -0.616 OA
ATOM      4  C   UNL     1       7.677  -4.999  25.938  0.00  0.00    +0.386 A 
ATOM      5  N   UNL     1       8.359  -5.725  26.922  0.00  0.00    -0.287 N 
ATOM      6  H   UNL     1       7.697  -6.321  27.420  0.00  0.00    +0.149 HD
ATOM      7  H   UNL     1       8.971  -5.134  27.466  0.00  0.00    +0.149 HD
ATOM      8  N   UNL     1       8.282  -3.916  25.386  0.00  0.00    -0.156 NA
ATOM      9  C   UNL     1       7.650  -3.210  24.426  0.00  0.00    +0.137 A 
ATOM     10  N   UNL     1       8.333  -2.209  23.744  0.00  0.00    -0.315 N 
ATOM     11  C   UNL     1       7.776  -0.855  23.774  0.00  0.00    +0.106 C 
ATOM     12  C   UNL     1       8.252  -0.122  22.517  0.00  0.00    +0.019 C 
ATOM     13  C   UNL     1       9.775  -0.170  22.372  0.00  0.00    +0.003 C 
ATOM     14  C   UNL     1      10.321  -1.590  22.528  0.00  0.00    +0.019 C 
ATOM     15  C   UNL     1       9.796  -2.253  23.804  0.00  0.00    +0.106 C 
ATOM     16  C   UNL     1       6.372  -3.543  24.003  0.00  0.00    +0.141 A 
ENDROOT
BRANCH   1  17
ATOM     17  N   UNL     1       4.452  -5.045  24.113  0.00  0.00    -0.304 N 
ATOM     18  H   UNL     1       3.958  -4.172  23.882  0.00  0.00    +0.148 HD
ATOM     19  H   UNL     1       3.952  -5.568  24.826  0.00  0.00    +0.148 HD
ENDBRANCH   1  17
TORSDOF 1
ENDMDL
MODEL 6
REMARK VINA RESULT:      -5.6      2.759      5.707
REMARK  Name = 
REMARK  1 active torsions:
REMARK  status: ('A' for Active; 'I' for Inactive)
REMARK    1  A    between atoms: N_1  and  C_2
REMARK                            x       y       z     vdW  Elec       q    Type
REMARK                         _______ _______ _______ _____ _____    ______ ____
ROOT
ATOM      1  C   UNL     1       9.439  -0.911  22.302  0.00  0.00    +0.286 A 
ATOM      2  N   UNL     1       9.655   0.311  22.945  0.00  0.00    -0.120 N 
ATOM      3  O   UNL     1       9.897   1.370  22.243  0.00  0.00    -0.616 OA
ATOM      4  C   UNL     1       9.599   0.355  24.342  0.00  0.00    +0.386 A 
ATOM      5  N   UNL     1       9.801   1.567  25.014  0.00  0.00    -0.287 N 
ATOM      6  H   UNL     1      10.235   2.236  24.377  0.00  0.00    +0.149 HD
ATOM      7  H   UNL     1      10.225   1.426  25.920  0.00  0.00    +0.149 HD
ATOM      8  N   UNL     1       9.347  -0.763  25.069  0.00  0.00    -0.156 NA
ATOM      9  C   UNL     1       9.135  -1.939  24.443  0.00  0.00    +0.137 A 
ATOM     10  N   UNL     1       8.711  -3.043  25.175  0.00  0.00    -0.315 N 
ATOM     11  C   UNL     1       9.533  -4.254  25.127  0.00  0.00    +0.106 C 
ATOM     12  C   UNL     1       8.622  -5.452  25.411  0.00  0.00    +0.019 C 
ATOM     13  C   UNL     1       7.840  -5.276  26.715  0.00  0.00    +0.003 C 
ATOM     14  C   UNL     1       7.146  -3.916  26.787  0.00  0.00    +0.019 C 
ATOM     15  C   UNL     1       8.120  -2.775  26.487  0.00  0.00    +0.106 C 
ATOM     16  C   UNL     1       9.198  -2.046  23.062  0.00  0.00    +0.141 A 
ENDROOT
BRANCH   1  17
ATOM     17  N   UNL     1       9.477  -0.978  20.886  0.00  0.00    -0.304 N 
ATOM     18  H   UNL     1       8.496  -0.931  20.576  0.00  0.00    +0.148 HD
ATOM     19  H   UNL     1       9.922  -1.830  20.556  0.00  0.00    +0.148 HD
ENDBRANCH   1  17
TORSDOF 1
ENDMDL
MODEL 7
REMARK VINA RESULT:      -5.6      3.355      5.615
REMARK  Name = 
REMARK  1 active torsions:
REMARK  status: ('A' for Active; 'I' for Inactive)
REMARK    1  A    between atoms: N_1  and  C_2
REMARK                            x       y       z     vdW  Elec       q    Type
REMARK                         _______ _______ _______ _____ _____    ______ ____
ROOT
ATOM      1  C   UNL     1      10.062   0.205  24.206  0.00  0.00    +0.286 A 
ATOM      2  N   UNL     1       9.844   0.981  23.065  0.00  0.00    -0.120 N 
ATOM      3  O   UNL     1      10.521   2.069  22.892  0.00  0.00    -0.616 OA
ATOM      4  C   UNL     1       8.892   0.553  22.132  0.00  0.00    +0.386 A 
ATOM      5  N   UNL     1       8.659   1.304  20.974  0.00  0.00    -0.287 N 
ATOM      6  H   UNL     1       9.049   2.240  21.096  0.00  0.00    +0.149 HD
ATOM      7  H   UNL     1       7.701   1.223  20.662  0.00  0.00    +0.149 HD
ATOM      8  N   UNL     1       8.185  -0.589  22.326  0.00  0.00    -0.156 NA
ATOM      9  C   UNL     1       8.403  -1.336  23.427  0.00  0.00    +0.137 A 
ATOM     10  N   UNL     1       7.804  -2.587  23.542  0.00  0.00    -0.315 N 
ATOM     11  C   UNL     1       6.950  -2.834  24.705  0.00  0.00    +0.106 C 
ATOM     12  C   UNL     1       6.947  -4.341  24.975  0.00  0.00    +0.019 C 
ATOM     13  C   UNL     1       6.559  -5.143  23.730  0.00  0.00    +0.003 C 
ATOM     14  C   UNL     1       7.362  -4.715  22.501  0.00  0.00    +0.019 C 
ATOM     15  C   UNL     1       7.318  -3.198  22.304  0.00  0.00    +0.106 C 
ATOM     16  C   UNL     1       9.319  -0.952  24.395  0.00  0.00    +0.141 A 
ENDROOT
BRANCH   1  17
ATOM     17  N   UNL     1      11.030   0.611  25.159  0.00  0.00    -0.304 N 
ATOM     18  H   UNL     1      10.621   1.419  25.649  0.00  0.00    +0.148 HD
ATOM     19  H   UNL     1      11.914   0.860  24.723  0.00  0.00    +0.148 HD
ENDBRANCH   1  17
TORSDOF 1
ENDMDL
MODEL 8
REMARK VINA RESULT:      -5.6      3.196      3.299
REMARK  Name = 
REMARK  1 active torsions:
REMARK  status: ('A' for Active; 'I' for Inactive)
REMARK    1  A    between atoms: N_1  and  C_2
REMARK                            x       y       z     vdW  Elec       q    Type
REMARK                         _______ _______ _______ _____ _____    ______ ____
ROOT
ATOM      1  C   UNL     1       5.130  -3.507  23.785  0.00  0.00    +0.286 A 
ATOM      2  N   UNL     1       5.117  -4.458  22.762  0.00  0.00    -0.120 N 
ATOM      3  O   UNL     1       4.080  -5.214  22.605  0.00  0.00    -0.616 OA
ATOM      4  C   UNL     1       6.234  -4.563  21.927  0.00  0.00    +0.386 A 
ATOM      5  N   UNL     1       6.246  -5.500  20.886  0.00  0.00    -0.287 N 
ATOM      6  H   UNL     1       5.507  -6.187  21.044  0.00  0.00    +0.149 HD
ATOM      7  H   UNL     1       7.179  -5.838  20.697  0.00  0.00    +0.149 HD
ATOM      8  N   UNL     1       7.319  -3.766  22.102  0.00  0.00    -0.156 NA
ATOM      9  C   UNL     1       7.325  -2.847  23.089  0.00  0.00    +0.137 A 
ATOM     10  N   UNL     1       8.359  -1.920  23.162  0.00  0.00    -0.315 N 
ATOM     11  C   UNL     1       9.141  -1.861  24.399  0.00  0.00    +0.106 C 
ATOM     12  C   UNL     1       9.720  -0.449  24.523  0.00  0.00    +0.019 C 
ATOM     13  C   UNL     1      10.498  -0.041  23.269  0.00  0.00    +0.003 C 
ATOM     14  C   UNL     1       9.697  -0.293  21.991  0.00  0.00    +0.019 C 
ATOM     15  C   UNL     1       9.151  -1.722  21.946  0.00  0.00    +0.106 C 
ATOM     16  C   UNL     1       6.254  -2.711  23.960  0.00  0.00    +0.141 A 
ENDROOT
BRANCH   1  17
ATOM     17  N   UNL     1       4.004  -3.372  24.636  0.00  0.00    -0.304 N 
ATOM     18  H   UNL     1       3.196  -3.697  24.087  0.00  0.00    +0.148 HD
ATOM     19  H   UNL     1       3.871  -2.412  24.945  0.00  0.00    +0.148 HD
ENDBRANCH   1  17
TORSDOF 1
ENDMDL
MODEL 9
REMARK VINA RESULT:      -5.6      2.241      3.160
REMARK  Name = 
REMARK  1 active torsions:
REMARK  status: ('A' for Active; 'I' for Inactive)
REMARK    1  A    between atoms: N_1  and  C_2
REMARK                            x       y       z     vdW  Elec       q    Type
REMARK                         _______ _______ _______ _____ _____    ______ ____
ROOT
ATOM      1  C   UNL     1       8.571  -4.207  24.149  0.00  0.00    +0.286 A 
ATOM      2  N   UNL     1       7.549  -4.444  23.225  0.00  0.00    -0.120 N 
ATOM      3  O   UNL     1       7.053  -5.633  23.111  0.00  0.00    -0.616 OA
ATOM      4  C   UNL     1       7.086  -3.378  22.446  0.00  0.00    +0.386 A 
ATOM      5  N   UNL     1       6.056  -3.584  21.519  0.00  0.00    -0.287 N 
ATOM      6  H   UNL     1       5.953  -4.584  21.348  0.00  0.00    +0.149 HD
ATOM      7  H   UNL     1       6.143  -2.969  20.723  0.00  0.00    +0.149 HD
ATOM      8  N   UNL     1       7.616  -2.135  22.572  0.00  0.00    -0.156 NA
ATOM      9  C   UNL     1       8.599  -1.911  23.468  0.00  0.00    +0.137 A 
ATOM     10  N   UNL     1       9.022  -0.609  23.716  0.00  0.00    -0.315 N 
ATOM     11  C   UNL     1      10.438  -0.298  23.513  0.00  0.00    +0.106 C 
ATOM     12  C   UNL     1      10.794   0.887  24.415  0.00  0.00    +0.019 C 
ATOM     13  C   UNL     1       9.852   2.074  24.193  0.00  0.00    +0.003 C 
ATOM     14  C   UNL     1       8.382   1.655  24.239  0.00  0.00    +0.019 C 
ATOM     15  C   UNL     1       8.111   0.465  23.316  0.00  0.00    +0.106 C 
ATOM     16  C   UNL     1       9.111  -2.933  24.253  0.00  0.00    +0.141 A 
ENDROOT
BRANCH   1  17
ATOM     17  N   UNL     1       9.048  -5.268  24.960  0.00  0.00    -0.304 N 
ATOM     18  H   UNL     1       9.506  -4.821  25.766  0.00  0.00    +0.148 HD
ATOM     19  H   UNL     1       9.697  -5.869  24.459  0.00  0.00    +0.148 HD
ENDBRANCH   1  17
TORSDOF 1
ENDMDL
