MODEL 1
REMARK VINA RESULT:      -7.3      0.000      0.000
REMARK  Name = 
REMARK  8 active torsions:
REMARK  status: ('A' for Active; 'I' for Inactive)
REMARK    1  A    between atoms: C_1  and  C_2
REMARK    2  A    between atoms: C_2  and  C_4
REMARK    3  A    between atoms: C_11  and  N_12
REMARK    4  A    between atoms: N_12  and  C_13
REMARK    5  A    between atoms: C_13  and  C_14
REMARK    6  A    between atoms: N_16  and  C_17
REMARK    7  A    between atoms: C_22  and  C_23
REMARK    8  A    between atoms: C_23  and  O_24
REMARK                            x       y       z     vdW  Elec       q    Type
REMARK                         _______ _______ _______ _____ _____    ______ ____
ROOT
ATOM      1  C   UNL     1       8.278  -2.599  26.513  0.00  0.00    +0.198 C 
ENDROOT
BRANCH   1   2
ATOM      2  C   UNL     1       8.156  -1.481  25.476  0.00  0.00    +0.234 C 
ATOM      3  N   UNL     1       9.376  -0.924  25.126  0.00  0.00    -0.283 N 
ATOM      4  H   UNL     1      10.206  -1.397  25.498  0.00  0.00    +0.155 HD
ATOM      5  O   UNL     1       7.054  -1.150  25.043  0.00  0.00    -0.274 OA
BRANCH   3   6
ATOM      6  C   UNL     1       9.603   0.139  24.213  0.00  0.00    +0.047 A 
ATOM      7  C   UNL     1       9.895  -0.133  22.857  0.00  0.00    +0.080 A 
ATOM      8  C   UNL     1      10.093   0.927  21.947  0.00  0.00    +0.017 A 
ATOM      9  C   UNL     1       9.982   2.249  22.370  0.00  0.00    +0.001 A 
ATOM     10  C   UNL     1       9.717   2.523  23.708  0.00  0.00    +0.002 A 
ATOM     11  C   UNL     1       9.542   1.479  24.618  0.00  0.00    +0.024 A 
BRANCH   7  12
ATOM     12  C   UNL     1      10.032  -1.535  22.386  0.00  0.00    +0.339 C 
ATOM     13  O   UNL     1      10.556  -2.404  23.062  0.00  0.00    -0.245 OA
BRANCH  12  14
ATOM     14  O   UNL     1       9.497  -1.782  21.171  0.00  0.00    -0.477 OA
ATOM     15  H   UNL     1       9.210  -2.702  21.022  0.00  0.00    +0.295 HD
ENDBRANCH  12  14
ENDBRANCH   7  12
ENDBRANCH   3   6
ENDBRANCH   1   2
BRANCH   1  16
ATOM     16  N   UNL     1       8.676  -3.864  25.884  0.00  0.00    -0.335 N 
ATOM     17  H   UNL     1       9.546  -3.787  25.335  0.00  0.00    +0.147 HD
BRANCH  16  19
ATOM     18  C   UNL     1       6.597  -5.193  25.869  0.00  0.00    +0.041 A 
ATOM     19  C   UNL     1       7.701  -4.608  25.196  0.00  0.00    +0.040 A 
ATOM     20  C   UNL     1       7.736  -4.704  23.792  0.00  0.00    +0.046 A 
ATOM     21  C   UNL     1       6.721  -5.353  23.084  0.00  0.00    +0.078 A 
ATOM     22 CL   UNL     1       6.836  -5.491  21.372  0.00  0.00    -0.081 Cl
ATOM     23  C   UNL     1       5.629  -5.873  23.763  0.00  0.00    +0.142 A 
ATOM     24  F   UNL     1       4.629  -6.475  23.103  0.00  0.00    -0.204 F 
ATOM     25  C   UNL     1       5.555  -5.795  25.147  0.00  0.00    +0.053 A 
BRANCH  18  27
ATOM     26  C   UNL     1       5.439  -4.550  28.077  0.00  0.00    +0.091 C 
ATOM     27  C   UNL     1       6.559  -5.269  27.363  0.00  0.00    +0.162 C 
ATOM     28  O   UNL     1       7.384  -5.939  27.979  0.00  0.00    -0.292 OA
ENDBRANCH  18  27
ENDBRANCH  16  19
ENDBRANCH   1  16
TORSDOF 7
ENDMDL
MODEL 2
REMARK VINA RESULT:      -7.2      1.935      2.383
REMARK  Name = 
REMARK  8 active torsions:
REMARK  status: ('A' for Active; 'I' for Inactive)
REMARK    1  A    between atoms: C_1  and  C_2
REMARK    2  A    between atoms: C_2  and  C_4
REMARK    3  A    between atoms: C_11  and  N_12
REMARK    4  A    between atoms: N_12  and  C_13
REMARK    5  A    between atoms: C_13  and  C_14
REMARK    6  A    between atoms: N_16  and  C_17
REMARK    7  A    between atoms: C_22  and  C_23
REMARK    8  A    between atoms: C_23  and  O_24
REMARK                            x       y       z     vdW  Elec       q    Type
REMARK                         _______ _______ _______ _____ _____    ______ ____
ROOT
ATOM      1  C   UNL     1       6.867  -1.798  26.530  0.00  0.00    +0.198 C 
ENDROOT
BRANCH   1   2
ATOM      2  C   UNL     1       8.023  -0.932  26.026  0.00  0.00    +0.234 C 
ATOM      3  N   UNL     1       7.754  -0.308  24.818  0.00  0.00    -0.283 N 
ATOM      4  H   UNL     1       6.792  -0.397  24.474  0.00  0.00    +0.155 HD
ATOM      5  O   UNL     1       9.066  -0.848  26.671  0.00  0.00    -0.274 OA
BRANCH   3   6
ATOM      6  C   UNL     1       8.620   0.539  24.079  0.00  0.00    +0.047 A 
ATOM      7  C   UNL     1       9.094   0.144  22.807  0.00  0.00    +0.080 A 
ATOM      8  C   UNL     1       9.933   1.001  22.064  0.00  0.00    +0.017 A 
ATOM      9  C   UNL     1      10.284   2.252  22.566  0.00  0.00    +0.001 A 
ATOM     10  C   UNL     1       9.839   2.637  23.826  0.00  0.00    +0.002 A 
ATOM     11  C   UNL     1       9.027   1.784  24.577  0.00  0.00    +0.024 A 
BRANCH   7  12
ATOM     12  C   UNL     1       8.744  -1.190  22.259  0.00  0.00    +0.339 C 
ATOM     13  O   UNL     1       7.629  -1.671  22.368  0.00  0.00    -0.245 OA
BRANCH  12  14
ATOM     14  O   UNL     1       9.742  -1.814  21.596  0.00  0.00    -0.477 OA
ATOM     15  H   UNL     1       9.862  -1.537  20.669  0.00  0.00    +0.295 HD
ENDBRANCH  12  14
ENDBRANCH   7  12
ENDBRANCH   3   6
ENDBRANCH   1   2
BRANCH   1  16
ATOM     16  N   UNL     1       7.190  -3.227  26.422  0.00  0.00    -0.335 N 
ATOM     17  H   UNL     1       8.136  -3.454  26.763  0.00  0.00    +0.147 HD
BRANCH  16  19
ATOM     18  C   UNL     1       7.928  -4.501  24.442  0.00  0.00    +0.041 A 
ATOM     19  C   UNL     1       6.907  -3.889  25.214  0.00  0.00    +0.040 A 
ATOM     20  C   UNL     1       5.576  -4.056  24.787  0.00  0.00    +0.046 A 
ATOM     21  C   UNL     1       5.269  -4.797  23.643  0.00  0.00    +0.078 A 
ATOM     22 CL   UNL     1       3.631  -4.927  23.131  0.00  0.00    -0.081 Cl
ATOM     23  C   UNL     1       6.283  -5.426  22.935  0.00  0.00    +0.142 A 
ATOM     24  F   UNL     1       6.010  -6.166  21.851  0.00  0.00    -0.204 F 
ATOM     25  C   UNL     1       7.608  -5.290  23.327  0.00  0.00    +0.053 A 
BRANCH  18  27
ATOM     26  C   UNL     1      10.070  -5.183  25.699  0.00  0.00    +0.091 C 
ATOM     27  C   UNL     1       9.373  -4.248  24.739  0.00  0.00    +0.162 C 
ATOM     28  O   UNL     1       9.979  -3.341  24.175  0.00  0.00    -0.292 OA
ENDBRANCH  18  27
ENDBRANCH  16  19
ENDBRANCH   1  16
TORSDOF 7
ENDMDL
MODEL 3
REMARK VINA RESULT:      -7.2      2.179      2.989
REMARK  Name = 
REMARK  8 active torsions:
REMARK  status: ('A' for Active; 'I' for Inactive)
REMARK    1  A    between atoms: C_1  and  C_2
REMARK    2  A    between atoms: C_2  and  C_4
REMARK    3  A    between atoms: C_11  and  N_12
REMARK    4  A    between atoms: N_12  and  C_13
REMARK    5  A    between atoms: C_13  and  C_14
REMARK    6  A    between atoms: N_16  and  C_17
REMARK    7  A    between atoms: C_22  and  C_23
REMARK    8  A    between atoms: C_23  and  O_24
REMARK                            x       y       z     vdW  Elec       q    Type
REMARK                         _______ _______ _______ _____ _____    ______ ____
ROOT
ATOM      1  C   UNL     1       7.935  -3.154  25.411  0.00  0.00    +0.198 C 
ENDROOT
BRANCH   1   2
ATOM      2  C   UNL     1       7.859  -1.793  24.716  0.00  0.00    +0.234 C 
ATOM      3  N   UNL     1       9.071  -1.121  24.694  0.00  0.00    -0.283 N 
ATOM      4  H   UNL     1       9.883  -1.653  25.025  0.00  0.00    +0.155 HD
ATOM      5  O   UNL     1       6.795  -1.389  24.254  0.00  0.00    -0.274 OA
BRANCH   3   6
ATOM      6  C   UNL     1       9.329   0.163  24.147  0.00  0.00    +0.047 A 
ATOM      7  C   UNL     1       9.775   0.295  22.811  0.00  0.00    +0.080 A 
ATOM      8  C   UNL     1      10.004   1.575  22.263  0.00  0.00    +0.017 A 
ATOM      9  C   UNL     1       9.775   2.719  23.024  0.00  0.00    +0.001 A 
ATOM     10  C   UNL     1       9.359   2.594  24.345  0.00  0.00    +0.002 A 
ATOM     11  C   UNL     1       9.151   1.330  24.901  0.00  0.00    +0.024 A 
BRANCH   7  12
ATOM     12  C   UNL     1      10.038  -0.911  21.987  0.00  0.00    +0.339 C 
ATOM     13  O   UNL     1      10.660  -1.871  22.410  0.00  0.00    -0.245 OA
BRANCH  12  14
ATOM     14  O   UNL     1       9.505  -0.880  20.747  0.00  0.00    -0.477 OA
ATOM     15  H   UNL     1      10.147  -0.786  20.019  0.00  0.00    +0.295 HD
ENDBRANCH  12  14
ENDBRANCH   7  12
ENDBRANCH   3   6
ENDBRANCH   1   2
BRANCH   1  16
ATOM     16  N   UNL     1       7.632  -4.244  24.476  0.00  0.00    -0.335 N 
ATOM     17  H   UNL     1       7.649  -3.947  23.489  0.00  0.00    +0.147 HD
BRANCH  16  19
ATOM     18  C   UNL     1       5.658  -5.512  23.712  0.00  0.00    +0.041 A 
ATOM     19  C   UNL     1       6.524  -5.069  24.744  0.00  0.00    +0.040 A 
ATOM     20  C   UNL     1       6.303  -5.567  26.043  0.00  0.00    +0.046 A 
ATOM     21  C   UNL     1       5.268  -6.467  26.307  0.00  0.00    +0.078 A 
ATOM     22 CL   UNL     1       5.004  -7.006  27.920  0.00  0.00    -0.081 Cl
ATOM     23  C   UNL     1       4.466  -6.923  25.270  0.00  0.00    +0.142 A 
ATOM     24  F   UNL     1       3.485  -7.808  25.495  0.00  0.00    -0.204 F 
ATOM     25  C   UNL     1       4.655  -6.459  23.975  0.00  0.00    +0.053 A 
BRANCH  18  27
ATOM     26  C   UNL     1       6.248  -5.788  21.221  0.00  0.00    +0.091 C 
ATOM     27  C   UNL     1       5.728  -4.918  22.340  0.00  0.00    +0.162 C 
ATOM     28  O   UNL     1       5.324  -3.778  22.129  0.00  0.00    -0.292 OA
ENDBRANCH  18  27
ENDBRANCH  16  19
ENDBRANCH   1  16
TORSDOF 7
ENDMDL
MODEL 4
REMARK VINA RESULT:      -7.1      1.931      2.175
REMARK  Name = 
REMARK  8 active torsions:
REMARK  status: ('A' for Active; 'I' for Inactive)
REMARK    1  A    between atoms: C_1  and  C_2
REMARK    2  A    between atoms: C_2  and  C_4
REMARK    3  A    between atoms: C_11  and  N_12
REMARK    4  A    between atoms: N_12  and  C_13
REMARK    5  A    between atoms: C_13  and  C_14
REMARK    6  A    between atoms: N_16  and  C_17
REMARK    7  A    between atoms: C_22  and  C_23
REMARK    8  A    between atoms: C_23  and  O_24
REMARK                            x       y       z     vdW  Elec       q    Type
REMARK                         _______ _______ _______ _____ _____    ______ ____
ROOT
ATOM      1  C   UNL     1       9.491  -2.916  24.191  0.00  0.00    +0.198 C 
ENDROOT
BRANCH   1   2
ATOM      2  C   UNL     1       8.981  -1.491  24.415  0.00  0.00    +0.234 C 
ATOM      3  N   UNL     1       8.112  -1.059  23.427  0.00  0.00    -0.283 N 
ATOM      4  H   UNL     1       7.821  -1.769  22.746  0.00  0.00    +0.155 HD
ATOM      5  O   UNL     1       9.354  -0.843  25.391  0.00  0.00    -0.274 OA
BRANCH   3   6
ATOM      6  C   UNL     1       7.485   0.211  23.332  0.00  0.00    +0.047 A 
ATOM      7  C   UNL     1       7.979   1.187  22.437  0.00  0.00    +0.080 A 
ATOM      8  C   UNL     1       7.336   2.438  22.325  0.00  0.00    +0.017 A 
ATOM      9  C   UNL     1       6.198   2.715  23.080  0.00  0.00    +0.001 A 
ATOM     10  C   UNL     1       5.721   1.767  23.978  0.00  0.00    +0.002 A 
ATOM     11  C   UNL     1       6.365   0.535  24.109  0.00  0.00    +0.024 A 
BRANCH   7  12
ATOM     12  C   UNL     1       9.198   0.919  21.634  0.00  0.00    +0.339 C 
ATOM     13  O   UNL     1       9.413  -0.162  21.110  0.00  0.00    -0.245 OA
BRANCH  12  14
ATOM     14  O   UNL     1      10.031   1.972  21.494  0.00  0.00    -0.477 OA
ATOM     15  H   UNL     1      10.547   2.203  22.289  0.00  0.00    +0.295 HD
ENDBRANCH  12  14
ENDBRANCH   7  12
ENDBRANCH   3   6
ENDBRANCH   1   2
BRANCH   1  16
ATOM     16  N   UNL     1       8.817  -3.867  25.084  0.00  0.00    -0.335 N 
ATOM     17  H   UNL     1       9.473  -4.474  25.598  0.00  0.00    +0.147 HD
BRANCH  16  19
ATOM     18  C   UNL     1       6.696  -5.079  25.431  0.00  0.00    +0.041 A 
ATOM     19  C   UNL     1       7.727  -4.601  24.582  0.00  0.00    +0.040 A 
ATOM     20  C   UNL     1       7.574  -4.792  23.195  0.00  0.00    +0.046 A 
ATOM     21  C   UNL     1       6.447  -5.430  22.672  0.00  0.00    +0.078 A 
ATOM     22 CL   UNL     1       6.330  -5.689  20.975  0.00  0.00    -0.081 Cl
ATOM     23  C   UNL     1       5.430  -5.844  23.521  0.00  0.00    +0.142 A 
ATOM     24  F   UNL     1       4.326  -6.433  23.040  0.00  0.00    -0.204 F 
ATOM     25  C   UNL     1       5.541  -5.669  24.894  0.00  0.00    +0.053 A 
BRANCH  18  27
ATOM     26  C   UNL     1       5.829  -4.280  27.720  0.00  0.00    +0.091 C 
ATOM     27  C   UNL     1       6.851  -5.052  26.920  0.00  0.00    +0.162 C 
ATOM     28  O   UNL     1       7.749  -5.684  27.468  0.00  0.00    -0.292 OA
ENDBRANCH  18  27
ENDBRANCH  16  19
ENDBRANCH   1  16
TORSDOF 7
ENDMDL
MODEL 5
REMARK VINA RESULT:      -7.1      3.710      6.930
REMARK  Name = 
REMARK  8 active torsions:
REMARK  status: ('A' for Active; 'I' for Inactive)
REMARK    1  A    between atoms: C_1  and  C_2
REMARK    2  A    between atoms: C_2  and  C_4
REMARK    3  A    between atoms: C_11  and  N_12
REMARK    4  A    between atoms: N_12  and  C_13
REMARK    5  A    between atoms: C_13  and  C_14
REMARK    6  A    between atoms: N_16  and  C_17
REMARK    7  A    between atoms: C_22  and  C_23
REMARK    8  A    between atoms: C_23  and  O_24
REMARK                            x       y       z     vdW  Elec       q    Type
REMARK                         _______ _______ _______ _____ _____    ______ ____
ROOT
ATOM      1  C   UNL     1       8.441  -0.100  26.341  0.00  0.00    +0.198 C 
ENDROOT
BRANCH   1   2
ATOM      2  C   UNL     1       7.667  -1.159  25.553  0.00  0.00    +0.234 C 
ATOM      3  N   UNL     1       8.488  -2.036  24.862  0.00  0.00    -0.283 N 
ATOM      4  H   UNL     1       9.492  -1.953  25.055  0.00  0.00    +0.155 HD
ATOM      5  O   UNL     1       6.438  -1.169  25.564  0.00  0.00    -0.274 OA
BRANCH   3   6
ATOM      6  C   UNL     1       8.085  -3.110  24.026  0.00  0.00    +0.047 A 
ATOM      7  C   UNL     1       8.404  -4.443  24.372  0.00  0.00    +0.080 A 
ATOM      8  C   UNL     1       7.978  -5.510  23.552  0.00  0.00    +0.017 A 
ATOM      9  C   UNL     1       7.223  -5.261  22.408  0.00  0.00    +0.001 A 
ATOM     10  C   UNL     1       6.925  -3.950  22.052  0.00  0.00    +0.002 A 
ATOM     11  C   UNL     1       7.363  -2.889  22.846  0.00  0.00    +0.024 A 
BRANCH   7  12
ATOM     12  C   UNL     1       9.220  -4.730  25.578  0.00  0.00    +0.339 C 
ATOM     13  O   UNL     1       8.903  -4.342  26.690  0.00  0.00    -0.245 OA
BRANCH  12  14
ATOM     14  O   UNL     1      10.318  -5.485  25.357  0.00  0.00    -0.477 OA
ATOM     15  H   UNL     1      11.170  -5.022  25.463  0.00  0.00    +0.295 HD
ENDBRANCH  12  14
ENDBRANCH   7  12
ENDBRANCH   3   6
ENDBRANCH   1   2
BRANCH   1  16
ATOM     16  N   UNL     1       9.454   0.550  25.501  0.00  0.00    -0.335 N 
ATOM     17  H   UNL     1      10.283   0.857  26.031  0.00  0.00    +0.147 HD
BRANCH  16  19
ATOM     18  C   UNL     1       9.085   1.322  23.186  0.00  0.00    +0.041 A 
ATOM     19  C   UNL     1       9.037   1.535  24.588  0.00  0.00    +0.040 A 
ATOM     20  C   UNL     1       8.455   2.733  25.047  0.00  0.00    +0.046 A 
ATOM     21  C   UNL     1       7.943   3.679  24.155  0.00  0.00    +0.078 A 
ATOM     22 CL   UNL     1       7.291   5.151  24.762  0.00  0.00    -0.081 Cl
ATOM     23  C   UNL     1       7.958   3.422  22.791  0.00  0.00    +0.142 A 
ATOM     24  F   UNL     1       7.447   4.302  21.919  0.00  0.00    -0.204 F 
ATOM     25  C   UNL     1       8.519   2.251  22.300  0.00  0.00    +0.053 A 
BRANCH  18  27
ATOM     26  C   UNL     1       9.409  -0.334  21.241  0.00  0.00    +0.091 C 
ATOM     27  C   UNL     1       9.819   0.151  22.611  0.00  0.00    +0.162 C 
ATOM     28  O   UNL     1      10.758  -0.358  23.216  0.00  0.00    -0.292 OA
ENDBRANCH  18  27
ENDBRANCH  16  19
ENDBRANCH   1  16
TORSDOF 7
ENDMDL
MODEL 6
REMARK VINA RESULT:      -7.1      1.246      2.048
REMARK  Name = 
REMARK  8 active torsions:
REMARK  status: ('A' for Active; 'I' for Inactive)
REMARK    1  A    between atoms: C_1  and  C_2
REMARK    2  A    between atoms: C_2  and  C_4
REMARK    3  A    between atoms: C_11  and  N_12
REMARK    4  A    between atoms: N_12  and  C_13
REMARK    5  A    between atoms: C_13  and  C_14
REMARK    6  A    between atoms: N_16  and  C_17
REMARK    7  A    between atoms: C_22  and  C_23
REMARK    8  A    between atoms: C_23  and  O_24
REMARK                            x       y       z     vdW  Elec       q    Type
REMARK                         _______ _______ _______ _____ _____    ______ ____
ROOT
ATOM      1  C   UNL     1       9.653  -3.689  24.535  0.00  0.00    +0.198 C 
ENDROOT
BRANCH   1   2
ATOM      2  C   UNL     1       9.879  -2.365  23.803  0.00  0.00    +0.234 C 
ATOM      3  N   UNL     1       9.336  -1.274  24.463  0.00  0.00    -0.283 N 
ATOM      4  H   UNL     1       8.967  -1.460  25.402  0.00  0.00    +0.155 HD
ATOM      5  O   UNL     1      10.480  -2.340  22.731  0.00  0.00    -0.274 OA
BRANCH   3   6
ATOM      6  C   UNL     1       9.354   0.080  24.041  0.00  0.00    +0.047 A 
ATOM      7  C   UNL     1       8.177   0.692  23.550  0.00  0.00    +0.080 A 
ATOM      8  C   UNL     1       8.193   2.047  23.157  0.00  0.00    +0.017 A 
ATOM      9  C   UNL     1       9.360   2.799  23.267  0.00  0.00    +0.001 A 
ATOM     10  C   UNL     1      10.526   2.197  23.729  0.00  0.00    +0.002 A 
ATOM     11  C   UNL     1      10.523   0.850  24.098  0.00  0.00    +0.024 A 
BRANCH   7  12
ATOM     12  C   UNL     1       6.926  -0.095  23.411  0.00  0.00    +0.339 C 
ATOM     13  O   UNL     1       6.890  -1.173  22.841  0.00  0.00    -0.245 OA
BRANCH  12  14
ATOM     14  O   UNL     1       5.840   0.455  23.995  0.00  0.00    -0.477 OA
ATOM     15  H   UNL     1       5.939   1.386  24.266  0.00  0.00    +0.295 HD
ENDBRANCH  12  14
ENDBRANCH   7  12
ENDBRANCH   3   6
ENDBRANCH   1   2
BRANCH   1  16
ATOM     16  N   UNL     1       8.357  -3.700  25.223  0.00  0.00    -0.335 N 
ATOM     17  H   UNL     1       8.443  -3.748  26.249  0.00  0.00    +0.147 HD
BRANCH  16  19
ATOM     18  C   UNL     1       6.420  -5.174  25.632  0.00  0.00    +0.041 A 
ATOM     19  C   UNL     1       7.355  -4.569  24.753  0.00  0.00    +0.040 A 
ATOM     20  C   UNL     1       7.187  -4.782  23.372  0.00  0.00    +0.046 A 
ATOM     21  C   UNL     1       6.136  -5.561  22.881  0.00  0.00    +0.078 A 
ATOM     22 CL   UNL     1       6.003  -5.837  21.188  0.00  0.00    -0.081 Cl
ATOM     23  C   UNL     1       5.206  -6.100  23.760  0.00  0.00    +0.142 A 
ATOM     24  F   UNL     1       4.174  -6.827  23.310  0.00  0.00    -0.204 F 
ATOM     25  C   UNL     1       5.335  -5.909  25.129  0.00  0.00    +0.053 A 
BRANCH  18  27
ATOM     26  C   UNL     1       5.581  -4.388  27.936  0.00  0.00    +0.091 C 
ATOM     27  C   UNL     1       6.614  -5.124  27.115  0.00  0.00    +0.162 C 
ATOM     28  O   UNL     1       7.554  -5.709  27.645  0.00  0.00    -0.292 OA
ENDBRANCH  18  27
ENDBRANCH  16  19
ENDBRANCH   1  16
TORSDOF 7
ENDMDL
MODEL 7
REMARK VINA RESULT:      -7.1      2.030      3.215
REMARK  Name = 
REMARK  8 active torsions:
REMARK  status: ('A' for Active; 'I' for Inactive)
REMARK    1  A    between atoms: C_1  and  C_2
REMARK    2  A    between atoms: C_2  and  C_4
REMARK    3  A    between atoms: C_11  and  N_12
REMARK    4  A    between atoms: N_12  and  C_13
REMARK    5  A    between atoms: C_13  and  C_14
REMARK    6  A    between atoms: N_16  and  C_17
REMARK    7  A    between atoms: C_22  and  C_23
REMARK    8  A    between atoms: C_23  and  O_24
REMARK                            x       y       z     vdW  Elec       q    Type
REMARK                         _______ _______ _______ _____ _____    ______ ____
ROOT
ATOM      1  C   UNL     1       6.990  -3.108  22.304  0.00  0.00    +0.198 C 
ENDROOT
BRANCH   1   2
ATOM      2  C   UNL     1       8.181  -2.155  22.425  0.00  0.00    +0.234 C 
ATOM      3  N   UNL     1       7.817  -0.864  22.772  0.00  0.00    -0.283 N 
ATOM      4  H   UNL     1       6.831  -0.731  23.024  0.00  0.00    +0.155 HD
ATOM      5  O   UNL     1       9.324  -2.555  22.210  0.00  0.00    -0.274 OA
BRANCH   3   6
ATOM      6  C   UNL     1       8.675   0.253  22.942  0.00  0.00    +0.047 A 
ATOM      7  C   UNL     1       9.004   0.712  24.238  0.00  0.00    +0.080 A 
ATOM      8  C   UNL     1       9.880   1.806  24.403  0.00  0.00    +0.017 A 
ATOM      9  C   UNL     1      10.443   2.431  23.293  0.00  0.00    +0.001 A 
ATOM     10  C   UNL     1      10.106   1.998  22.015  0.00  0.00    +0.002 A 
ATOM     11  C   UNL     1       9.223   0.930  21.844  0.00  0.00    +0.024 A 
BRANCH   7  12
ATOM     12  C   UNL     1       8.404   0.070  25.435  0.00  0.00    +0.339 C 
ATOM     13  O   UNL     1       7.234  -0.272  25.477  0.00  0.00    -0.245 OA
BRANCH  12  14
ATOM     14  O   UNL     1       9.260  -0.141  26.457  0.00  0.00    -0.477 OA
ATOM     15  H   UNL     1       8.899  -0.654  27.204  0.00  0.00    +0.295 HD
ENDBRANCH  12  14
ENDBRANCH   7  12
ENDBRANCH   3   6
ENDBRANCH   1   2
BRANCH   1  16
ATOM     16  N   UNL     1       7.385  -4.490  22.602  0.00  0.00    -0.335 N 
ATOM     17  H   UNL     1       7.449  -5.083  21.761  0.00  0.00    +0.147 HD
BRANCH  16  19
ATOM     18  C   UNL     1       7.227  -5.114  24.985  0.00  0.00    +0.041 A 
ATOM     19  C   UNL     1       6.736  -5.161  23.654  0.00  0.00    +0.040 A 
ATOM     20  C   UNL     1       5.510  -5.818  23.433  0.00  0.00    +0.046 A 
ATOM     21  C   UNL     1       4.801  -6.402  24.484  0.00  0.00    +0.078 A 
ATOM     22 CL   UNL     1       3.334  -7.240  24.156  0.00  0.00    -0.081 Cl
ATOM     23  C   UNL     1       5.279  -6.299  25.783  0.00  0.00    +0.142 A 
ATOM     24  F   UNL     1       4.601  -6.828  26.812  0.00  0.00    -0.204 F 
ATOM     25  C   UNL     1       6.481  -5.655  26.043  0.00  0.00    +0.053 A 
BRANCH  18  27
ATOM     26  C   UNL     1       8.726  -3.606  26.437  0.00  0.00    +0.091 C 
ATOM     27  C   UNL     1       8.589  -4.571  25.283  0.00  0.00    +0.162 C 
ATOM     28  O   UNL     1       9.568  -4.944  24.642  0.00  0.00    -0.292 OA
ENDBRANCH  18  27
ENDBRANCH  16  19
ENDBRANCH   1  16
TORSDOF 7
ENDMDL
MODEL 8
REMARK VINA RESULT:      -7.0      2.672      3.653
REMARK  Name = 
REMARK  8 active torsions:
REMARK  status: ('A' for Active; 'I' for Inactive)
REMARK    1  A    between atoms: C_1  and  C_2
REMARK    2  A    between atoms: C_2  and  C_4
REMARK    3  A    between atoms: C_11  and  N_12
REMARK    4  A    between atoms: N_12  and  C_13
REMARK    5  A    between atoms: C_13  and  C_14
REMARK    6  A    between atoms: N_16  and  C_17
REMARK    7  A    between atoms: C_22  and  C_23
REMARK    8  A    between atoms: C_23  and  O_24
REMARK                            x       y       z     vdW  Elec       q    Type
REMARK                         _______ _______ _______ _____ _____    ______ ____
ROOT
ATOM      1  C   UNL     1       9.260  -2.717  24.179  0.00  0.00    +0.198 C 
ENDROOT
BRANCH   1   2
ATOM      2  C   UNL     1       8.817  -1.265  24.370  0.00  0.00    +0.234 C 
ATOM      3  N   UNL     1       7.956  -0.820  23.379  0.00  0.00    -0.283 N 
ATOM      4  H   UNL     1       7.626  -1.534  22.721  0.00  0.00    +0.155 HD
ATOM      5  O   UNL     1       9.228  -0.609  25.324  0.00  0.00    -0.274 OA
BRANCH   3   6
ATOM      6  C   UNL     1       7.385   0.473  23.256  0.00  0.00    +0.047 A 
ATOM      7  C   UNL     1       7.943   1.419  22.366  0.00  0.00    +0.080 A 
ATOM      8  C   UNL     1       7.355   2.695  22.227  0.00  0.00    +0.017 A 
ATOM      9  C   UNL     1       6.211   3.026  22.948  0.00  0.00    +0.001 A 
ATOM     10  C   UNL     1       5.671   2.107  23.842  0.00  0.00    +0.002 A 
ATOM     11  C   UNL     1       6.260   0.851  24.001  0.00  0.00    +0.024 A 
BRANCH   7  12
ATOM     12  C   UNL     1       9.170   1.093  21.599  0.00  0.00    +0.339 C 
ATOM     13  O   UNL     1       9.339   0.011  21.061  0.00  0.00    -0.245 OA
BRANCH  12  14
ATOM     14  O   UNL     1      10.069   2.097  21.508  0.00  0.00    -0.477 OA
ATOM     15  H   UNL     1      10.136   2.669  22.295  0.00  0.00    +0.295 HD
ENDBRANCH  12  14
ENDBRANCH   7  12
ENDBRANCH   3   6
ENDBRANCH   1   2
BRANCH   1  16
ATOM     16  N   UNL     1       8.282  -3.469  23.383  0.00  0.00    -0.335 N 
ATOM     17  H   UNL     1       7.838  -2.901  22.647  0.00  0.00    +0.147 HD
BRANCH  16  19
ATOM     18  C   UNL     1       6.296  -4.933  23.366  0.00  0.00    +0.041 A 
ATOM     19  C   UNL     1       7.338  -4.264  24.058  0.00  0.00    +0.040 A 
ATOM     20  C   UNL     1       7.464  -4.504  25.440  0.00  0.00    +0.046 A 
ATOM     21  C   UNL     1       6.595  -5.370  26.107  0.00  0.00    +0.078 A 
ATOM     22 CL   UNL     1       6.756  -5.590  27.807  0.00  0.00    -0.081 Cl
ATOM     23  C   UNL     1       5.616  -6.050  25.397  0.00  0.00    +0.142 A 
ATOM     24  F   UNL     1       4.788  -6.908  26.011  0.00  0.00    -0.204 F 
ATOM     25  C   UNL     1       5.462  -5.844  24.033  0.00  0.00    +0.053 A 
BRANCH  18  27
ATOM     26  C   UNL     1       6.199  -5.715  20.914  0.00  0.00    +0.091 C 
ATOM     27  C   UNL     1       5.997  -4.618  21.933  0.00  0.00    +0.162 C 
ATOM     28  O   UNL     1       5.553  -3.520  21.611  0.00  0.00    -0.292 OA
ENDBRANCH  18  27
ENDBRANCH  16  19
ENDBRANCH   1  16
TORSDOF 7
ENDMDL
MODEL 9
REMARK VINA RESULT:      -7.0      3.203      7.095
REMARK  Name = 
REMARK  8 active torsions:
REMARK  status: ('A' for Active; 'I' for Inactive)
REMARK    1  A    between atoms: C_1  and  C_2
REMARK    2  A    between atoms: C_2  and  C_4
REMARK    3  A    between atoms: C_11  and  N_12
REMARK    4  A    between atoms: N_12  and  C_13
REMARK    5  A    between atoms: C_13  and  C_14
REMARK    6  A    between atoms: N_16  and  C_17
REMARK    7  A    between atoms: C_22  and  C_23
REMARK    8  A    between atoms: C_23  and  O_24
REMARK                            x       y       z     vdW  Elec       q    Type
REMARK                         _______ _______ _______ _____ _____    ______ ____
ROOT
ATOM      1  C   UNL     1       9.427  -3.303  24.639  0.00  0.00    +0.198 C 
ENDROOT
BRANCH   1   2
ATOM      2  C   UNL     1       8.558  -4.560  24.573  0.00  0.00    +0.234 C 
ATOM      3  N   UNL     1       7.271  -4.363  25.049  0.00  0.00    -0.283 N 
ATOM      4  H   UNL     1       7.020  -3.392  25.266  0.00  0.00    +0.155 HD
ATOM      5  O   UNL     1       9.019  -5.614  24.141  0.00  0.00    -0.274 OA
BRANCH   3   6
ATOM      6  C   UNL     1       6.233  -5.326  25.142  0.00  0.00    +0.047 A 
ATOM      7  C   UNL     1       5.882  -5.880  26.395  0.00  0.00    +0.080 A 
ATOM      8  C   UNL     1       4.832  -6.817  26.487  0.00  0.00    +0.017 A 
ATOM      9  C   UNL     1       4.119  -7.190  25.351  0.00  0.00    +0.001 A 
ATOM     10  C   UNL     1       4.474  -6.666  24.113  0.00  0.00    +0.002 A 
ATOM     11  C   UNL     1       5.527  -5.755  24.011  0.00  0.00    +0.024 A 
BRANCH   7  12
ATOM     12  C   UNL     1       6.638  -5.507  27.617  0.00  0.00    +0.339 C 
ATOM     13  O   UNL     1       6.132  -4.886  28.536  0.00  0.00    -0.245 OA
BRANCH  12  14
ATOM     14  O   UNL     1       7.916  -5.941  27.651  0.00  0.00    -0.477 OA
ATOM     15  H   UNL     1       8.280  -6.231  26.793  0.00  0.00    +0.295 HD
ENDBRANCH  12  14
ENDBRANCH   7  12
ENDBRANCH   3   6
ENDBRANCH   1   2
BRANCH   1  16
ATOM     16  N   UNL     1       8.663  -2.158  25.150  0.00  0.00    -0.335 N 
ATOM     17  H   UNL     1       7.748  -2.424  25.542  0.00  0.00    +0.147 HD
BRANCH  16  19
ATOM     18  C   UNL     1       7.394  -0.728  23.590  0.00  0.00    +0.041 A 
ATOM     19  C   UNL     1       8.561  -1.008  24.346  0.00  0.00    +0.040 A 
ATOM     20  C   UNL     1       9.584  -0.040  24.352  0.00  0.00    +0.046 A 
ATOM     21  C   UNL     1       9.456   1.154  23.639  0.00  0.00    +0.078 A 
ATOM     22 CL   UNL     1      10.755   2.283  23.634  0.00  0.00    -0.081 Cl
ATOM     23  C   UNL     1       8.283   1.425  22.948  0.00  0.00    +0.142 A 
ATOM     24  F   UNL     1       8.126   2.576  22.280  0.00  0.00    -0.204 F 
ATOM     25  C   UNL     1       7.250   0.498  22.922  0.00  0.00    +0.053 A 
BRANCH  18  27
ATOM     26  C   UNL     1       6.361  -2.593  22.145  0.00  0.00    +0.091 C 
ATOM     27  C   UNL     1       6.329  -1.764  23.407  0.00  0.00    +0.162 C 
ATOM     28  O   UNL     1       5.491  -1.963  24.282  0.00  0.00    -0.292 OA
ENDBRANCH  18  27
ENDBRANCH  16  19
ENDBRANCH   1  16
TORSDOF 7
ENDMDL
