MODEL 1
REMARK VINA RESULT:      -6.6      0.000      0.000
REMARK  Name = 
REMARK  5 active torsions:
REMARK  status: ('A' for Active; 'I' for Inactive)
REMARK    1  A    between atoms: C_1  and  C_2
REMARK    2  A    between atoms: C_2  and  C_4
REMARK    3  A    between atoms: C_8  and  C_10
REMARK    4  A    between atoms: N_17  and  C_18
REMARK    5  A    between atoms: C_18  and  C_19
REMARK                            x       y       z     vdW  Elec       q    Type
REMARK                         _______ _______ _______ _____ _____    ______ ____
ROOT
ATOM      1  C   UNL     1       9.205  -0.601  22.968  0.00  0.00    +0.093 A 
ATOM      2  N   UNL     1       8.916   0.509  23.753  0.00  0.00    -0.211 N 
ATOM      3  C   UNL     1       9.398   1.616  23.069  0.00  0.00    +0.155 A 
ATOM      4  C   UNL     1       9.151   2.884  23.626  0.00  0.00    +0.051 A 
ATOM      5  C   UNL     1       8.483   2.970  24.778  0.00  0.00    +0.049 A 
ATOM      6  C   UNL     1       8.050   1.709  25.459  0.00  0.00    +0.140 A 
ATOM      7  N   UNL     1       7.404   1.843  26.667  0.00  0.00    -0.327 N 
ATOM      8  H   UNL     1       7.311   2.776  27.049  0.00  0.00    +0.148 HD
ATOM      9  N   UNL     1      10.015   1.286  21.957  0.00  0.00    -0.234 NA
ATOM     10  N   UNL     1       8.260   0.520  24.958  0.00  0.00    -0.150 NA
ATOM     11  C   UNL     1       9.902  -0.072  21.891  0.00  0.00    +0.141 A 
ENDROOT
BRANCH   1  14
ATOM     12  C   UNL     1       7.378  -3.888  22.597  0.00  0.00    +0.018 A 
ATOM     13  C   UNL     1       7.798  -2.565  22.406  0.00  0.00    +0.021 A 
ATOM     14  C   UNL     1       8.800  -1.991  23.212  0.00  0.00    +0.003 A 
ATOM     15  C   UNL     1       9.383  -2.780  24.210  0.00  0.00    +0.010 A 
ATOM     16  C   UNL     1       8.971  -4.102  24.407  0.00  0.00    +0.001 A 
ATOM     17  C   UNL     1       7.971  -4.652  23.606  0.00  0.00    +0.011 A 
BRANCH  12  19
ATOM     18  C   UNL     1       6.415  -5.975  21.408  0.00  0.00    +0.091 C 
ATOM     19  C   UNL     1       6.312  -4.511  21.755  0.00  0.00    +0.160 C 
ATOM     20  O   UNL     1       5.364  -3.833  21.366  0.00  0.00    -0.292 OA
ENDBRANCH  12  19
ENDBRANCH   1  14
BRANCH   7  21
ATOM     21  C   UNL     1       7.393   0.792  27.662  0.00  0.00    +0.106 C 
BRANCH  21  22
ATOM     22  C   UNL     1       6.794   1.329  28.928  0.00  0.00    +0.006 C 
ATOM     23  C   UNL     1       7.195   2.682  29.456  0.00  0.00    +0.005 C 
ATOM     24  C   UNL     1       7.623   1.440  30.186  0.00  0.00    +0.005 C 
ENDBRANCH  21  22
ENDBRANCH   7  21
TORSDOF 4
ENDMDL
MODEL 2
REMARK VINA RESULT:      -6.5      1.716      1.892
REMARK  Name = 
REMARK  5 active torsions:
REMARK  status: ('A' for Active; 'I' for Inactive)
REMARK    1  A    between atoms: C_1  and  C_2
REMARK    2  A    between atoms: C_2  and  C_4
REMARK    3  A    between atoms: C_8  and  C_10
REMARK    4  A    between atoms: N_17  and  C_18
REMARK    5  A    between atoms: C_18  and  C_19
REMARK                            x       y       z     vdW  Elec       q    Type
REMARK                         _______ _______ _______ _____ _____    ______ ____
ROOT
ATOM      1  C   UNL     1       8.834  -1.178  22.649  0.00  0.00    +0.093 A 
ATOM      2  N   UNL     1       8.035  -0.062  22.870  0.00  0.00    -0.211 N 
ATOM      3  C   UNL     1       8.500   0.934  22.022  0.00  0.00    +0.155 A 
ATOM      4  C   UNL     1       7.795   2.150  21.999  0.00  0.00    +0.051 A 
ATOM      5  C   UNL     1       6.729   2.301  22.788  0.00  0.00    +0.049 A 
ATOM      6  C   UNL     1       6.342   1.179  23.701  0.00  0.00    +0.140 A 
ATOM      7  N   UNL     1       5.264   1.395  24.530  0.00  0.00    -0.327 N 
ATOM      8  H   UNL     1       4.835   2.312  24.515  0.00  0.00    +0.148 HD
ATOM      9  N   UNL     1       9.555   0.554  21.338  0.00  0.00    -0.234 NA
ATOM     10  N   UNL     1       6.976   0.038  23.736  0.00  0.00    -0.150 NA
ATOM     11  C   UNL     1       9.766  -0.739  21.720  0.00  0.00    +0.141 A 
ENDROOT
BRANCH   1  14
ATOM     12  C   UNL     1       7.478  -4.657  23.229  0.00  0.00    +0.018 A 
ATOM     13  C   UNL     1       7.675  -3.370  22.711  0.00  0.00    +0.021 A 
ATOM     14  C   UNL     1       8.669  -2.517  23.229  0.00  0.00    +0.003 A 
ATOM     15  C   UNL     1       9.472  -2.990  24.272  0.00  0.00    +0.010 A 
ATOM     16  C   UNL     1       9.284  -4.274  24.793  0.00  0.00    +0.001 A 
ATOM     17  C   UNL     1       8.290  -5.102  24.276  0.00  0.00    +0.011 A 
BRANCH  12  19
ATOM     18  C   UNL     1       6.346  -5.814  21.209  0.00  0.00    +0.091 C 
ATOM     19  C   UNL     1       6.425  -5.573  22.695  0.00  0.00    +0.160 C 
ATOM     20  O   UNL     1       5.646  -6.127  23.468  0.00  0.00    -0.292 OA
ENDBRANCH  12  19
ENDBRANCH   1  14
BRANCH   7  21
ATOM     21  C   UNL     1       5.089   0.680  25.777  0.00  0.00    +0.106 C 
BRANCH  21  22
ATOM     22  C   UNL     1       5.906   1.351  26.840  0.00  0.00    +0.006 C 
ATOM     23  C   UNL     1       6.941   0.579  27.617  0.00  0.00    +0.005 C 
ATOM     24  C   UNL     1       5.682   1.034  28.300  0.00  0.00    +0.005 C 
ENDBRANCH  21  22
ENDBRANCH   7  21
TORSDOF 4
ENDMDL
MODEL 3
REMARK VINA RESULT:      -6.4      3.498      6.541
REMARK  Name = 
REMARK  5 active torsions:
REMARK  status: ('A' for Active; 'I' for Inactive)
REMARK    1  A    between atoms: C_1  and  C_2
REMARK    2  A    between atoms: C_2  and  C_4
REMARK    3  A    between atoms: C_8  and  C_10
REMARK    4  A    between atoms: N_17  and  C_18
REMARK    5  A    between atoms: C_18  and  C_19
REMARK                            x       y       z     vdW  Elec       q    Type
REMARK                         _______ _______ _______ _____ _____    ______ ____
ROOT
ATOM      1  C   UNL     1       9.613   1.421  22.969  0.00  0.00    +0.093 A 
ATOM      2  N   UNL     1       9.296   0.353  23.801  0.00  0.00    -0.211 N 
ATOM      3  C   UNL     1       9.486  -0.802  23.055  0.00  0.00    +0.155 A 
ATOM      4  C   UNL     1       9.309  -2.035  23.708  0.00  0.00    +0.051 A 
ATOM      5  C   UNL     1       8.960  -2.045  24.997  0.00  0.00    +0.049 A 
ATOM      6  C   UNL     1       8.734  -0.740  25.695  0.00  0.00    +0.140 A 
ATOM      7  N   UNL     1       8.332  -0.799  27.010  0.00  0.00    -0.327 N 
ATOM      8  H   UNL     1       8.159  -1.714  27.408  0.00  0.00    +0.148 HD
ATOM      9  N   UNL     1       9.833  -0.544  21.815  0.00  0.00    -0.234 NA
ATOM     10  N   UNL     1       8.900   0.418  25.112  0.00  0.00    -0.150 NA
ATOM     11  C   UNL     1       9.909   0.817  21.755  0.00  0.00    +0.141 A 
ENDROOT
BRANCH   1  14
ATOM     12  C   UNL     1      11.027   4.855  23.661  0.00  0.00    +0.018 A 
ATOM     13  C   UNL     1      10.917   3.499  23.324  0.00  0.00    +0.021 A 
ATOM     14  C   UNL     1       9.672   2.842  23.331  0.00  0.00    +0.003 A 
ATOM     15  C   UNL     1       8.534   3.581  23.671  0.00  0.00    +0.010 A 
ATOM     16  C   UNL     1       8.633   4.935  24.007  0.00  0.00    +0.001 A 
ATOM     17  C   UNL     1       9.875   5.568  24.004  0.00  0.00    +0.011 A 
BRANCH  12  19
ATOM     18  C   UNL     1      13.208   5.513  22.432  0.00  0.00    +0.091 C 
ATOM     19  C   UNL     1      12.341   5.567  23.665  0.00  0.00    +0.160 C 
ATOM     20  O   UNL     1      12.696   6.194  24.661  0.00  0.00    -0.292 OA
ENDBRANCH  12  19
ENDBRANCH   1  14
BRANCH   7  21
ATOM     21  C   UNL     1       7.593   0.272  27.645  0.00  0.00    +0.106 C 
BRANCH  21  22
ATOM     22  C   UNL     1       6.126   0.027  27.457  0.00  0.00    +0.006 C 
ATOM     23  C   UNL     1       5.149   1.175  27.436  0.00  0.00    +0.005 C 
ATOM     24  C   UNL     1       5.159   0.225  28.601  0.00  0.00    +0.005 C 
ENDBRANCH  21  22
ENDBRANCH   7  21
TORSDOF 4
ENDMDL
MODEL 4
REMARK VINA RESULT:      -6.3      2.941      4.410
REMARK  Name = 
REMARK  5 active torsions:
REMARK  status: ('A' for Active; 'I' for Inactive)
REMARK    1  A    between atoms: C_1  and  C_2
REMARK    2  A    between atoms: C_2  and  C_4
REMARK    3  A    between atoms: C_8  and  C_10
REMARK    4  A    between atoms: N_17  and  C_18
REMARK    5  A    between atoms: C_18  and  C_19
REMARK                            x       y       z     vdW  Elec       q    Type
REMARK                         _______ _______ _______ _____ _____    ______ ____
ROOT
ATOM      1  C   UNL     1       7.851  -2.608  24.170  0.00  0.00    +0.093 A 
ATOM      2  N   UNL     1       8.395  -1.569  23.423  0.00  0.00    -0.211 N 
ATOM      3  C   UNL     1       9.734  -1.876  23.231  0.00  0.00    +0.155 A 
ATOM      4  C   UNL     1      10.492  -1.008  22.425  0.00  0.00    +0.051 A 
ATOM      5  C   UNL     1       9.904   0.066  21.893  0.00  0.00    +0.049 A 
ATOM      6  C   UNL     1       8.463   0.330  22.204  0.00  0.00    +0.140 A 
ATOM      7  N   UNL     1       7.910   1.473  21.671  0.00  0.00    -0.327 N 
ATOM      8  H   UNL     1       8.521   2.092  21.152  0.00  0.00    +0.148 HD
ATOM      9  N   UNL     1      10.086  -2.984  23.844  0.00  0.00    -0.234 NA
ATOM     10  N   UNL     1       7.737  -0.465  22.943  0.00  0.00    -0.150 NA
ATOM     11  C   UNL     1       8.936  -3.436  24.424  0.00  0.00    +0.141 A 
ENDROOT
BRANCH   1  14
ATOM     12  C   UNL     1       4.325  -3.964  24.153  0.00  0.00    +0.018 A 
ATOM     13  C   UNL     1       5.673  -3.747  23.840  0.00  0.00    +0.021 A 
ATOM     14  C   UNL     1       6.442  -2.795  24.537  0.00  0.00    +0.003 A 
ATOM     15  C   UNL     1       5.830  -2.073  25.567  0.00  0.00    +0.010 A 
ATOM     16  C   UNL     1       4.486  -2.285  25.888  0.00  0.00    +0.001 A 
ATOM     17  C   UNL     1       3.736  -3.224  25.183  0.00  0.00    +0.011 A 
BRANCH  12  19
ATOM     18  C   UNL     1       2.029  -5.095  23.764  0.00  0.00    +0.091 C 
ATOM     19  C   UNL     1       3.492  -4.966  23.420  0.00  0.00    +0.160 C 
ATOM     20  O   UNL     1       3.999  -5.661  22.543  0.00  0.00    -0.292 OA
ENDBRANCH  12  19
ENDBRANCH   1  14
BRANCH   7  21
ATOM     21  C   UNL     1       6.765   2.131  22.264  0.00  0.00    +0.106 C 
BRANCH  21  22
ATOM     22  C   UNL     1       7.088   3.582  22.463  0.00  0.00    +0.006 C 
ATOM     23  C   UNL     1       8.272   4.000  23.296  0.00  0.00    +0.005 C 
ATOM     24  C   UNL     1       6.880   4.241  23.806  0.00  0.00    +0.005 C 
ENDBRANCH  21  22
ENDBRANCH   7  21
TORSDOF 4
ENDMDL
MODEL 5
REMARK VINA RESULT:      -6.3      3.227      7.173
REMARK  Name = 
REMARK  5 active torsions:
REMARK  status: ('A' for Active; 'I' for Inactive)
REMARK    1  A    between atoms: C_1  and  C_2
REMARK    2  A    between atoms: C_2  and  C_4
REMARK    3  A    between atoms: C_8  and  C_10
REMARK    4  A    between atoms: N_17  and  C_18
REMARK    5  A    between atoms: C_18  and  C_19
REMARK                            x       y       z     vdW  Elec       q    Type
REMARK                         _______ _______ _______ _____ _____    ______ ____
ROOT
ATOM      1  C   UNL     1       7.907  -0.250  25.082  0.00  0.00    +0.093 A 
ATOM      2  N   UNL     1       6.948  -1.244  24.921  0.00  0.00    -0.211 N 
ATOM      3  C   UNL     1       6.403  -1.477  26.176  0.00  0.00    +0.155 A 
ATOM      4  C   UNL     1       5.339  -2.393  26.263  0.00  0.00    +0.051 A 
ATOM      5  C   UNL     1       4.910  -3.001  25.154  0.00  0.00    +0.049 A 
ATOM      6  C   UNL     1       5.602  -2.712  23.858  0.00  0.00    +0.140 A 
ATOM      7  N   UNL     1       5.156  -3.395  22.749  0.00  0.00    -0.327 N 
ATOM      8  H   UNL     1       4.430  -4.088  22.884  0.00  0.00    +0.148 HD
ATOM      9  N   UNL     1       6.981  -0.760  27.112  0.00  0.00    -0.234 NA
ATOM     10  N   UNL     1       6.586  -1.860  23.750  0.00  0.00    -0.150 NA
ATOM     11  C   UNL     1       7.906  -0.008  26.448  0.00  0.00    +0.141 A 
ENDROOT
BRANCH   1  14
ATOM     12  C   UNL     1       9.954   2.376  23.297  0.00  0.00    +0.018 A 
ATOM     13  C   UNL     1       9.206   1.700  24.269  0.00  0.00    +0.021 A 
ATOM     14  C   UNL     1       8.683   0.415  24.027  0.00  0.00    +0.003 A 
ATOM     15  C   UNL     1       8.938  -0.184  22.789  0.00  0.00    +0.010 A 
ATOM     16  C   UNL     1       9.686   0.483  21.813  0.00  0.00    +0.001 A 
ATOM     17  C   UNL     1      10.189   1.758  22.065  0.00  0.00    +0.011 A 
BRANCH  12  19
ATOM     18  C   UNL     1       9.610   4.816  24.089  0.00  0.00    +0.091 C 
ATOM     19  C   UNL     1      10.512   3.742  23.534  0.00  0.00    +0.160 C 
ATOM     20  O   UNL     1      11.694   3.973  23.288  0.00  0.00    -0.292 OA
ENDBRANCH  12  19
ENDBRANCH   1  14
BRANCH   7  21
ATOM     21  C   UNL     1       5.997  -3.635  21.595  0.00  0.00    +0.106 C 
BRANCH  21  22
ATOM     22  C   UNL     1       6.149  -5.115  21.406  0.00  0.00    +0.006 C 
ATOM     23  C   UNL     1       5.931  -6.065  22.555  0.00  0.00    +0.005 C 
ATOM     24  C   UNL     1       7.317  -5.853  22.015  0.00  0.00    +0.005 C 
ENDBRANCH  21  22
ENDBRANCH   7  21
TORSDOF 4
ENDMDL
MODEL 6
REMARK VINA RESULT:      -6.2      1.782      2.541
REMARK  Name = 
REMARK  5 active torsions:
REMARK  status: ('A' for Active; 'I' for Inactive)
REMARK    1  A    between atoms: C_1  and  C_2
REMARK    2  A    between atoms: C_2  and  C_4
REMARK    3  A    between atoms: C_8  and  C_10
REMARK    4  A    between atoms: N_17  and  C_18
REMARK    5  A    between atoms: C_18  and  C_19
REMARK                            x       y       z     vdW  Elec       q    Type
REMARK                         _______ _______ _______ _____ _____    ______ ____
ROOT
ATOM      1  C   UNL     1       8.293  -1.620  22.936  0.00  0.00    +0.093 A 
ATOM      2  N   UNL     1       8.544  -0.439  23.625  0.00  0.00    -0.211 N 
ATOM      3  C   UNL     1       9.501   0.252  22.895  0.00  0.00    +0.155 A 
ATOM      4  C   UNL     1       9.867   1.532  23.348  0.00  0.00    +0.051 A 
ATOM      5  C   UNL     1       9.296   2.020  24.451  0.00  0.00    +0.049 A 
ATOM      6  C   UNL     1       8.309   1.171  25.191  0.00  0.00    +0.140 A 
ATOM      7  N   UNL     1       7.779   1.696  26.348  0.00  0.00    -0.327 N 
ATOM      8  H   UNL     1       8.127   2.595  26.658  0.00  0.00    +0.148 HD
ATOM      9  N   UNL     1       9.912  -0.423  21.846  0.00  0.00    -0.234 NA
ATOM     10  N   UNL     1       7.947  -0.017  24.786  0.00  0.00    -0.150 NA
ATOM     11  C   UNL     1       9.177  -1.573  21.867  0.00  0.00    +0.141 A 
ENDROOT
BRANCH   1  14
ATOM     12  C   UNL     1       6.555  -4.479  24.691  0.00  0.00    +0.018 A 
ATOM     13  C   UNL     1       7.492  -3.496  24.346  0.00  0.00    +0.021 A 
ATOM     14  C   UNL     1       7.280  -2.634  23.252  0.00  0.00    +0.003 A 
ATOM     15  C   UNL     1       6.098  -2.773  22.517  0.00  0.00    +0.010 A 
ATOM     16  C   UNL     1       5.156  -3.750  22.855  0.00  0.00    +0.001 A 
ATOM     17  C   UNL     1       5.386  -4.601  23.935  0.00  0.00    +0.011 A 
BRANCH  12  19
ATOM     18  C   UNL     1       7.974  -5.213  26.727  0.00  0.00    +0.091 C 
ATOM     19  C   UNL     1       6.767  -5.406  25.844  0.00  0.00    +0.160 C 
ATOM     20  O   UNL     1       5.955  -6.301  26.068  0.00  0.00    -0.292 OA
ENDBRANCH  12  19
ENDBRANCH   1  14
BRANCH   7  21
ATOM     21  C   UNL     1       7.258   0.863  27.411  0.00  0.00    +0.106 C 
BRANCH  21  22
ATOM     22  C   UNL     1       6.917   1.732  28.585  0.00  0.00    +0.006 C 
ATOM     23  C   UNL     1       7.553   1.493  29.930  0.00  0.00    +0.005 C 
ATOM     24  C   UNL     1       6.095   1.192  29.731  0.00  0.00    +0.005 C 
ENDBRANCH  21  22
ENDBRANCH   7  21
TORSDOF 4
ENDMDL
MODEL 7
REMARK VINA RESULT:      -6.2      2.126      2.813
REMARK  Name = 
REMARK  5 active torsions:
REMARK  status: ('A' for Active; 'I' for Inactive)
REMARK    1  A    between atoms: C_1  and  C_2
REMARK    2  A    between atoms: C_2  and  C_4
REMARK    3  A    between atoms: C_8  and  C_10
REMARK    4  A    between atoms: N_17  and  C_18
REMARK    5  A    between atoms: C_18  and  C_19
REMARK                            x       y       z     vdW  Elec       q    Type
REMARK                         _______ _______ _______ _____ _____    ______ ____
ROOT
ATOM      1  C   UNL     1       8.410  -0.949  22.365  0.00  0.00    +0.093 A 
ATOM      2  N   UNL     1       7.769   0.209  22.790  0.00  0.00    -0.211 N 
ATOM      3  C   UNL     1       8.340   1.260  22.086  0.00  0.00    +0.155 A 
ATOM      4  C   UNL     1       7.800   2.544  22.281  0.00  0.00    +0.051 A 
ATOM      5  C   UNL     1       6.782   2.700  23.130  0.00  0.00    +0.049 A 
ATOM      6  C   UNL     1       6.272   1.505  23.875  0.00  0.00    +0.140 A 
ATOM      7  N   UNL     1       5.252   1.720  24.774  0.00  0.00    -0.327 N 
ATOM      8  H   UNL     1       4.946   2.675  24.918  0.00  0.00    +0.148 HD
ATOM      9  N   UNL     1       9.321   0.865  21.306  0.00  0.00    -0.234 NA
ATOM     10  N   UNL     1       6.752   0.302  23.706  0.00  0.00    -0.150 NA
ATOM     11  C   UNL     1       9.370  -0.489  21.475  0.00  0.00    +0.141 A 
ENDROOT
BRANCH   1  14
ATOM     12  C   UNL     1       8.471  -4.232  24.234  0.00  0.00    +0.018 A 
ATOM     13  C   UNL     1       8.746  -2.917  23.836  0.00  0.00    +0.021 A 
ATOM     14  C   UNL     1       8.085  -2.331  22.739  0.00  0.00    +0.003 A 
ATOM     15  C   UNL     1       7.129  -3.091  22.057  0.00  0.00    +0.010 A 
ATOM     16  C   UNL     1       6.847  -4.404  22.449  0.00  0.00    +0.001 A 
ATOM     17  C   UNL     1       7.517  -4.972  23.530  0.00  0.00    +0.011 A 
BRANCH  12  19
ATOM     18  C   UNL     1       8.401  -5.106  26.669  0.00  0.00    +0.091 C 
ATOM     19  C   UNL     1       9.167  -4.872  25.392  0.00  0.00    +0.160 C 
ATOM     20  O   UNL     1      10.345  -5.209  25.289  0.00  0.00    -0.292 OA
ENDBRANCH  12  19
ENDBRANCH   1  14
BRANCH   7  21
ATOM     21  C   UNL     1       5.013   0.845  25.902  0.00  0.00    +0.106 C 
BRANCH  21  22
ATOM     22  C   UNL     1       5.427   1.550  27.159  0.00  0.00    +0.006 C 
ATOM     23  C   UNL     1       6.849   2.008  27.353  0.00  0.00    +0.005 C 
ATOM     24  C   UNL     1       6.316   0.866  28.170  0.00  0.00    +0.005 C 
ENDBRANCH  21  22
ENDBRANCH   7  21
TORSDOF 4
ENDMDL
MODEL 8
REMARK VINA RESULT:      -6.2      3.421      5.158
REMARK  Name = 
REMARK  5 active torsions:
REMARK  status: ('A' for Active; 'I' for Inactive)
REMARK    1  A    between atoms: C_1  and  C_2
REMARK    2  A    between atoms: C_2  and  C_4
REMARK    3  A    between atoms: C_8  and  C_10
REMARK    4  A    between atoms: N_17  and  C_18
REMARK    5  A    between atoms: C_18  and  C_19
REMARK                            x       y       z     vdW  Elec       q    Type
REMARK                         _______ _______ _______ _____ _____    ______ ____
ROOT
ATOM      1  C   UNL     1      10.305   3.302  23.433  0.00  0.00    +0.093 A 
ATOM      2  N   UNL     1       9.398   4.328  23.677  0.00  0.00    -0.211 N 
ATOM      3  C   UNL     1      10.138   5.499  23.768  0.00  0.00    +0.155 A 
ATOM      4  C   UNL     1       9.431   6.704  23.931  0.00  0.00    +0.051 A 
ATOM      5  C   UNL     1       8.098   6.673  24.002  0.00  0.00    +0.049 A 
ATOM      6  C   UNL     1       7.402   5.349  23.940  0.00  0.00    +0.140 A 
ATOM      7  N   UNL     1       6.030   5.361  24.063  0.00  0.00    -0.327 N 
ATOM      8  H   UNL     1       5.582   6.251  24.242  0.00  0.00    +0.148 HD
ATOM      9  N   UNL     1      11.429   5.283  23.663  0.00  0.00    -0.234 NA
ATOM     10  N   UNL     1       8.035   4.218  23.782  0.00  0.00    -0.150 NA
ATOM     11  C   UNL     1      11.538   3.938  23.461  0.00  0.00    +0.141 A 
ENDROOT
BRANCH   1  14
ATOM     12  C   UNL     1       9.422  -0.325  24.014  0.00  0.00    +0.018 A 
ATOM     13  C   UNL     1       9.722   1.027  24.228  0.00  0.00    +0.021 A 
ATOM     14  C   UNL     1       9.998   1.894  23.153  0.00  0.00    +0.003 A 
ATOM     15  C   UNL     1       9.953   1.377  21.854  0.00  0.00    +0.010 A 
ATOM     16  C   UNL     1       9.652   0.029  21.632  0.00  0.00    +0.001 A 
ATOM     17  C   UNL     1       9.391  -0.818  22.707  0.00  0.00    +0.011 A 
BRANCH  12  19
ATOM     18  C   UNL     1       8.838  -0.693  26.509  0.00  0.00    +0.091 C 
ATOM     19  C   UNL     1       9.132  -1.261  25.143  0.00  0.00    +0.160 C 
ATOM     20  O   UNL     1       9.125  -2.474  24.947  0.00  0.00    -0.292 OA
ENDBRANCH  12  19
ENDBRANCH   1  14
BRANCH   7  21
ATOM     21  C   UNL     1       5.284   4.215  24.538  0.00  0.00    +0.106 C 
BRANCH  21  22
ATOM     22  C   UNL     1       4.578   3.581  23.377  0.00  0.00    +0.006 C 
ATOM     23  C   UNL     1       3.674   4.395  22.487  0.00  0.00    +0.005 C 
ATOM     24  C   UNL     1       3.083   3.364  23.408  0.00  0.00    +0.005 C 
ENDBRANCH  21  22
ENDBRANCH   7  21
TORSDOF 4
ENDMDL
MODEL 9
REMARK VINA RESULT:      -6.1      4.792      7.025
REMARK  Name = 
REMARK  5 active torsions:
REMARK  status: ('A' for Active; 'I' for Inactive)
REMARK    1  A    between atoms: C_1  and  C_2
REMARK    2  A    between atoms: C_2  and  C_4
REMARK    3  A    between atoms: C_8  and  C_10
REMARK    4  A    between atoms: N_17  and  C_18
REMARK    5  A    between atoms: C_18  and  C_19
REMARK                            x       y       z     vdW  Elec       q    Type
REMARK                         _______ _______ _______ _____ _____    ______ ____
ROOT
ATOM      1  C   UNL     1       6.032  -4.813  23.576  0.00  0.00    +0.093 A 
ATOM      2  N   UNL     1       5.356  -5.632  24.473  0.00  0.00    -0.211 N 
ATOM      3  C   UNL     1       4.258  -6.143  23.795  0.00  0.00    +0.155 A 
ATOM      4  C   UNL     1       3.452  -7.077  24.472  0.00  0.00    +0.051 A 
ATOM      5  C   UNL     1       3.764  -7.421  25.723  0.00  0.00    +0.049 A 
ATOM      6  C   UNL     1       4.944  -6.772  26.378  0.00  0.00    +0.140 A 
ATOM      7  N   UNL     1       5.202  -7.123  27.685  0.00  0.00    -0.327 N 
ATOM      8  H   UNL     1       4.551  -7.751  28.140  0.00  0.00    +0.148 HD
ATOM      9  N   UNL     1       4.157  -5.666  22.576  0.00  0.00    -0.234 NA
ATOM     10  N   UNL     1       5.712  -5.908  25.769  0.00  0.00    -0.150 NA
ATOM     11  C   UNL     1       5.241  -4.848  22.436  0.00  0.00    +0.141 A 
ENDROOT
BRANCH   1  14
ATOM     12  C   UNL     1       8.682  -2.123  23.487  0.00  0.00    +0.018 A 
ATOM     13  C   UNL     1       7.479  -2.818  23.308  0.00  0.00    +0.021 A 
ATOM     14  C   UNL     1       7.314  -4.131  23.789  0.00  0.00    +0.003 A 
ATOM     15  C   UNL     1       8.382  -4.729  24.467  0.00  0.00    +0.010 A 
ATOM     16  C   UNL     1       9.586  -4.042  24.652  0.00  0.00    +0.001 A 
ATOM     17  C   UNL     1       9.736  -2.746  24.162  0.00  0.00    +0.011 A 
BRANCH  12  19
ATOM     18  C   UNL     1       9.693  -0.515  21.728  0.00  0.00    +0.091 C 
ATOM     19  C   UNL     1       8.877  -0.731  22.978  0.00  0.00    +0.160 C 
ATOM     20  O   UNL     1       8.366   0.216  23.572  0.00  0.00    -0.292 OA
ENDBRANCH  12  19
ENDBRANCH   1  14
BRANCH   7  21
ATOM     21  C   UNL     1       5.923  -6.256  28.593  0.00  0.00    +0.106 C 
BRANCH  21  22
ATOM     22  C   UNL     1       5.090  -6.039  29.820  0.00  0.00    +0.006 C 
ATOM     23  C   UNL     1       3.618  -5.735  29.708  0.00  0.00    +0.005 C 
ATOM     24  C   UNL     1       4.568  -4.664  30.164  0.00  0.00    +0.005 C 
ENDBRANCH  21  22
ENDBRANCH   7  21
TORSDOF 4
ENDMDL
