MODEL 1
REMARK VINA RESULT:      -4.8      0.000      0.000
REMARK  Name = 
REMARK  9 active torsions:
REMARK  status: ('A' for Active; 'I' for Inactive)
REMARK    1  A    between atoms: N_1  and  C_2
REMARK    2  A    between atoms: C_2  and  C_4
REMARK    3  A    between atoms: C_2  and  C_6
REMARK    4  A    between atoms: C_4  and  O_5
REMARK    5  A    between atoms: C_6  and  C_7
REMARK    6  A    between atoms: C_7  and  C_8
REMARK    7  A    between atoms: C_8  and  C_9
REMARK    8  A    between atoms: C_9  and  N_10
REMARK    9  A    between atoms: C_11  and  O_12
REMARK                            x       y       z     vdW  Elec       q    Type
REMARK                         _______ _______ _______ _____ _____    ______ ____
ROOT
ATOM      1  C   UNK     1       8.930  -2.429  24.244  0.00  0.00    +0.003 C 
ENDROOT
BRANCH   1   2
ATOM      2  C   UNK     1       8.677  -3.943  24.248  0.00  0.00    +0.021 C 
BRANCH   2   3
ATOM      3  C   UNK     1       9.068  -4.630  25.567  0.00  0.00    +0.076 C 
BRANCH   3   4
ATOM      4  N   UNK     1      10.219  -5.525  25.372  0.00  0.00    -0.325 NA
ATOM      5  H   UNK     1      10.522  -5.883  26.276  0.00  0.00    +0.119 HD
ATOM      6  H   UNK     1       9.952  -6.323  24.799  0.00  0.00    +0.119 HD
ENDBRANCH   3   4
BRANCH   3   7
ATOM      7  C   UNK     1       7.853  -5.388  26.143  0.00  0.00    +0.174 C 
BRANCH   7   8
ATOM      8  O   UNK     1       8.107  -5.808  27.481  0.00  0.00    -0.393 OA
ATOM      9  H   UNK     1       9.003  -5.506  27.704  0.00  0.00    +0.209 HD
ENDBRANCH   7   8
ENDBRANCH   3   7
ENDBRANCH   2   3
ENDBRANCH   1   2
BRANCH   1  10
ATOM     10  C   UNK     1      10.004  -2.000  23.238  0.00  0.00    +0.019 C 
BRANCH  10  11
ATOM     11  C   UNK     1       9.418  -1.566  21.895  0.00  0.00    +0.107 C 
BRANCH  11  12
ATOM     12  N   UNK     1       9.853  -0.240  21.512  0.00  0.00    -0.281 N 
ATOM     13  H   UNK     1      10.718  -0.164  21.003  0.00  0.00    +0.152 HD
ATOM     14  C   UNK     1       9.068   0.849  21.751  0.00  0.00    +0.398 C 
ATOM     15  O   UNK     1       7.963   0.834  22.265  0.00  0.00    -0.227 OA
BRANCH  14  16
ATOM     16  O   UNK     1       9.666   1.981  21.350  0.00  0.00    -0.466 OA
ATOM     17  H   UNK     1      10.630   1.929  21.437  0.00  0.00    +0.297 HD
ENDBRANCH  14  16
ENDBRANCH  11  12
ENDBRANCH  10  11
ENDBRANCH   1  10
TORSDOF 9
ENDMDL
MODEL 2
REMARK VINA RESULT:      -4.6      4.082      5.929
REMARK  Name = 
REMARK  9 active torsions:
REMARK  status: ('A' for Active; 'I' for Inactive)
REMARK    1  A    between atoms: N_1  and  C_2
REMARK    2  A    between atoms: C_2  and  C_4
REMARK    3  A    between atoms: C_2  and  C_6
REMARK    4  A    between atoms: C_4  and  O_5
REMARK    5  A    between atoms: C_6  and  C_7
REMARK    6  A    between atoms: C_7  and  C_8
REMARK    7  A    between atoms: C_8  and  C_9
REMARK    8  A    between atoms: C_9  and  N_10
REMARK    9  A    between atoms: C_11  and  O_12
REMARK                            x       y       z     vdW  Elec       q    Type
REMARK                         _______ _______ _______ _____ _____    ______ ____
ROOT
ATOM      1  C   UNK     1      10.332   2.143  23.057  0.00  0.00    +0.003 C 
ENDROOT
BRANCH   1   2
ATOM      2  C   UNK     1      10.524   0.831  23.831  0.00  0.00    +0.021 C 
BRANCH   2   3
ATOM      3  C   UNK     1       9.566  -0.289  23.393  0.00  0.00    +0.076 C 
BRANCH   3   4
ATOM      4  N   UNK     1       9.959  -1.576  23.985  0.00  0.00    -0.325 NA
ATOM      5  H   UNK     1       9.284  -2.290  23.713  0.00  0.00    +0.119 HD
ATOM      6  H   UNK     1      10.869  -1.865  23.631  0.00  0.00    +0.119 HD
ENDBRANCH   3   4
BRANCH   3   7
ATOM      7  C   UNK     1       9.518  -0.365  21.852  0.00  0.00    +0.174 C 
BRANCH   7   8
ATOM      8  O   UNK     1      10.167  -1.544  21.383  0.00  0.00    -0.393 OA
ATOM      9  H   UNK     1       9.955  -1.623  20.439  0.00  0.00    +0.209 HD
ENDBRANCH   7   8
ENDBRANCH   3   7
ENDBRANCH   2   3
ENDBRANCH   1   2
BRANCH   1  10
ATOM     10  C   UNK     1       9.863   3.302  23.944  0.00  0.00    +0.019 C 
BRANCH  10  11
ATOM     11  C   UNK     1      10.449   4.648  23.521  0.00  0.00    +0.107 C 
BRANCH  11  12
ATOM     12  N   UNK     1      11.823   4.532  23.082  0.00  0.00    -0.281 N 
ATOM     13  H   UNK     1      12.015   3.912  22.313  0.00  0.00    +0.152 HD
ATOM     14  C   UNK     1      12.800   5.309  23.632  0.00  0.00    +0.398 C 
ATOM     15  O   UNK     1      12.639   6.157  24.492  0.00  0.00    -0.227 OA
BRANCH  14  16
ATOM     16  O   UNK     1      14.003   5.024  23.110  0.00  0.00    -0.466 OA
ATOM     17  H   UNK     1      14.560   4.535  23.735  0.00  0.00    +0.297 HD
ENDBRANCH  14  16
ENDBRANCH  11  12
ENDBRANCH  10  11
ENDBRANCH   1  10
TORSDOF 9
ENDMDL
MODEL 3
REMARK VINA RESULT:      -4.5      2.224      2.740
REMARK  Name = 
REMARK  9 active torsions:
REMARK  status: ('A' for Active; 'I' for Inactive)
REMARK    1  A    between atoms: N_1  and  C_2
REMARK    2  A    between atoms: C_2  and  C_4
REMARK    3  A    between atoms: C_2  and  C_6
REMARK    4  A    between atoms: C_4  and  O_5
REMARK    5  A    between atoms: C_6  and  C_7
REMARK    6  A    between atoms: C_7  and  C_8
REMARK    7  A    between atoms: C_8  and  C_9
REMARK    8  A    between atoms: C_9  and  N_10
REMARK    9  A    between atoms: C_11  and  O_12
REMARK                            x       y       z     vdW  Elec       q    Type
REMARK                         _______ _______ _______ _____ _____    ______ ____
ROOT
ATOM      1  C   UNK     1       6.615  -4.624  24.194  0.00  0.00    +0.003 C 
ENDROOT
BRANCH   1   2
ATOM      2  C   UNK     1       7.100  -4.340  25.623  0.00  0.00    +0.021 C 
BRANCH   2   3
ATOM      3  C   UNK     1       8.098  -5.382  26.153  0.00  0.00    +0.076 C 
BRANCH   3   4
ATOM      4  N   UNK     1       7.708  -5.849  27.492  0.00  0.00    -0.325 NA
ATOM      5  H   UNK     1       7.009  -6.585  27.400  0.00  0.00    +0.119 HD
ATOM      6  H   UNK     1       8.511  -6.247  27.975  0.00  0.00    +0.119 HD
ENDBRANCH   3   4
BRANCH   3   7
ATOM      7  C   UNK     1       9.523  -4.789  26.154  0.00  0.00    +0.174 C 
BRANCH   7   8
ATOM      8  O   UNK     1      10.297  -5.330  25.086  0.00  0.00    -0.393 OA
ATOM      9  H   UNK     1      10.751  -4.582  24.663  0.00  0.00    +0.209 HD
ENDBRANCH   7   8
ENDBRANCH   3   7
ENDBRANCH   2   3
ENDBRANCH   1   2
BRANCH   1  10
ATOM     10  C   UNK     1       7.514  -4.004  23.119  0.00  0.00    +0.019 C 
BRANCH  10  11
ATOM     11  C   UNK     1       8.099  -2.657  23.540  0.00  0.00    +0.107 C 
BRANCH  11  12
ATOM     12  N   UNK     1       8.305  -1.773  22.413  0.00  0.00    -0.281 N 
ATOM     13  H   UNK     1       7.493  -1.336  22.010  0.00  0.00    +0.152 HD
ATOM     14  C   UNK     1       9.564  -1.475  21.980  0.00  0.00    +0.398 C 
ATOM     15  O   UNK     1      10.603  -1.876  22.475  0.00  0.00    -0.227 OA
BRANCH  14  16
ATOM     16  O   UNK     1       9.534  -0.668  20.908  0.00  0.00    -0.466 OA
ATOM     17  H   UNK     1       8.648  -0.308  20.754  0.00  0.00    +0.297 HD
ENDBRANCH  14  16
ENDBRANCH  11  12
ENDBRANCH  10  11
ENDBRANCH   1  10
TORSDOF 9
ENDMDL
MODEL 4
REMARK VINA RESULT:      -4.4      2.087      6.099
REMARK  Name = 
REMARK  9 active torsions:
REMARK  status: ('A' for Active; 'I' for Inactive)
REMARK    1  A    between atoms: N_1  and  C_2
REMARK    2  A    between atoms: C_2  and  C_4
REMARK    3  A    between atoms: C_2  and  C_6
REMARK    4  A    between atoms: C_4  and  O_5
REMARK    5  A    between atoms: C_6  and  C_7
REMARK    6  A    between atoms: C_7  and  C_8
REMARK    7  A    between atoms: C_8  and  C_9
REMARK    8  A    between atoms: C_9  and  N_10
REMARK    9  A    between atoms: C_11  and  O_12
REMARK                            x       y       z     vdW  Elec       q    Type
REMARK                         _______ _______ _______ _____ _____    ______ ____
ROOT
ATOM      1  C   UNK     1       8.687  -0.019  24.128  0.00  0.00    +0.003 C 
ENDROOT
BRANCH   1   2
ATOM      2  C   UNK     1       9.909   0.768  23.632  0.00  0.00    +0.021 C 
BRANCH   2   3
ATOM      3  C   UNK     1      10.057   0.779  22.102  0.00  0.00    +0.076 C 
BRANCH   3   4
ATOM      4  N   UNK     1       9.555   2.039  21.534  0.00  0.00    -0.325 NA
ATOM      5  H   UNK     1       9.418   1.924  20.532  0.00  0.00    +0.119 HD
ATOM      6  H   UNK     1       8.653   2.276  21.943  0.00  0.00    +0.119 HD
ENDBRANCH   3   4
BRANCH   3   7
ATOM      7  C   UNK     1       9.332  -0.442  21.497  0.00  0.00    +0.174 C 
BRANCH   7   8
ATOM      8  O   UNK     1      10.197  -1.574  21.453  0.00  0.00    -0.393 OA
ATOM      9  H   UNK     1      10.003  -2.042  20.624  0.00  0.00    +0.209 HD
ENDBRANCH   7   8
ENDBRANCH   3   7
ENDBRANCH   2   3
ENDBRANCH   1   2
BRANCH   1  10
ATOM     10  C   UNK     1       9.056  -1.179  25.059  0.00  0.00    +0.019 C 
BRANCH  10  11
ATOM     11  C   UNK     1       8.418  -2.502  24.640  0.00  0.00    +0.107 C 
BRANCH  11  12
ATOM     12  N   UNK     1       9.396  -3.558  24.491  0.00  0.00    -0.281 N 
ATOM     13  H   UNK     1      10.020  -3.506  23.704  0.00  0.00    +0.152 HD
ATOM     14  C   UNK     1       9.522  -4.532  25.437  0.00  0.00    +0.398 C 
ATOM     15  O   UNK     1       8.879  -4.612  26.470  0.00  0.00    -0.227 OA
BRANCH  14  16
ATOM     16  O   UNK     1      10.459  -5.429  25.095  0.00  0.00    -0.466 OA
ATOM     17  H   UNK     1      10.144  -6.032  24.403  0.00  0.00    +0.297 HD
ENDBRANCH  14  16
ENDBRANCH  11  12
ENDBRANCH  10  11
ENDBRANCH   1  10
TORSDOF 9
ENDMDL
MODEL 5
REMARK VINA RESULT:      -4.4      3.620      5.822
REMARK  Name = 
REMARK  9 active torsions:
REMARK  status: ('A' for Active; 'I' for Inactive)
REMARK    1  A    between atoms: N_1  and  C_2
REMARK    2  A    between atoms: C_2  and  C_4
REMARK    3  A    between atoms: C_2  and  C_6
REMARK    4  A    between atoms: C_4  and  O_5
REMARK    5  A    between atoms: C_6  and  C_7
REMARK    6  A    between atoms: C_7  and  C_8
REMARK    7  A    between atoms: C_8  and  C_9
REMARK    8  A    between atoms: C_9  and  N_10
REMARK    9  A    between atoms: C_11  and  O_12
REMARK                            x       y       z     vdW  Elec       q    Type
REMARK                         _______ _______ _______ _____ _____    ______ ____
ROOT
ATOM      1  C   UNK     1       9.406   0.282  21.370  0.00  0.00    +0.003 C 
ENDROOT
BRANCH   1   2
ATOM      2  C   UNK     1       8.243   1.226  21.706  0.00  0.00    +0.021 C 
BRANCH   2   3
ATOM      3  C   UNK     1       8.684   2.523  22.404  0.00  0.00    +0.076 C 
BRANCH   3   4
ATOM      4  N   UNK     1      10.150   2.616  22.462  0.00  0.00    -0.325 NA
ATOM      5  H   UNK     1      10.443   2.688  23.436  0.00  0.00    +0.119 HD
ATOM      6  H   UNK     1      10.573   1.774  22.076  0.00  0.00    +0.119 HD
ENDBRANCH   3   4
BRANCH   3   7
ATOM      7  C   UNK     1       8.056   2.599  23.812  0.00  0.00    +0.174 C 
BRANCH   7   8
ATOM      8  O   UNK     1       9.024   3.002  24.778  0.00  0.00    -0.393 OA
ATOM      9  H   UNK     1       9.849   3.172  24.292  0.00  0.00    +0.209 HD
ENDBRANCH   7   8
ENDBRANCH   3   7
ENDBRANCH   2   3
ENDBRANCH   1   2
BRANCH   1  10
ATOM     10  C   UNK     1       9.187  -1.148  21.878  0.00  0.00    +0.019 C 
BRANCH  10  11
ATOM     11  C   UNK     1      10.169  -1.542  22.979  0.00  0.00    +0.107 C 
BRANCH  11  12
ATOM     12  N   UNK     1       9.716  -1.127  24.290  0.00  0.00    -0.281 N 
ATOM     13  H   UNK     1       9.040  -1.711  24.755  0.00  0.00    +0.152 HD
ATOM     14  C   UNK     1      10.260  -0.039  24.905  0.00  0.00    +0.398 C 
ATOM     15  O   UNK     1      11.154   0.661  24.461  0.00  0.00    -0.227 OA
BRANCH  14  16
ATOM     16  O   UNK     1       9.681   0.193  26.094  0.00  0.00    -0.466 OA
ATOM     17  H   UNK     1       9.172  -0.573  26.400  0.00  0.00    +0.297 HD
ENDBRANCH  14  16
ENDBRANCH  11  12
ENDBRANCH  10  11
ENDBRANCH   1  10
TORSDOF 9
ENDMDL
MODEL 6
REMARK VINA RESULT:      -4.4      2.544      3.490
REMARK  Name = 
REMARK  9 active torsions:
REMARK  status: ('A' for Active; 'I' for Inactive)
REMARK    1  A    between atoms: N_1  and  C_2
REMARK    2  A    between atoms: C_2  and  C_4
REMARK    3  A    between atoms: C_2  and  C_6
REMARK    4  A    between atoms: C_4  and  O_5
REMARK    5  A    between atoms: C_6  and  C_7
REMARK    6  A    between atoms: C_7  and  C_8
REMARK    7  A    between atoms: C_8  and  C_9
REMARK    8  A    between atoms: C_9  and  N_10
REMARK    9  A    between atoms: C_11  and  O_12
REMARK                            x       y       z     vdW  Elec       q    Type
REMARK                         _______ _______ _______ _____ _____    ______ ____
ROOT
ATOM      1  C   UNK     1      10.823   0.533  24.105  0.00  0.00    +0.003 C 
ENDROOT
BRANCH   1   2
ATOM      2  C   UNK     1       9.707  -0.521  24.057  0.00  0.00    +0.021 C 
BRANCH   2   3
ATOM      3  C   UNK     1      10.141  -1.849  23.415  0.00  0.00    +0.076 C 
BRANCH   3   4
ATOM      4  N   UNK     1      10.201  -1.729  21.951  0.00  0.00    -0.325 NA
ATOM      5  H   UNK     1      11.087  -1.301  21.686  0.00  0.00    +0.119 HD
ATOM      6  H   UNK     1      10.164  -2.650  21.519  0.00  0.00    +0.119 HD
ENDBRANCH   3   4
BRANCH   3   7
ATOM      7  C   UNK     1       9.183  -2.978  23.851  0.00  0.00    +0.174 C 
BRANCH   7   8
ATOM      8  O   UNK     1       9.903  -4.040  24.472  0.00  0.00    -0.393 OA
ATOM      9  H   UNK     1       9.263  -4.533  25.012  0.00  0.00    +0.209 HD
ENDBRANCH   7   8
ENDBRANCH   3   7
ENDBRANCH   2   3
ENDBRANCH   1   2
BRANCH   1  10
ATOM     10  C   UNK     1      10.392   1.891  23.539  0.00  0.00    +0.019 C 
BRANCH  10  11
ATOM     11  C   UNK     1       9.930   1.808  22.085  0.00  0.00    +0.107 C 
BRANCH  11  12
ATOM     12  N   UNK     1       8.856   2.736  21.798  0.00  0.00    -0.281 N 
ATOM     13  H   UNK     1       9.109   3.641  21.437  0.00  0.00    +0.152 HD
ATOM     14  C   UNK     1       7.553   2.357  21.925  0.00  0.00    +0.398 C 
ATOM     15  O   UNK     1       7.159   1.252  22.255  0.00  0.00    -0.227 OA
BRANCH  14  16
ATOM     16  O   UNK     1       6.719   3.371  21.644  0.00  0.00    -0.466 OA
ATOM     17  H   UNK     1       6.782   4.081  22.300  0.00  0.00    +0.297 HD
ENDBRANCH  14  16
ENDBRANCH  11  12
ENDBRANCH  10  11
ENDBRANCH   1  10
TORSDOF 9
ENDMDL
MODEL 7
REMARK VINA RESULT:      -4.4      2.200      6.510
REMARK  Name = 
REMARK  9 active torsions:
REMARK  status: ('A' for Active; 'I' for Inactive)
REMARK    1  A    between atoms: N_1  and  C_2
REMARK    2  A    between atoms: C_2  and  C_4
REMARK    3  A    between atoms: C_2  and  C_6
REMARK    4  A    between atoms: C_4  and  O_5
REMARK    5  A    between atoms: C_6  and  C_7
REMARK    6  A    between atoms: C_7  and  C_8
REMARK    7  A    between atoms: C_8  and  C_9
REMARK    8  A    between atoms: C_9  and  N_10
REMARK    9  A    between atoms: C_11  and  O_12
REMARK                            x       y       z     vdW  Elec       q    Type
REMARK                         _______ _______ _______ _____ _____    ______ ____
ROOT
ATOM      1  C   UNK     1      10.038  -0.793  24.122  0.00  0.00    +0.003 C 
ENDROOT
BRANCH   1   2
ATOM      2  C   UNK     1      10.709   0.488  24.635  0.00  0.00    +0.021 C 
BRANCH   2   3
ATOM      3  C   UNK     1      10.111   1.776  24.046  0.00  0.00    +0.076 C 
BRANCH   3   4
ATOM      4  N   UNK     1       9.063   2.318  24.923  0.00  0.00    -0.325 NA
ATOM      5  H   UNK     1       9.497   2.872  25.660  0.00  0.00    +0.119 HD
ATOM      6  H   UNK     1       8.447   2.935  24.398  0.00  0.00    +0.119 HD
ENDBRANCH   3   4
BRANCH   3   7
ATOM      7  C   UNK     1       9.574   1.501  22.625  0.00  0.00    +0.174 C 
BRANCH   7   8
ATOM      8  O   UNK     1      10.269   2.287  21.660  0.00  0.00    -0.393 OA
ATOM      9  H   UNK     1      11.190   2.353  21.964  0.00  0.00    +0.209 HD
ENDBRANCH   7   8
ENDBRANCH   3   7
ENDBRANCH   2   3
ENDBRANCH   1   2
BRANCH   1  10
ATOM     10  C   UNK     1       9.031  -1.385  25.116  0.00  0.00    +0.019 C 
BRANCH  10  11
ATOM     11  C   UNK     1       8.413  -2.693  24.625  0.00  0.00    +0.107 C 
BRANCH  11  12
ATOM     12  N   UNK     1       9.374  -3.775  24.594  0.00  0.00    -0.281 N 
ATOM     13  H   UNK     1      10.005  -3.813  23.811  0.00  0.00    +0.152 HD
ATOM     14  C   UNK     1       9.477  -4.647  25.637  0.00  0.00    +0.398 C 
ATOM     15  O   UNK     1       8.826  -4.610  26.667  0.00  0.00    -0.227 OA
BRANCH  14  16
ATOM     16  O   UNK     1      10.402  -5.590  25.396  0.00  0.00    -0.466 OA
ATOM     17  H   UNK     1      11.076  -5.617  26.092  0.00  0.00    +0.297 HD
ENDBRANCH  14  16
ENDBRANCH  11  12
ENDBRANCH  10  11
ENDBRANCH   1  10
TORSDOF 9
ENDMDL
MODEL 8
REMARK VINA RESULT:      -4.4      3.798      4.381
REMARK  Name = 
REMARK  9 active torsions:
REMARK  status: ('A' for Active; 'I' for Inactive)
REMARK    1  A    between atoms: N_1  and  C_2
REMARK    2  A    between atoms: C_2  and  C_4
REMARK    3  A    between atoms: C_2  and  C_6
REMARK    4  A    between atoms: C_4  and  O_5
REMARK    5  A    between atoms: C_6  and  C_7
REMARK    6  A    between atoms: C_7  and  C_8
REMARK    7  A    between atoms: C_8  and  C_9
REMARK    8  A    between atoms: C_9  and  N_10
REMARK    9  A    between atoms: C_11  and  O_12
REMARK                            x       y       z     vdW  Elec       q    Type
REMARK                         _______ _______ _______ _____ _____    ______ ____
ROOT
ATOM      1  C   UNK     1       7.510  -3.224  24.826  0.00  0.00    +0.003 C 
ENDROOT
BRANCH   1   2
ATOM      2  C   UNK     1       8.920  -3.363  25.415  0.00  0.00    +0.021 C 
BRANCH   2   3
ATOM      3  C   UNK     1       9.171  -4.715  26.102  0.00  0.00    +0.076 C 
BRANCH   3   4
ATOM      4  N   UNK     1      10.101  -5.540  25.316  0.00  0.00    -0.325 NA
ATOM      5  H   UNK     1      10.250  -6.426  25.795  0.00  0.00    +0.119 HD
ATOM      6  H   UNK     1       9.702  -5.747  24.402  0.00  0.00    +0.119 HD
ENDBRANCH   3   4
BRANCH   3   7
ATOM      7  C   UNK     1       7.829  -5.442  26.334  0.00  0.00    +0.174 C 
BRANCH   7   8
ATOM      8  O   UNK     1       7.744  -5.934  27.669  0.00  0.00    -0.393 OA
ATOM      9  H   UNK     1       6.878  -5.658  28.014  0.00  0.00    +0.209 HD
ENDBRANCH   7   8
ENDBRANCH   3   7
ENDBRANCH   2   3
ENDBRANCH   1   2
BRANCH   1  10
ATOM     10  C   UNK     1       7.489  -2.484  23.483  0.00  0.00    +0.019 C 
BRANCH  10  11
ATOM     11  C   UNK     1       7.455  -3.431  22.285  0.00  0.00    +0.107 C 
BRANCH  11  12
ATOM     12  N   UNK     1       6.988  -4.752  22.646  0.00  0.00    -0.281 N 
ATOM     13  H   UNK     1       7.130  -5.053  23.596  0.00  0.00    +0.152 HD
ATOM     14  C   UNK     1       6.297  -5.517  21.752  0.00  0.00    +0.398 C 
ATOM     15  O   UNK     1       5.990  -5.190  20.619  0.00  0.00    -0.227 OA
BRANCH  14  16
ATOM     16  O   UNK     1       5.984  -6.714  22.271  0.00  0.00    -0.466 OA
ATOM     17  H   UNK     1       5.255  -7.135  21.790  0.00  0.00    +0.297 HD
ENDBRANCH  14  16
ENDBRANCH  11  12
ENDBRANCH  10  11
ENDBRANCH   1  10
TORSDOF 9
ENDMDL
MODEL 9
REMARK VINA RESULT:      -4.2      5.605      7.238
REMARK  Name = 
REMARK  9 active torsions:
REMARK  status: ('A' for Active; 'I' for Inactive)
REMARK    1  A    between atoms: N_1  and  C_2
REMARK    2  A    between atoms: C_2  and  C_4
REMARK    3  A    between atoms: C_2  and  C_6
REMARK    4  A    between atoms: C_4  and  O_5
REMARK    5  A    between atoms: C_6  and  C_7
REMARK    6  A    between atoms: C_7  and  C_8
REMARK    7  A    between atoms: C_8  and  C_9
REMARK    8  A    between atoms: C_9  and  N_10
REMARK    9  A    between atoms: C_11  and  O_12
REMARK                            x       y       z     vdW  Elec       q    Type
REMARK                         _______ _______ _______ _____ _____    ______ ____
ROOT
ATOM      1  C   UNK     1       9.652   3.553  24.189  0.00  0.00    +0.003 C 
ENDROOT
BRANCH   1   2
ATOM      2  C   UNK     1       8.730   2.375  23.848  0.00  0.00    +0.021 C 
BRANCH   2   3
ATOM      3  C   UNK     1       9.004   1.756  22.468  0.00  0.00    +0.076 C 
BRANCH   3   4
ATOM      4  N   UNK     1      10.167   2.391  21.829  0.00  0.00    -0.325 NA
ATOM      5  H   UNK     1      10.746   2.827  22.546  0.00  0.00    +0.119 HD
ATOM      6  H   UNK     1      10.736   1.691  21.358  0.00  0.00    +0.119 HD
ENDBRANCH   3   4
BRANCH   3   7
ATOM      7  C   UNK     1       7.743   1.867  21.584  0.00  0.00    +0.174 C 
BRANCH   7   8
ATOM      8  O   UNK     1       6.603   1.345  22.262  0.00  0.00    -0.393 OA
ATOM      9  H   UNK     1       6.048   2.107  22.502  0.00  0.00    +0.209 HD
ENDBRANCH   7   8
ENDBRANCH   3   7
ENDBRANCH   2   3
ENDBRANCH   1   2
BRANCH   1  10
ATOM     10  C   UNK     1       9.076   4.910  23.768  0.00  0.00    +0.019 C 
BRANCH  10  11
ATOM     11  C   UNK     1      10.155   5.969  23.547  0.00  0.00    +0.107 C 
BRANCH  11  12
ATOM     12  N   UNK     1      11.416   5.388  23.135  0.00  0.00    -0.281 N 
ATOM     13  H   UNK     1      11.424   4.853  22.283  0.00  0.00    +0.152 HD
ATOM     14  C   UNK     1      12.562   5.641  23.829  0.00  0.00    +0.398 C 
ATOM     15  O   UNK     1      12.660   6.360  24.808  0.00  0.00    -0.227 OA
BRANCH  14  16
ATOM     16  O   UNK     1      13.608   4.984  23.303  0.00  0.00    -0.466 OA
ATOM     17  H   UNK     1      14.132   4.538  23.986  0.00  0.00    +0.297 HD
ENDBRANCH  14  16
ENDBRANCH  11  12
ENDBRANCH  10  11
ENDBRANCH   1  10
TORSDOF 9
ENDMDL
