MODEL 1
REMARK VINA RESULT:      -4.4      0.000      0.000
REMARK  Name = 
REMARK  3 active torsions:
REMARK  status: ('A' for Active; 'I' for Inactive)
REMARK    1  A    between atoms: O_1  and  C_2
REMARK    2  A    between atoms: C_2  and  C_4
REMARK    3  A    between atoms: C_5  and  C_6
REMARK                            x       y       z     vdW  Elec       q    Type
REMARK                         _______ _______ _______ _____ _____    ______ ____
ROOT
ATOM      1  C   UNL     1       7.218  -5.241  22.452  0.00  0.00    +0.093 C 
ATOM      2  C   UNL     1       6.944  -5.054  23.753  0.00  0.00    +0.036 C 
ENDROOT
BRANCH   2   3
ATOM      3  C   UNL     1       7.932  -5.077  24.771  0.00  0.00    +0.082 A 
ATOM      4  N   UNL     1       9.266  -4.950  24.484  0.00  0.00    -0.237 NA
ATOM      5  C   UNL     1       9.871  -5.025  25.647  0.00  0.00    +0.197 A 
ATOM      6  N   UNL     1       8.980  -5.194  26.669  0.00  0.00    -0.350 N 
ATOM      7  H   UNL     1       9.211  -5.281  27.649  0.00  0.00    +0.166 HD
ATOM      8  C   UNL     1       7.725  -5.229  26.120  0.00  0.00    +0.111 A 
ENDBRANCH   2   3
BRANCH   1   9
ATOM      9  C   UNL     1       6.130  -5.214  21.462  0.00  0.00    +0.330 C 
ATOM     10  O   UNL     1       5.746  -4.214  20.881  0.00  0.00    -0.246 OA
BRANCH   9  11
ATOM     11  O   UNL     1       5.595  -6.435  21.266  0.00  0.00    -0.478 OA
ATOM     12  H   UNL     1       6.203  -7.182  21.421  0.00  0.00    +0.295 HD
ENDBRANCH   9  11
ENDBRANCH   1   9
TORSDOF 3
ENDMDL
MODEL 2
REMARK VINA RESULT:      -4.3      3.590      4.127
REMARK  Name = 
REMARK  3 active torsions:
REMARK  status: ('A' for Active; 'I' for Inactive)
REMARK    1  A    between atoms: O_1  and  C_2
REMARK    2  A    between atoms: C_2  and  C_4
REMARK    3  A    between atoms: C_5  and  C_6
REMARK                            x       y       z     vdW  Elec       q    Type
REMARK                         _______ _______ _______ _____ _____    ______ ____
ROOT
ATOM      1  C   UNL     1       9.929  -2.649  23.757  0.00  0.00    +0.093 C 
ATOM      2  C   UNL     1       9.064  -2.632  24.784  0.00  0.00    +0.036 C 
ENDROOT
BRANCH   2   3
ATOM      3  C   UNL     1       8.725  -3.783  25.541  0.00  0.00    +0.082 A 
ATOM      4  N   UNL     1       7.678  -3.781  26.426  0.00  0.00    -0.237 NA
ATOM      5  C   UNL     1       7.669  -4.989  26.942  0.00  0.00    +0.197 A 
ATOM      6  N   UNL     1       8.666  -5.766  26.422  0.00  0.00    -0.350 N 
ATOM      7  H   UNL     1       8.858  -6.727  26.669  0.00  0.00    +0.166 HD
ATOM      8  C   UNL     1       9.356  -5.003  25.517  0.00  0.00    +0.111 A 
ENDBRANCH   2   3
BRANCH   1   9
ATOM      9  C   UNL     1      10.215  -1.411  23.018  0.00  0.00    +0.330 C 
ATOM     10  O   UNL     1      10.404  -0.323  23.533  0.00  0.00    -0.246 OA
BRANCH   9  11
ATOM     11  O   UNL     1      10.245  -1.614  21.686  0.00  0.00    -0.478 OA
ATOM     12  H   UNL     1       9.692  -2.351  21.368  0.00  0.00    +0.295 HD
ENDBRANCH   9  11
ENDBRANCH   1   9
TORSDOF 3
ENDMDL
MODEL 3
REMARK VINA RESULT:      -4.3      4.163      4.936
REMARK  Name = 
REMARK  3 active torsions:
REMARK  status: ('A' for Active; 'I' for Inactive)
REMARK    1  A    between atoms: O_1  and  C_2
REMARK    2  A    between atoms: C_2  and  C_4
REMARK    3  A    between atoms: C_5  and  C_6
REMARK                            x       y       z     vdW  Elec       q    Type
REMARK                         _______ _______ _______ _____ _____    ______ ____
ROOT
ATOM      1  C   UNL     1       8.724  -4.277  24.491  0.00  0.00    +0.093 C 
ATOM      2  C   UNL     1       9.526  -3.204  24.407  0.00  0.00    +0.036 C 
ENDROOT
BRANCH   2   3
ATOM      3  C   UNL     1       9.371  -2.186  23.430  0.00  0.00    +0.082 A 
ATOM      4  N   UNL     1      10.378  -1.867  22.556  0.00  0.00    -0.237 NA
ATOM      5  C   UNL     1       9.891  -0.894  21.820  0.00  0.00    +0.197 A 
ATOM      6  N   UNL     1       8.613  -0.577  22.186  0.00  0.00    -0.350 N 
ATOM      7  H   UNL     1       8.037   0.140  21.766  0.00  0.00    +0.166 HD
ATOM      8  C   UNL     1       8.263  -1.402  23.222  0.00  0.00    +0.111 A 
ENDBRANCH   2   3
BRANCH   1   9
ATOM      9  C   UNL     1       8.963  -5.292  25.528  0.00  0.00    +0.330 C 
ATOM     10  O   UNL     1       8.100  -5.771  26.242  0.00  0.00    -0.246 OA
BRANCH   9  11
ATOM     11  O   UNL     1      10.264  -5.638  25.605  0.00  0.00    -0.478 OA
ATOM     12  H   UNL     1      10.892  -4.893  25.579  0.00  0.00    +0.295 HD
ENDBRANCH   9  11
ENDBRANCH   1   9
TORSDOF 3
ENDMDL
MODEL 4
REMARK VINA RESULT:      -4.2      5.815      6.331
REMARK  Name = 
REMARK  3 active torsions:
REMARK  status: ('A' for Active; 'I' for Inactive)
REMARK    1  A    between atoms: O_1  and  C_2
REMARK    2  A    between atoms: C_2  and  C_4
REMARK    3  A    between atoms: C_5  and  C_6
REMARK                            x       y       z     vdW  Elec       q    Type
REMARK                         _______ _______ _______ _____ _____    ______ ____
ROOT
ATOM      1  C   UNL     1       8.988  -1.676  23.197  0.00  0.00    +0.093 C 
ATOM      2  C   UNL     1       9.917  -0.811  23.633  0.00  0.00    +0.036 C 
ENDROOT
BRANCH   2   3
ATOM      3  C   UNL     1      10.070   0.501  23.115  0.00  0.00    +0.082 A 
ATOM      4  N   UNL     1      10.489   1.542  23.901  0.00  0.00    -0.237 NA
ATOM      5  C   UNL     1      10.504   2.585  23.103  0.00  0.00    +0.197 A 
ATOM      6  N   UNL     1      10.112   2.254  21.836  0.00  0.00    -0.350 N 
ATOM      7  H   UNL     1      10.042   2.889  21.052  0.00  0.00    +0.166 HD
ATOM      8  C   UNL     1       9.830   0.914  21.827  0.00  0.00    +0.111 A 
ENDBRANCH   2   3
BRANCH   1   9
ATOM      9  C   UNL     1       8.906  -3.022  23.783  0.00  0.00    +0.330 C 
ATOM     10  O   UNL     1       7.879  -3.667  23.899  0.00  0.00    -0.246 OA
BRANCH   9  11
ATOM     11  O   UNL     1      10.112  -3.471  24.185  0.00  0.00    -0.478 OA
ATOM     12  H   UNL     1      10.842  -3.313  23.557  0.00  0.00    +0.295 HD
ENDBRANCH   9  11
ENDBRANCH   1   9
TORSDOF 3
ENDMDL
MODEL 5
REMARK VINA RESULT:      -4.2      8.942      9.693
REMARK  Name = 
REMARK  3 active torsions:
REMARK  status: ('A' for Active; 'I' for Inactive)
REMARK    1  A    between atoms: O_1  and  C_2
REMARK    2  A    between atoms: C_2  and  C_4
REMARK    3  A    between atoms: C_5  and  C_6
REMARK                            x       y       z     vdW  Elec       q    Type
REMARK                         _______ _______ _______ _____ _____    ______ ____
ROOT
ATOM      1  C   UNL     1      11.694   4.040  23.400  0.00  0.00    +0.093 C 
ATOM      2  C   UNL     1      10.519   3.393  23.458  0.00  0.00    +0.036 C 
ENDROOT
BRANCH   2   3
ATOM      3  C   UNL     1      10.367   2.017  23.150  0.00  0.00    +0.082 A 
ATOM      4  N   UNL     1       9.891   1.598  21.935  0.00  0.00    -0.237 NA
ATOM      5  C   UNL     1       9.877   0.286  22.011  0.00  0.00    +0.197 A 
ATOM      6  N   UNL     1      10.325  -0.153  23.225  0.00  0.00    -0.350 N 
ATOM      7  H   UNL     1      10.400  -1.118  23.515  0.00  0.00    +0.166 HD
ATOM      8  C   UNL     1      10.646   0.951  23.970  0.00  0.00    +0.111 A 
ENDBRANCH   2   3
BRANCH   1   9
ATOM      9  C   UNL     1      11.760   5.472  23.725  0.00  0.00    +0.330 C 
ATOM     10  O   UNL     1      10.801   6.225  23.744  0.00  0.00    -0.246 OA
BRANCH   9  11
ATOM     11  O   UNL     1      13.017   5.870  24.002  0.00  0.00    -0.478 OA
ATOM     12  H   UNL     1      13.688   5.161  23.983  0.00  0.00    +0.295 HD
ENDBRANCH   9  11
ENDBRANCH   1   9
TORSDOF 3
ENDMDL
MODEL 6
REMARK VINA RESULT:      -4.2     10.346     10.994
REMARK  Name = 
REMARK  3 active torsions:
REMARK  status: ('A' for Active; 'I' for Inactive)
REMARK    1  A    between atoms: O_1  and  C_2
REMARK    2  A    between atoms: C_2  and  C_4
REMARK    3  A    between atoms: C_5  and  C_6
REMARK                            x       y       z     vdW  Elec       q    Type
REMARK                         _______ _______ _______ _____ _____    ______ ____
ROOT
ATOM      1  C   UNL     1      12.147   5.331  23.013  0.00  0.00    +0.093 C 
ATOM      2  C   UNL     1      11.696   4.093  23.271  0.00  0.00    +0.036 C 
ENDROOT
BRANCH   2   3
ATOM      3  C   UNL     1      10.397   3.824  23.776  0.00  0.00    +0.082 A 
ATOM      4  N   UNL     1       9.566   4.828  24.198  0.00  0.00    -0.237 NA
ATOM      5  C   UNL     1       8.475   4.217  24.601  0.00  0.00    +0.197 A 
ATOM      6  N   UNL     1       8.573   2.862  24.454  0.00  0.00    -0.350 N 
ATOM      7  H   UNL     1       7.862   2.186  24.698  0.00  0.00    +0.166 HD
ATOM      8  C   UNL     1       9.806   2.593  23.922  0.00  0.00    +0.111 A 
ENDBRANCH   2   3
BRANCH   1   9
ATOM      9  C   UNL     1      13.513   5.522  22.501  0.00  0.00    +0.330 C 
ATOM     10  O   UNL     1      13.792   6.105  21.468  0.00  0.00    -0.246 OA
BRANCH   9  11
ATOM     11  O   UNL     1      14.437   4.970  23.313  0.00  0.00    -0.478 OA
ATOM     12  H   UNL     1      14.288   5.115  24.266  0.00  0.00    +0.295 HD
ENDBRANCH   9  11
ENDBRANCH   1   9
TORSDOF 3
ENDMDL
MODEL 7
REMARK VINA RESULT:      -4.1      7.536      8.238
REMARK  Name = 
REMARK  3 active torsions:
REMARK  status: ('A' for Active; 'I' for Inactive)
REMARK    1  A    between atoms: O_1  and  C_2
REMARK    2  A    between atoms: C_2  and  C_4
REMARK    3  A    between atoms: C_5  and  C_6
REMARK                            x       y       z     vdW  Elec       q    Type
REMARK                         _______ _______ _______ _____ _____    ______ ____
ROOT
ATOM      1  C   UNL     1       9.445   2.649  23.614  0.00  0.00    +0.093 C 
ATOM      2  C   UNL     1      10.109   2.039  22.619  0.00  0.00    +0.036 C 
ENDROOT
BRANCH   2   3
ATOM      3  C   UNL     1       9.983   0.657  22.327  0.00  0.00    +0.082 A 
ATOM      4  N   UNL     1      10.557  -0.303  23.119  0.00  0.00    -0.237 NA
ATOM      5  C   UNL     1      10.247  -1.444  22.548  0.00  0.00    +0.197 A 
ATOM      6  N   UNL     1       9.495  -1.256  21.422  0.00  0.00    -0.350 N 
ATOM      7  H   UNL     1       9.141  -1.984  20.817  0.00  0.00    +0.166 HD
ATOM      8  C   UNL     1       9.315   0.093  21.266  0.00  0.00    +0.111 A 
ENDBRANCH   2   3
BRANCH   1   9
ATOM      9  C   UNL     1       9.644   4.086  23.855  0.00  0.00    +0.330 C 
ATOM     10  O   UNL     1       8.898   4.789  24.514  0.00  0.00    -0.246 OA
BRANCH   9  11
ATOM     11  O   UNL     1      10.760   4.548  23.258  0.00  0.00    -0.478 OA
ATOM     12  H   UNL     1      10.765   5.507  23.078  0.00  0.00    +0.295 HD
ENDBRANCH   9  11
ENDBRANCH   1   9
TORSDOF 3
ENDMDL
MODEL 8
REMARK VINA RESULT:      -4.0      5.474      6.134
REMARK  Name = 
REMARK  3 active torsions:
REMARK  status: ('A' for Active; 'I' for Inactive)
REMARK    1  A    between atoms: O_1  and  C_2
REMARK    2  A    between atoms: C_2  and  C_4
REMARK    3  A    between atoms: C_5  and  C_6
REMARK                            x       y       z     vdW  Elec       q    Type
REMARK                         _______ _______ _______ _____ _____    ______ ____
ROOT
ATOM      1  C   UNL     1       9.381   0.588  22.974  0.00  0.00    +0.093 C 
ATOM      2  C   UNL     1       9.992  -0.607  22.962  0.00  0.00    +0.036 C 
ENDROOT
BRANCH   2   3
ATOM      3  C   UNL     1       9.307  -1.838  23.133  0.00  0.00    +0.082 A 
ATOM      4  N   UNL     1       8.252  -2.192  22.332  0.00  0.00    -0.237 NA
ATOM      5  C   UNL     1       7.868  -3.366  22.779  0.00  0.00    +0.197 A 
ATOM      6  N   UNL     1       8.634  -3.779  23.833  0.00  0.00    -0.350 N 
ATOM      7  H   UNL     1       8.524  -4.646  24.341  0.00  0.00    +0.166 HD
ATOM      8  C   UNL     1       9.566  -2.805  24.073  0.00  0.00    +0.111 A 
ENDBRANCH   2   3
BRANCH   1   9
ATOM      9  C   UNL     1      10.171   1.817  22.801  0.00  0.00    +0.330 C 
ATOM     10  O   UNL     1      10.796   2.371  23.688  0.00  0.00    -0.246 OA
BRANCH   9  11
ATOM     11  O   UNL     1      10.125   2.271  21.533  0.00  0.00    -0.478 OA
ATOM     12  H   UNL     1       9.529   1.778  20.939  0.00  0.00    +0.295 HD
ENDBRANCH   9  11
ENDBRANCH   1   9
TORSDOF 3
ENDMDL
MODEL 9
REMARK VINA RESULT:      -3.9      4.555      5.466
REMARK  Name = 
REMARK  3 active torsions:
REMARK  status: ('A' for Active; 'I' for Inactive)
REMARK    1  A    between atoms: O_1  and  C_2
REMARK    2  A    between atoms: C_2  and  C_4
REMARK    3  A    between atoms: C_5  and  C_6
REMARK                            x       y       z     vdW  Elec       q    Type
REMARK                         _______ _______ _______ _____ _____    ______ ____
ROOT
ATOM      1  C   UNL     1       9.536  -0.870  24.951  0.00  0.00    +0.093 C 
ATOM      2  C   UNL     1       9.717  -1.789  23.990  0.00  0.00    +0.036 C 
ENDROOT
BRANCH   2   3
ATOM      3  C   UNL     1       9.127  -3.079  24.019  0.00  0.00    +0.082 A 
ATOM      4  N   UNL     1       9.676  -4.107  24.741  0.00  0.00    -0.237 NA
ATOM      5  C   UNL     1       8.882  -5.131  24.528  0.00  0.00    +0.197 A 
ATOM      6  N   UNL     1       7.846  -4.803  23.700  0.00  0.00    -0.350 N 
ATOM      7  H   UNL     1       7.113  -5.426  23.392  0.00  0.00    +0.166 HD
ATOM      8  C   UNL     1       7.990  -3.483  23.363  0.00  0.00    +0.111 A 
ENDBRANCH   2   3
BRANCH   1   9
ATOM      9  C   UNL     1      10.196   0.440  24.848  0.00  0.00    +0.330 C 
ATOM     10  O   UNL     1      11.358   0.608  24.523  0.00  0.00    -0.246 OA
BRANCH   9  11
ATOM     11  O   UNL     1       9.361   1.451  25.157  0.00  0.00    -0.478 OA
ATOM     12  H   UNL     1       8.453   1.357  24.814  0.00  0.00    +0.295 HD
ENDBRANCH   9  11
ENDBRANCH   1   9
TORSDOF 3
ENDMDL
