MODEL 1
REMARK VINA RESULT:      -5.8      0.000      0.000
REMARK  Name = 
REMARK  8 active torsions:
REMARK  status: ('A' for Active; 'I' for Inactive)
REMARK    1  A    between atoms: C_2  and  C_3
REMARK    2  A    between atoms: C_2  and  C_5
REMARK    3  A    between atoms: C_2  and  C_12
REMARK    4  A    between atoms: C_3  and  S_4
REMARK    5  A    between atoms: C_5  and  C_6
REMARK    6  A    between atoms: N_14  and  C_15
REMARK    7  A    between atoms: C_15  and  C_16
REMARK    8  A    between atoms: C_16  and  O_17
REMARK                            x       y       z     vdW  Elec       q    Type
REMARK                         _______ _______ _______ _____ _____    ______ ____
ROOT
ATOM      1  C   UNL     1       9.349   3.008  23.690  0.00  0.00    +0.089 C 
ENDROOT
BRANCH   1   2
ATOM      2  C   UNL     1      10.071   4.352  23.754  0.00  0.00    +0.218 C 
ATOM      3  N   UNL     1      11.303   4.418  23.131  0.00  0.00    -0.305 N 
ATOM      4  H   UNL     1      11.806   3.552  22.980  0.00  0.00    +0.149 HD
ATOM      5  O   UNL     1       9.529   5.355  24.207  0.00  0.00    -0.275 OA
BRANCH   3   6
ATOM      6  C   UNL     1      12.134   5.620  23.264  0.00  0.00    +0.224 C 
BRANCH   6   7
ATOM      7  C   UNL     1      13.485   5.518  22.557  0.00  0.00    +0.322 C 
ATOM      8  O   UNL     1      13.692   5.931  21.424  0.00  0.00    -0.249 OA
BRANCH   7   9
ATOM      9  O   UNL     1      14.462   4.976  23.320  0.00  0.00    -0.480 OA
ATOM     10  H   UNL     1      14.307   5.214  24.254  0.00  0.00    +0.295 HD
ENDBRANCH   7   9
ENDBRANCH   6   7
ENDBRANCH   3   6
ENDBRANCH   1   2
BRANCH   1  11
ATOM     11  C   UNL     1       7.845   3.295  23.788  0.00  0.00    +0.078 C 
BRANCH  11  12
ATOM     12  S   UNL     1       7.008   3.420  22.180  0.00  0.00    -0.177 S 
ATOM     13  H   UNL     1       7.540   2.315  21.634  0.00  0.00    +0.102 HD
ENDBRANCH  11  12
ENDBRANCH   1  11
BRANCH   1  14
ATOM     14  C   UNL     1       9.745   2.184  22.450  0.00  0.00    +0.048 C 
BRANCH  14  15
ATOM     15  C   UNL     1       9.748   0.693  22.702  0.00  0.00    -0.047 A 
ATOM     16  C   UNL     1       9.974   0.185  23.988  0.00  0.00    +0.003 A 
ATOM     17  C   UNL     1       9.952  -1.193  24.217  0.00  0.00    +0.000 A 
ATOM     18  C   UNL     1       9.710  -2.074  23.165  0.00  0.00    +0.000 A 
ATOM     19  C   UNL     1       9.502  -1.581  21.880  0.00  0.00    +0.000 A 
ATOM     20  C   UNL     1       9.528  -0.205  21.647  0.00  0.00    +0.003 A 
ENDBRANCH  14  15
ENDBRANCH   1  14
TORSDOF 8
ENDMDL
MODEL 2
REMARK VINA RESULT:      -5.7      5.974      8.222
REMARK  Name = 
REMARK  8 active torsions:
REMARK  status: ('A' for Active; 'I' for Inactive)
REMARK    1  A    between atoms: C_2  and  C_3
REMARK    2  A    between atoms: C_2  and  C_5
REMARK    3  A    between atoms: C_2  and  C_12
REMARK    4  A    between atoms: C_3  and  S_4
REMARK    5  A    between atoms: C_5  and  C_6
REMARK    6  A    between atoms: N_14  and  C_15
REMARK    7  A    between atoms: C_15  and  C_16
REMARK    8  A    between atoms: C_16  and  O_17
REMARK                            x       y       z     vdW  Elec       q    Type
REMARK                         _______ _______ _______ _____ _____    ______ ____
ROOT
ATOM      1  C   UNL     1       9.055  -2.779  24.239  0.00  0.00    +0.089 C 
ENDROOT
BRANCH   1   2
ATOM      2  C   UNL     1       7.682  -2.913  23.582  0.00  0.00    +0.218 C 
ATOM      3  N   UNL     1       7.454  -4.073  22.866  0.00  0.00    -0.305 N 
ATOM      4  H   UNL     1       8.259  -4.586  22.525  0.00  0.00    +0.149 HD
ATOM      5  O   UNL     1       6.783  -2.107  23.797  0.00  0.00    -0.275 OA
BRANCH   3   6
ATOM      6  C   UNL     1       6.224  -4.227  22.081  0.00  0.00    +0.224 C 
BRANCH   6   7
ATOM      7  C   UNL     1       6.150  -5.538  21.299  0.00  0.00    +0.322 C 
ATOM      8  O   UNL     1       6.006  -5.598  20.085  0.00  0.00    -0.249 OA
BRANCH   7   9
ATOM      9  O   UNL     1       6.316  -6.641  22.064  0.00  0.00    -0.480 OA
ATOM     10  H   UNL     1       5.741  -7.354  21.726  0.00  0.00    +0.295 HD
ENDBRANCH   7   9
ENDBRANCH   6   7
ENDBRANCH   3   6
ENDBRANCH   1   2
BRANCH   1  11
ATOM     11  C   UNL     1       9.411  -4.148  24.832  0.00  0.00    +0.078 C 
BRANCH  11  12
ATOM     12  S   UNL     1       8.689  -4.457  26.470  0.00  0.00    -0.177 S 
ATOM     13  H   UNL     1       8.825  -5.793  26.458  0.00  0.00    +0.102 HD
ENDBRANCH  11  12
ENDBRANCH   1  11
BRANCH   1  14
ATOM     14  C   UNL     1      10.119  -2.223  23.274  0.00  0.00    +0.048 C 
BRANCH  14  15
ATOM     15  C   UNL     1      10.127  -0.712  23.203  0.00  0.00    -0.047 A 
ATOM     16  C   UNL     1      10.425   0.056  24.336  0.00  0.00    +0.003 A 
ATOM     17  C   UNL     1      10.454   1.450  24.256  0.00  0.00    +0.000 A 
ATOM     18  C   UNL     1      10.180   2.088  23.048  0.00  0.00    +0.000 A 
ATOM     19  C   UNL     1       9.864   1.336  21.921  0.00  0.00    +0.000 A 
ATOM     20  C   UNL     1       9.831  -0.057  21.999  0.00  0.00    +0.003 A 
ENDBRANCH  14  15
ENDBRANCH   1  14
TORSDOF 8
ENDMDL
MODEL 3
REMARK VINA RESULT:      -5.7      5.954      8.277
REMARK  Name = 
REMARK  8 active torsions:
REMARK  status: ('A' for Active; 'I' for Inactive)
REMARK    1  A    between atoms: C_2  and  C_3
REMARK    2  A    between atoms: C_2  and  C_5
REMARK    3  A    between atoms: C_2  and  C_12
REMARK    4  A    between atoms: C_3  and  S_4
REMARK    5  A    between atoms: C_5  and  C_6
REMARK    6  A    between atoms: N_14  and  C_15
REMARK    7  A    between atoms: C_15  and  C_16
REMARK    8  A    between atoms: C_16  and  O_17
REMARK                            x       y       z     vdW  Elec       q    Type
REMARK                         _______ _______ _______ _____ _____    ______ ____
ROOT
ATOM      1  C   UNL     1       9.053  -2.743  24.227  0.00  0.00    +0.089 C 
ENDROOT
BRANCH   1   2
ATOM      2  C   UNL     1       7.684  -2.907  23.569  0.00  0.00    +0.218 C 
ATOM      3  N   UNL     1       7.531  -3.995  22.731  0.00  0.00    -0.305 N 
ATOM      4  H   UNL     1       8.365  -4.406  22.330  0.00  0.00    +0.149 HD
ATOM      5  O   UNL     1       6.732  -2.198  23.877  0.00  0.00    -0.275 OA
BRANCH   3   6
ATOM      6  C   UNL     1       6.303  -4.154  21.943  0.00  0.00    +0.224 C 
BRANCH   6   7
ATOM      7  C   UNL     1       6.190  -5.506  21.242  0.00  0.00    +0.322 C 
ATOM      8  O   UNL     1       5.985  -5.636  20.042  0.00  0.00    -0.249 OA
BRANCH   7   9
ATOM      9  O   UNL     1       6.393  -6.565  22.060  0.00  0.00    -0.480 OA
ATOM     10  H   UNL     1       7.190  -6.402  22.600  0.00  0.00    +0.295 HD
ENDBRANCH   7   9
ENDBRANCH   6   7
ENDBRANCH   3   6
ENDBRANCH   1   2
BRANCH   1  11
ATOM     11  C   UNL     1       9.417  -4.091  24.861  0.00  0.00    +0.078 C 
BRANCH  11  12
ATOM     12  S   UNL     1       8.615  -4.397  26.463  0.00  0.00    -0.177 S 
ATOM     13  H   UNL     1       8.948  -3.230  27.036  0.00  0.00    +0.102 HD
ENDBRANCH  11  12
ENDBRANCH   1  11
BRANCH   1  14
ATOM     14  C   UNL     1      10.117  -2.208  23.249  0.00  0.00    +0.048 C 
BRANCH  14  15
ATOM     15  C   UNL     1      10.147  -0.699  23.170  0.00  0.00    -0.047 A 
ATOM     16  C   UNL     1       9.806  -0.037  21.983  0.00  0.00    +0.003 A 
ATOM     17  C   UNL     1       9.813   1.359  21.925  0.00  0.00    +0.000 A 
ATOM     18  C   UNL     1      10.165   2.104  23.048  0.00  0.00    +0.000 A 
ATOM     19  C   UNL     1      10.523   1.458  24.227  0.00  0.00    +0.000 A 
ATOM     20  C   UNL     1      10.521   0.063  24.287  0.00  0.00    +0.003 A 
ENDBRANCH  14  15
ENDBRANCH   1  14
TORSDOF 8
ENDMDL
MODEL 4
REMARK VINA RESULT:      -5.6      5.459      7.701
REMARK  Name = 
REMARK  8 active torsions:
REMARK  status: ('A' for Active; 'I' for Inactive)
REMARK    1  A    between atoms: C_2  and  C_3
REMARK    2  A    between atoms: C_2  and  C_5
REMARK    3  A    between atoms: C_2  and  C_12
REMARK    4  A    between atoms: C_3  and  S_4
REMARK    5  A    between atoms: C_5  and  C_6
REMARK    6  A    between atoms: N_14  and  C_15
REMARK    7  A    between atoms: C_15  and  C_16
REMARK    8  A    between atoms: C_16  and  O_17
REMARK                            x       y       z     vdW  Elec       q    Type
REMARK                         _______ _______ _______ _____ _____    ______ ____
ROOT
ATOM      1  C   UNL     1       8.318  -2.382  22.688  0.00  0.00    +0.089 C 
ENDROOT
BRANCH   1   2
ATOM      2  C   UNL     1       8.961  -2.916  23.966  0.00  0.00    +0.218 C 
ATOM      3  N   UNL     1       8.110  -3.163  25.026  0.00  0.00    -0.305 N 
ATOM      4  H   UNL     1       7.219  -2.682  25.041  0.00  0.00    +0.149 HD
ATOM      5  O   UNL     1      10.143  -3.244  24.005  0.00  0.00    -0.275 OA
BRANCH   3   6
ATOM      6  C   UNL     1       8.652  -3.537  26.338  0.00  0.00    +0.224 C 
BRANCH   6   7
ATOM      7  C   UNL     1       8.681  -5.044  26.587  0.00  0.00    +0.322 C 
ATOM      8  O   UNL     1       7.879  -5.631  27.302  0.00  0.00    -0.249 OA
BRANCH   7   9
ATOM      9  O   UNL     1       9.647  -5.694  25.898  0.00  0.00    -0.480 OA
ATOM     10  H   UNL     1       9.439  -5.658  24.945  0.00  0.00    +0.295 HD
ENDBRANCH   7   9
ENDBRANCH   6   7
ENDBRANCH   3   6
ENDBRANCH   1   2
BRANCH   1  11
ATOM     11  C   UNL     1       7.410  -3.491  22.139  0.00  0.00    +0.078 C 
BRANCH  11  12
ATOM     12  S   UNL     1       5.635  -3.125  22.267  0.00  0.00    -0.177 S 
ATOM     13  H   UNL     1       5.682  -2.507  23.457  0.00  0.00    +0.102 HD
ENDBRANCH  11  12
ENDBRANCH   1  11
BRANCH   1  14
ATOM     14  C   UNL     1       7.597  -1.039  22.907  0.00  0.00    +0.048 C 
BRANCH  14  15
ATOM     15  C   UNL     1       8.544   0.134  23.016  0.00  0.00    -0.047 A 
ATOM     16  C   UNL     1       9.231   0.608  21.892  0.00  0.00    +0.003 A 
ATOM     17  C   UNL     1      10.086   1.707  21.997  0.00  0.00    +0.000 A 
ATOM     18  C   UNL     1      10.266   2.339  23.225  0.00  0.00    +0.000 A 
ATOM     19  C   UNL     1       9.603   1.866  24.354  0.00  0.00    +0.000 A 
ATOM     20  C   UNL     1       8.751   0.765  24.252  0.00  0.00    +0.003 A 
ENDBRANCH  14  15
ENDBRANCH   1  14
TORSDOF 8
ENDMDL
MODEL 5
REMARK VINA RESULT:      -5.2      3.587      6.189
REMARK  Name = 
REMARK  8 active torsions:
REMARK  status: ('A' for Active; 'I' for Inactive)
REMARK    1  A    between atoms: C_2  and  C_3
REMARK    2  A    between atoms: C_2  and  C_5
REMARK    3  A    between atoms: C_2  and  C_12
REMARK    4  A    between atoms: C_3  and  S_4
REMARK    5  A    between atoms: C_5  and  C_6
REMARK    6  A    between atoms: N_14  and  C_15
REMARK    7  A    between atoms: C_15  and  C_16
REMARK    8  A    between atoms: C_16  and  O_17
REMARK                            x       y       z     vdW  Elec       q    Type
REMARK                         _______ _______ _______ _____ _____    ______ ____
ROOT
ATOM      1  C   UNL     1       8.791   2.057  22.250  0.00  0.00    +0.089 C 
ENDROOT
BRANCH   1   2
ATOM      2  C   UNL     1       9.334   0.646  22.033  0.00  0.00    +0.218 C 
ATOM      3  N   UNL     1       9.828  -0.001  23.150  0.00  0.00    -0.305 N 
ATOM      4  H   UNL     1      10.124   0.566  23.935  0.00  0.00    +0.149 HD
ATOM      5  O   UNL     1       9.208   0.064  20.961  0.00  0.00    -0.275 OA
BRANCH   3   6
ATOM      6  C   UNL     1      10.502  -1.298  23.014  0.00  0.00    +0.224 C 
BRANCH   6   7
ATOM      7  C   UNL     1       9.626  -2.492  23.391  0.00  0.00    +0.322 C 
ATOM      8  O   UNL     1       9.971  -3.369  24.173  0.00  0.00    -0.249 OA
BRANCH   7   9
ATOM      9  O   UNL     1       8.398  -2.470  22.823  0.00  0.00    -0.480 OA
ATOM     10  H   UNL     1       7.866  -1.765  23.241  0.00  0.00    +0.295 HD
ENDBRANCH   7   9
ENDBRANCH   6   7
ENDBRANCH   3   6
ENDBRANCH   1   2
BRANCH   1  11
ATOM     11  C   UNL     1       7.305   2.035  21.873  0.00  0.00    +0.078 C 
BRANCH  11  12
ATOM     12  S   UNL     1       6.388   3.519  22.383  0.00  0.00    -0.177 S 
ATOM     13  H   UNL     1       5.851   3.003  23.499  0.00  0.00    +0.102 HD
ENDBRANCH  11  12
ENDBRANCH   1  11
BRANCH   1  14
ATOM     14  C   UNL     1       9.064   2.581  23.673  0.00  0.00    +0.048 C 
BRANCH  14  15
ATOM     15  C   UNL     1      10.029   3.745  23.703  0.00  0.00    -0.047 A 
ATOM     16  C   UNL     1      11.364   3.579  23.316  0.00  0.00    +0.003 A 
ATOM     17  C   UNL     1      12.243   4.664  23.324  0.00  0.00    +0.000 A 
ATOM     18  C   UNL     1      11.798   5.923  23.724  0.00  0.00    +0.000 A 
ATOM     19  C   UNL     1      10.477   6.096  24.128  0.00  0.00    +0.000 A 
ATOM     20  C   UNL     1       9.598   5.012  24.125  0.00  0.00    +0.003 A 
ENDBRANCH  14  15
ENDBRANCH   1  14
TORSDOF 8
ENDMDL
MODEL 6
REMARK VINA RESULT:      -5.1      5.298      7.620
REMARK  Name = 
REMARK  8 active torsions:
REMARK  status: ('A' for Active; 'I' for Inactive)
REMARK    1  A    between atoms: C_2  and  C_3
REMARK    2  A    between atoms: C_2  and  C_5
REMARK    3  A    between atoms: C_2  and  C_12
REMARK    4  A    between atoms: C_3  and  S_4
REMARK    5  A    between atoms: C_5  and  C_6
REMARK    6  A    between atoms: N_14  and  C_15
REMARK    7  A    between atoms: C_15  and  C_16
REMARK    8  A    between atoms: C_16  and  O_17
REMARK                            x       y       z     vdW  Elec       q    Type
REMARK                         _______ _______ _______ _____ _____    ______ ____
ROOT
ATOM      1  C   UNL     1       8.544  -1.330  23.628  0.00  0.00    +0.089 C 
ENDROOT
BRANCH   1   2
ATOM      2  C   UNL     1       9.029  -2.759  23.861  0.00  0.00    +0.218 C 
ATOM      3  N   UNL     1       8.054  -3.735  23.939  0.00  0.00    -0.305 N 
ATOM      4  H   UNL     1       7.114  -3.448  24.182  0.00  0.00    +0.149 HD
ATOM      5  O   UNL     1      10.222  -3.047  23.837  0.00  0.00    -0.275 OA
BRANCH   3   6
ATOM      6  C   UNL     1       8.413  -5.110  24.306  0.00  0.00    +0.224 C 
BRANCH   6   7
ATOM      7  C   UNL     1       8.965  -5.247  25.725  0.00  0.00    +0.322 C 
ATOM      8  O   UNL     1       8.273  -5.182  26.733  0.00  0.00    -0.249 OA
BRANCH   7   9
ATOM      9  O   UNL     1      10.292  -5.504  25.772  0.00  0.00    -0.480 OA
ATOM     10  H   UNL     1      10.482  -6.058  26.554  0.00  0.00    +0.295 HD
ENDBRANCH   7   9
ENDBRANCH   6   7
ENDBRANCH   3   6
ENDBRANCH   1   2
BRANCH   1  11
ATOM     11  C   UNL     1       7.679  -0.940  24.834  0.00  0.00    +0.078 C 
BRANCH  11  12
ATOM     12  S   UNL     1       8.532  -1.080  26.433  0.00  0.00    -0.177 S 
ATOM     13  H   UNL     1       8.324   0.183  26.837  0.00  0.00    +0.102 HD
ENDBRANCH  11  12
ENDBRANCH   1  11
BRANCH   1  14
ATOM     14  C   UNL     1       9.701  -0.352  23.350  0.00  0.00    +0.048 C 
BRANCH  14  15
ATOM     15  C   UNL     1       9.256   1.091  23.274  0.00  0.00    -0.047 A 
ATOM     16  C   UNL     1       8.433   1.533  22.230  0.00  0.00    +0.003 A 
ATOM     17  C   UNL     1       8.006   2.862  22.180  0.00  0.00    +0.000 A 
ATOM     18  C   UNL     1       8.401   3.761  23.169  0.00  0.00    +0.000 A 
ATOM     19  C   UNL     1       9.233   3.338  24.201  0.00  0.00    +0.000 A 
ATOM     20  C   UNL     1       9.664   2.012  24.251  0.00  0.00    +0.003 A 
ENDBRANCH  14  15
ENDBRANCH   1  14
TORSDOF 8
ENDMDL
MODEL 7
REMARK VINA RESULT:      -4.9      4.593      6.598
REMARK  Name = 
REMARK  8 active torsions:
REMARK  status: ('A' for Active; 'I' for Inactive)
REMARK    1  A    between atoms: C_2  and  C_3
REMARK    2  A    between atoms: C_2  and  C_5
REMARK    3  A    between atoms: C_2  and  C_12
REMARK    4  A    between atoms: C_3  and  S_4
REMARK    5  A    between atoms: C_5  and  C_6
REMARK    6  A    between atoms: N_14  and  C_15
REMARK    7  A    between atoms: C_15  and  C_16
REMARK    8  A    between atoms: C_16  and  O_17
REMARK                            x       y       z     vdW  Elec       q    Type
REMARK                         _______ _______ _______ _____ _____    ______ ____
ROOT
ATOM      1  C   UNL     1       9.219  -2.469  24.523  0.00  0.00    +0.089 C 
ENDROOT
BRANCH   1   2
ATOM      2  C   UNL     1       7.775  -1.999  24.357  0.00  0.00    +0.218 C 
ATOM      3  N   UNL     1       7.365  -0.967  25.179  0.00  0.00    -0.305 N 
ATOM      4  H   UNL     1       7.877  -0.814  26.040  0.00  0.00    +0.149 HD
ATOM      5  O   UNL     1       7.063  -2.413  23.448  0.00  0.00    -0.275 OA
BRANCH   3   6
ATOM      6  C   UNL     1       5.959  -0.548  25.194  0.00  0.00    +0.224 C 
BRANCH   6   7
ATOM      7  C   UNL     1       5.731   0.870  24.672  0.00  0.00    +0.322 C 
ATOM      8  O   UNL     1       4.665   1.465  24.760  0.00  0.00    -0.249 OA
BRANCH   7   9
ATOM      9  O   UNL     1       6.839   1.444  24.147  0.00  0.00    -0.480 OA
ATOM     10  H   UNL     1       6.798   1.385  23.173  0.00  0.00    +0.295 HD
ENDBRANCH   7   9
ENDBRANCH   6   7
ENDBRANCH   3   6
ENDBRANCH   1   2
BRANCH   1  11
ATOM     11  C   UNL     1       9.181  -3.987  24.737  0.00  0.00    +0.078 C 
BRANCH  11  12
ATOM     12  S   UNL     1       8.742  -4.487  26.428  0.00  0.00    -0.177 S 
ATOM     13  H   UNL     1       8.686  -3.252  26.952  0.00  0.00    +0.102 HD
ENDBRANCH  11  12
ENDBRANCH   1  11
BRANCH   1  14
ATOM     14  C   UNL     1      10.121  -2.027  23.355  0.00  0.00    +0.048 C 
BRANCH  14  15
ATOM     15  C   UNL     1      10.163  -0.527  23.169  0.00  0.00    -0.047 A 
ATOM     16  C   UNL     1      10.629   0.308  24.192  0.00  0.00    +0.003 A 
ATOM     17  C   UNL     1      10.687   1.691  24.003  0.00  0.00    +0.000 A 
ATOM     18  C   UNL     1      10.275   2.251  22.796  0.00  0.00    +0.000 A 
ATOM     19  C   UNL     1       9.792   1.432  21.779  0.00  0.00    +0.000 A 
ATOM     20  C   UNL     1       9.730   0.051  21.966  0.00  0.00    +0.003 A 
ENDBRANCH  14  15
ENDBRANCH   1  14
TORSDOF 8
ENDMDL
MODEL 8
REMARK VINA RESULT:      -4.9      4.604      6.213
REMARK  Name = 
REMARK  8 active torsions:
REMARK  status: ('A' for Active; 'I' for Inactive)
REMARK    1  A    between atoms: C_2  and  C_3
REMARK    2  A    between atoms: C_2  and  C_5
REMARK    3  A    between atoms: C_2  and  C_12
REMARK    4  A    between atoms: C_3  and  S_4
REMARK    5  A    between atoms: C_5  and  C_6
REMARK    6  A    between atoms: N_14  and  C_15
REMARK    7  A    between atoms: C_15  and  C_16
REMARK    8  A    between atoms: C_16  and  O_17
REMARK                            x       y       z     vdW  Elec       q    Type
REMARK                         _______ _______ _______ _____ _____    ______ ____
ROOT
ATOM      1  C   UNL     1       8.310  -2.838  22.779  0.00  0.00    +0.089 C 
ENDROOT
BRANCH   1   2
ATOM      2  C   UNL     1       9.252  -1.729  22.312  0.00  0.00    +0.218 C 
ATOM      3  N   UNL     1       8.671  -0.507  22.030  0.00  0.00    -0.305 N 
ATOM      4  H   UNL     1       7.682  -0.491  21.810  0.00  0.00    +0.149 HD
ATOM      5  O   UNL     1      10.471  -1.869  22.325  0.00  0.00    -0.275 OA
BRANCH   3   6
ATOM      6  C   UNL     1       9.471   0.572  21.438  0.00  0.00    +0.224 C 
BRANCH   6   7
ATOM      7  C   UNL     1       9.950   1.612  22.450  0.00  0.00    +0.322 C 
ATOM      8  O   UNL     1       9.809   1.498  23.661  0.00  0.00    -0.249 OA
BRANCH   7   9
ATOM      9  O   UNL     1      10.603   2.657  21.892  0.00  0.00    -0.480 OA
ATOM     10  H   UNL     1      10.889   2.411  20.991  0.00  0.00    +0.295 HD
ENDBRANCH   7   9
ENDBRANCH   6   7
ENDBRANCH   3   6
ENDBRANCH   1   2
BRANCH   1  11
ATOM     11  C   UNL     1       8.702  -3.190  24.219  0.00  0.00    +0.078 C 
BRANCH  11  12
ATOM     12  S   UNL     1       8.333  -1.885  25.429  0.00  0.00    -0.177 S 
ATOM     13  H   UNL     1       9.345  -1.067  25.098  0.00  0.00    +0.102 HD
ENDBRANCH  11  12
ENDBRANCH   1  11
BRANCH   1  14
ATOM     14  C   UNL     1       6.826  -2.459  22.613  0.00  0.00    +0.048 C 
BRANCH  14  15
ATOM     15  C   UNL     1       5.890  -3.634  22.788  0.00  0.00    -0.047 A 
ATOM     16  C   UNL     1       6.095  -4.825  22.082  0.00  0.00    +0.003 A 
ATOM     17  C   UNL     1       5.240  -5.914  22.268  0.00  0.00    +0.000 A 
ATOM     18  C   UNL     1       4.170  -5.820  23.155  0.00  0.00    +0.000 A 
ATOM     19  C   UNL     1       3.945  -4.634  23.849  0.00  0.00    +0.000 A 
ATOM     20  C   UNL     1       4.796  -3.544  23.663  0.00  0.00    +0.003 A 
ENDBRANCH  14  15
ENDBRANCH   1  14
TORSDOF 8
ENDMDL
MODEL 9
REMARK VINA RESULT:      -4.8      2.106      2.646
REMARK  Name = 
REMARK  8 active torsions:
REMARK  status: ('A' for Active; 'I' for Inactive)
REMARK    1  A    between atoms: C_2  and  C_3
REMARK    2  A    between atoms: C_2  and  C_5
REMARK    3  A    between atoms: C_2  and  C_12
REMARK    4  A    between atoms: C_3  and  S_4
REMARK    5  A    between atoms: C_5  and  C_6
REMARK    6  A    between atoms: N_14  and  C_15
REMARK    7  A    between atoms: C_15  and  C_16
REMARK    8  A    between atoms: C_16  and  O_17
REMARK                            x       y       z     vdW  Elec       q    Type
REMARK                         _______ _______ _______ _____ _____    ______ ____
ROOT
ATOM      1  C   UNL     1       8.854   1.626  22.809  0.00  0.00    +0.089 C 
ENDROOT
BRANCH   1   2
ATOM      2  C   UNL     1      10.181   2.179  23.324  0.00  0.00    +0.218 C 
ATOM      3  N   UNL     1      10.469   3.491  22.997  0.00  0.00    -0.305 N 
ATOM      4  H   UNL     1      10.003   3.892  22.192  0.00  0.00    +0.149 HD
ATOM      5  O   UNL     1      10.885   1.546  24.103  0.00  0.00    -0.275 OA
BRANCH   3   6
ATOM      6  C   UNL     1      11.781   4.063  23.321  0.00  0.00    +0.224 C 
BRANCH   6   7
ATOM      7  C   UNL     1      11.732   5.539  23.712  0.00  0.00    +0.322 C 
ATOM      8  O   UNL     1      10.716   6.221  23.669  0.00  0.00    -0.249 OA
BRANCH   7   9
ATOM      9  O   UNL     1      12.910   6.024  24.168  0.00  0.00    -0.480 OA
ATOM     10  H   UNL     1      12.831   6.207  25.123  0.00  0.00    +0.295 HD
ENDBRANCH   7   9
ENDBRANCH   6   7
ENDBRANCH   3   6
ENDBRANCH   1   2
BRANCH   1  11
ATOM     11  C   UNL     1       8.169   2.749  22.019  0.00  0.00    +0.078 C 
BRANCH  11  12
ATOM     12  S   UNL     1       6.526   3.202  22.650  0.00  0.00    -0.177 S 
ATOM     13  H   UNL     1       6.651   4.529  22.489  0.00  0.00    +0.102 HD
ENDBRANCH  11  12
ENDBRANCH   1  11
BRANCH   1  14
ATOM     14  C   UNL     1       9.030   0.321  22.009  0.00  0.00    +0.048 C 
BRANCH  14  15
ATOM     15  C   UNL     1       8.178  -0.815  22.529  0.00  0.00    -0.047 A 
ATOM     16  C   UNL     1       8.530  -2.147  22.277  0.00  0.00    +0.003 A 
ATOM     17  C   UNL     1       7.751  -3.191  22.781  0.00  0.00    +0.000 A 
ATOM     18  C   UNL     1       6.613  -2.914  23.536  0.00  0.00    +0.000 A 
ATOM     19  C   UNL     1       6.243  -1.594  23.777  0.00  0.00    +0.000 A 
ATOM     20  C   UNL     1       7.017  -0.549  23.271  0.00  0.00    +0.003 A 
ENDBRANCH  14  15
ENDBRANCH   1  14
TORSDOF 8
ENDMDL
