MODEL 1
REMARK VINA RESULT:      -5.9      0.000      0.000
REMARK  Name = 
REMARK  7 active torsions:
REMARK  status: ('A' for Active; 'I' for Inactive)
REMARK    1  A    between atoms: CA_2  and  CB_3
REMARK    2  A    between atoms: CA_2  and  N_10
REMARK    3  A    between atoms: CA_2  and  C_16
REMARK    4  A    between atoms: CB_3  and  CG_4
REMARK    5  A    between atoms: C_11  and  C_13
REMARK    6  A    between atoms: C_13  and  O_14
REMARK    7  A    between atoms: C_16  and  O_17
REMARK                            x       y       z     vdW  Elec       q    Type
REMARK                         _______ _______ _______ _____ _____    ______ ____
ROOT
ATOM      1  CA  PHE A   1       7.570  -3.394  22.738  0.00  0.00    +0.186 C 
ENDROOT
BRANCH   1   2
ATOM      2  N   PHE A   1       7.905  -4.124  23.964  0.00  0.00    -0.293 N 
ATOM      3  H   PHE A   1       7.263  -4.827  24.324  0.00  0.00    +0.150 HD
ATOM      4  C   UNK A   0       9.127  -4.022  24.577  0.00  0.00    +0.322 C 
ATOM      5  O   UNK A   0      10.072  -3.377  24.140  0.00  0.00    -0.263 OA
BRANCH   4   6
ATOM      6  C   UNK A   0       9.306  -4.857  25.858  0.00  0.00    +0.392 C 
ATOM      7  O   UNK A   0       8.847  -4.511  26.930  0.00  0.00    -0.240 OA
BRANCH   6   8
ATOM      8  O   UNK A   0       9.987  -5.987  25.607  0.00  0.00    -0.474 OA
ATOM      9  H   UNK A   0      10.938  -5.779  25.458  0.00  0.00    +0.296 HD
ENDBRANCH   6   8
ENDBRANCH   4   6
ENDBRANCH   1   2
BRANCH   1  10
ATOM     10  C   PHE A   1       6.672  -4.272  21.853  0.00  0.00    +0.326 C 
ATOM     11  OXT PHE A   1       5.667  -3.888  21.274  0.00  0.00    -0.249 OA
BRANCH  10  12
ATOM     12  O   PHE A   1       7.135  -5.542  21.715  0.00  0.00    -0.479 OA
ATOM     13  H   PHE A   1       8.061  -5.652  22.024  0.00  0.00    +0.295 HD
ENDBRANCH  10  12
ENDBRANCH   1  10
BRANCH   1  14
ATOM     14  CB  PHE A   1       6.889  -2.045  23.023  0.00  0.00    +0.069 C 
BRANCH  14  15
ATOM     15  CG  PHE A   1       7.707  -0.835  22.621  0.00  0.00    -0.045 A 
ATOM     16  CD2 PHE A   1       7.210   0.454  22.862  0.00  0.00    +0.004 A 
ATOM     17  CE2 PHE A   1       7.936   1.582  22.473  0.00  0.00    +0.000 A 
ATOM     18  CZ  PHE A   1       9.166   1.436  21.836  0.00  0.00    +0.000 A 
ATOM     19  CE1 PHE A   1       9.667   0.160  21.581  0.00  0.00    +0.000 A 
ATOM     20  CD1 PHE A   1       8.940  -0.970  21.967  0.00  0.00    +0.004 A 
ENDBRANCH  14  15
ENDBRANCH   1  14
TORSDOF 7
ENDMDL
MODEL 2
REMARK VINA RESULT:      -5.8      2.295      3.769
REMARK  Name = 
REMARK  7 active torsions:
REMARK  status: ('A' for Active; 'I' for Inactive)
REMARK    1  A    between atoms: CA_2  and  CB_3
REMARK    2  A    between atoms: CA_2  and  N_10
REMARK    3  A    between atoms: CA_2  and  C_16
REMARK    4  A    between atoms: CB_3  and  CG_4
REMARK    5  A    between atoms: C_11  and  C_13
REMARK    6  A    between atoms: C_13  and  O_14
REMARK    7  A    between atoms: C_16  and  O_17
REMARK                            x       y       z     vdW  Elec       q    Type
REMARK                         _______ _______ _______ _____ _____    ______ ____
ROOT
ATOM      1  CA  PHE A   1       7.945  -2.217  22.630  0.00  0.00    +0.186 C 
ENDROOT
BRANCH   1   2
ATOM      2  N   PHE A   1       7.652  -3.646  22.486  0.00  0.00    -0.293 N 
ATOM      3  H   PHE A   1       8.270  -4.334  22.914  0.00  0.00    +0.150 HD
ATOM      4  C   UNK A   0       6.489  -4.111  21.931  0.00  0.00    +0.322 C 
ATOM      5  O   UNK A   0       5.561  -3.401  21.564  0.00  0.00    -0.263 OA
BRANCH   4   6
ATOM      6  C   UNK A   0       6.348  -5.643  21.855  0.00  0.00    +0.392 C 
ATOM      7  O   UNK A   0       7.297  -6.392  21.990  0.00  0.00    -0.240 OA
BRANCH   6   8
ATOM      8  O   UNK A   0       5.068  -6.001  21.660  0.00  0.00    -0.474 OA
ATOM      9  H   UNK A   0       4.530  -5.762  22.448  0.00  0.00    +0.296 HD
ENDBRANCH   6   8
ENDBRANCH   4   6
ENDBRANCH   1   2
BRANCH   1  10
ATOM     10  C   PHE A   1       7.140  -1.650  23.810  0.00  0.00    +0.326 C 
ATOM     11  OXT PHE A   1       7.422  -1.802  24.989  0.00  0.00    -0.249 OA
BRANCH  10  12
ATOM     12  O   PHE A   1       6.085  -0.889  23.420  0.00  0.00    -0.479 OA
ATOM     13  H   PHE A   1       6.334   0.036  23.200  0.00  0.00    +0.295 HD
ENDBRANCH  10  12
ENDBRANCH   1  10
BRANCH   1  14
ATOM     14  CB  PHE A   1       9.445  -1.939  22.821  0.00  0.00    +0.069 C 
BRANCH  14  15
ATOM     15  CG  PHE A   1       9.799  -0.470  22.939  0.00  0.00    -0.045 A 
ATOM     16  CD2 PHE A   1       9.581   0.389  21.852  0.00  0.00    +0.004 A 
ATOM     17  CE2 PHE A   1       9.927   1.740  21.932  0.00  0.00    +0.000 A 
ATOM     18  CZ  PHE A   1      10.496   2.247  23.097  0.00  0.00    +0.000 A 
ATOM     19  CE1 PHE A   1      10.726   1.402  24.182  0.00  0.00    +0.000 A 
ATOM     20  CD1 PHE A   1      10.384   0.049  24.102  0.00  0.00    +0.004 A 
ENDBRANCH  14  15
ENDBRANCH   1  14
TORSDOF 7
ENDMDL
MODEL 3
REMARK VINA RESULT:      -5.8      1.348      3.864
REMARK  Name = 
REMARK  7 active torsions:
REMARK  status: ('A' for Active; 'I' for Inactive)
REMARK    1  A    between atoms: CA_2  and  CB_3
REMARK    2  A    between atoms: CA_2  and  N_10
REMARK    3  A    between atoms: CA_2  and  C_16
REMARK    4  A    between atoms: CB_3  and  CG_4
REMARK    5  A    between atoms: C_11  and  C_13
REMARK    6  A    between atoms: C_13  and  O_14
REMARK    7  A    between atoms: C_16  and  O_17
REMARK                            x       y       z     vdW  Elec       q    Type
REMARK                         _______ _______ _______ _____ _____    ______ ____
ROOT
ATOM      1  CA  PHE A   1       8.953  -3.318  24.325  0.00  0.00    +0.186 C 
ENDROOT
BRANCH   1   2
ATOM      2  N   PHE A   1       8.182  -4.028  23.300  0.00  0.00    -0.293 N 
ATOM      3  H   PHE A   1       8.363  -5.015  23.127  0.00  0.00    +0.150 HD
ATOM      4  C   UNK A   0       7.107  -3.469  22.661  0.00  0.00    +0.322 C 
ATOM      5  O   UNK A   0       6.643  -2.364  22.918  0.00  0.00    -0.263 OA
BRANCH   4   6
ATOM      6  C   UNK A   0       6.416  -4.356  21.609  0.00  0.00    +0.392 C 
ATOM      7  O   UNK A   0       5.629  -3.909  20.796  0.00  0.00    -0.240 OA
BRANCH   6   8
ATOM      8  O   UNK A   0       6.825  -5.631  21.709  0.00  0.00    -0.474 OA
ATOM      9  H   UNK A   0       7.473  -5.719  22.445  0.00  0.00    +0.296 HD
ENDBRANCH   6   8
ENDBRANCH   4   6
ENDBRANCH   1   2
BRANCH   1  10
ATOM     10  C   PHE A   1       9.311  -4.292  25.458  0.00  0.00    +0.326 C 
ATOM     11  OXT PHE A   1       8.888  -4.223  26.602  0.00  0.00    -0.249 OA
BRANCH  10  12
ATOM     12  O   PHE A   1      10.119  -5.307  25.055  0.00  0.00    -0.479 OA
ATOM     13  H   PHE A   1      11.022  -5.257  25.438  0.00  0.00    +0.295 HD
ENDBRANCH  10  12
ENDBRANCH   1  10
BRANCH   1  14
ATOM     14  CB  PHE A   1      10.223  -2.663  23.758  0.00  0.00    +0.069 C 
BRANCH  14  15
ATOM     15  CG  PHE A   1      10.055  -1.209  23.365  0.00  0.00    -0.045 A 
ATOM     16  CD2 PHE A   1       9.749  -0.877  22.037  0.00  0.00    +0.004 A 
ATOM     17  CE2 PHE A   1       9.618   0.459  21.649  0.00  0.00    +0.000 A 
ATOM     18  CZ  PHE A   1       9.794   1.477  22.582  0.00  0.00    +0.000 A 
ATOM     19  CE1 PHE A   1      10.108   1.162  23.904  0.00  0.00    +0.000 A 
ATOM     20  CD1 PHE A   1      10.243  -0.175  24.293  0.00  0.00    +0.004 A 
ENDBRANCH  14  15
ENDBRANCH   1  14
TORSDOF 7
ENDMDL
MODEL 4
REMARK VINA RESULT:      -5.7      1.783      3.906
REMARK  Name = 
REMARK  7 active torsions:
REMARK  status: ('A' for Active; 'I' for Inactive)
REMARK    1  A    between atoms: CA_2  and  CB_3
REMARK    2  A    between atoms: CA_2  and  N_10
REMARK    3  A    between atoms: CA_2  and  C_16
REMARK    4  A    between atoms: CB_3  and  CG_4
REMARK    5  A    between atoms: C_11  and  C_13
REMARK    6  A    between atoms: C_13  and  O_14
REMARK    7  A    between atoms: C_16  and  O_17
REMARK                            x       y       z     vdW  Elec       q    Type
REMARK                         _______ _______ _______ _____ _____    ______ ____
ROOT
ATOM      1  CA  PHE A   1       8.755  -2.660  23.959  0.00  0.00    +0.186 C 
ENDROOT
BRANCH   1   2
ATOM      2  N   PHE A   1       7.681  -3.172  23.103  0.00  0.00    -0.293 N 
ATOM      3  H   PHE A   1       7.913  -3.673  22.247  0.00  0.00    +0.150 HD
ATOM      4  C   UNK A   0       6.363  -3.149  23.475  0.00  0.00    +0.322 C 
ATOM      5  O   UNK A   0       5.955  -2.769  24.566  0.00  0.00    -0.263 OA
BRANCH   4   6
ATOM      6  C   UNK A   0       5.367  -3.725  22.451  0.00  0.00    +0.392 C 
ATOM      7  O   UNK A   0       4.344  -4.293  22.787  0.00  0.00    -0.240 OA
BRANCH   6   8
ATOM      8  O   UNK A   0       5.771  -3.481  21.194  0.00  0.00    -0.474 OA
ATOM      9  H   UNK A   0       6.091  -2.553  21.119  0.00  0.00    +0.296 HD
ENDBRANCH   6   8
ENDBRANCH   4   6
ENDBRANCH   1   2
BRANCH   1  10
ATOM     10  C   PHE A   1       9.195  -3.762  24.936  0.00  0.00    +0.326 C 
ATOM     11  OXT PHE A   1      10.082  -4.575  24.723  0.00  0.00    -0.249 OA
BRANCH  10  12
ATOM     12  O   PHE A   1       8.532  -3.721  26.121  0.00  0.00    -0.479 OA
ATOM     13  H   PHE A   1       9.034  -3.262  26.829  0.00  0.00    +0.295 HD
ENDBRANCH  10  12
ENDBRANCH   1  10
BRANCH   1  14
ATOM     14  CB  PHE A   1       9.959  -2.148  23.152  0.00  0.00    +0.069 C 
BRANCH  14  15
ATOM     15  CG  PHE A   1      10.083  -0.638  23.105  0.00  0.00    -0.045 A 
ATOM     16  CD2 PHE A   1      10.459   0.067  24.257  0.00  0.00    +0.004 A 
ATOM     17  CE2 PHE A   1      10.551   1.461  24.242  0.00  0.00    +0.000 A 
ATOM     18  CZ  PHE A   1      10.266   2.166  23.076  0.00  0.00    +0.000 A 
ATOM     19  CE1 PHE A   1       9.881   1.479  21.925  0.00  0.00    +0.000 A 
ATOM     20  CD1 PHE A   1       9.785   0.084  21.941  0.00  0.00    +0.004 A 
ENDBRANCH  14  15
ENDBRANCH   1  14
TORSDOF 7
ENDMDL
MODEL 5
REMARK VINA RESULT:      -5.5      2.563      4.474
REMARK  Name = 
REMARK  7 active torsions:
REMARK  status: ('A' for Active; 'I' for Inactive)
REMARK    1  A    between atoms: CA_2  and  CB_3
REMARK    2  A    between atoms: CA_2  and  N_10
REMARK    3  A    between atoms: CA_2  and  C_16
REMARK    4  A    between atoms: CB_3  and  CG_4
REMARK    5  A    between atoms: C_11  and  C_13
REMARK    6  A    between atoms: C_13  and  O_14
REMARK    7  A    between atoms: C_16  and  O_17
REMARK                            x       y       z     vdW  Elec       q    Type
REMARK                         _______ _______ _______ _____ _____    ______ ____
ROOT
ATOM      1  CA  PHE A   1       8.595  -2.210  23.482  0.00  0.00    +0.186 C 
ENDROOT
BRANCH   1   2
ATOM      2  N   PHE A   1       8.897  -3.381  24.309  0.00  0.00    -0.293 N 
ATOM      3  H   PHE A   1       9.436  -4.151  23.916  0.00  0.00    +0.150 HD
ATOM      4  C   UNK A   0       8.623  -3.432  25.651  0.00  0.00    +0.322 C 
ATOM      5  O   UNK A   0       8.169  -2.499  26.303  0.00  0.00    -0.263 OA
BRANCH   4   6
ATOM      6  C   UNK A   0       9.004  -4.742  26.364  0.00  0.00    +0.392 C 
ATOM      7  O   UNK A   0       8.332  -5.212  27.263  0.00  0.00    -0.240 OA
BRANCH   6   8
ATOM      8  O   UNK A   0      10.120  -5.272  25.839  0.00  0.00    -0.474 OA
ATOM      9  H   UNK A   0      10.420  -6.033  26.387  0.00  0.00    +0.296 HD
ENDBRANCH   6   8
ENDBRANCH   4   6
ENDBRANCH   1   2
BRANCH   1  10
ATOM     10  C   PHE A   1       9.902  -1.474  23.148  0.00  0.00    +0.326 C 
ATOM     11  OXT PHE A   1      10.490  -0.712  23.900  0.00  0.00    -0.249 OA
BRANCH  10  12
ATOM     12  O   PHE A   1      10.398  -1.794  21.925  0.00  0.00    -0.479 OA
ATOM     13  H   PHE A   1      10.054  -1.222  21.205  0.00  0.00    +0.295 HD
ENDBRANCH  10  12
ENDBRANCH   1  10
BRANCH   1  14
ATOM     14  CB  PHE A   1       7.841  -2.576  22.194  0.00  0.00    +0.069 C 
BRANCH  14  15
ATOM     15  CG  PHE A   1       6.789  -3.653  22.370  0.00  0.00    -0.045 A 
ATOM     16  CD2 PHE A   1       7.027  -4.946  21.883  0.00  0.00    +0.004 A 
ATOM     17  CE2 PHE A   1       6.059  -5.945  22.010  0.00  0.00    +0.000 A 
ATOM     18  CZ  PHE A   1       4.841  -5.663  22.623  0.00  0.00    +0.000 A 
ATOM     19  CE1 PHE A   1       4.587  -4.378  23.103  0.00  0.00    +0.000 A 
ATOM     20  CD1 PHE A   1       5.554  -3.377  22.973  0.00  0.00    +0.004 A 
ENDBRANCH  14  15
ENDBRANCH   1  14
TORSDOF 7
ENDMDL
MODEL 6
REMARK VINA RESULT:      -5.5      3.457      4.795
REMARK  Name = 
REMARK  7 active torsions:
REMARK  status: ('A' for Active; 'I' for Inactive)
REMARK    1  A    between atoms: CA_2  and  CB_3
REMARK    2  A    between atoms: CA_2  and  N_10
REMARK    3  A    between atoms: CA_2  and  C_16
REMARK    4  A    between atoms: CB_3  and  CG_4
REMARK    5  A    between atoms: C_11  and  C_13
REMARK    6  A    between atoms: C_13  and  O_14
REMARK    7  A    between atoms: C_16  and  O_17
REMARK                            x       y       z     vdW  Elec       q    Type
REMARK                         _______ _______ _______ _____ _____    ______ ____
ROOT
ATOM      1  CA  PHE A   1       9.295   0.901  23.168  0.00  0.00    +0.186 C 
ENDROOT
BRANCH   1   2
ATOM      2  N   PHE A   1       9.041  -0.457  23.657  0.00  0.00    -0.293 N 
ATOM      3  H   PHE A   1       8.342  -0.610  24.382  0.00  0.00    +0.150 HD
ATOM      4  C   UNK A   0       9.588  -1.570  23.073  0.00  0.00    +0.322 C 
ATOM      5  O   UNK A   0      10.279  -1.555  22.061  0.00  0.00    -0.263 OA
BRANCH   4   6
ATOM      6  C   UNK A   0       9.217  -2.918  23.719  0.00  0.00    +0.392 C 
ATOM      7  O   UNK A   0      10.032  -3.604  24.306  0.00  0.00    -0.240 OA
BRANCH   6   8
ATOM      8  O   UNK A   0       7.909  -3.183  23.566  0.00  0.00    -0.474 OA
ATOM      9  H   UNK A   0       7.791  -4.093  23.211  0.00  0.00    +0.296 HD
ENDBRANCH   6   8
ENDBRANCH   4   6
ENDBRANCH   1   2
BRANCH   1  10
ATOM     10  C   PHE A   1       8.352   1.203  21.993  0.00  0.00    +0.326 C 
ATOM     11  OXT PHE A   1       7.205   1.610  22.102  0.00  0.00    -0.249 OA
BRANCH  10  12
ATOM     12  O   PHE A   1       8.936   1.029  20.779  0.00  0.00    -0.479 OA
ATOM     13  H   PHE A   1       9.313   1.857  20.409  0.00  0.00    +0.295 HD
ENDBRANCH  10  12
ENDBRANCH   1  10
BRANCH   1  14
ATOM     14  CB  PHE A   1       9.139   1.962  24.268  0.00  0.00    +0.069 C 
BRANCH  14  15
ATOM     15  CG  PHE A   1       9.868   3.262  23.991  0.00  0.00    -0.045 A 
ATOM     16  CD2 PHE A   1      11.182   3.234  23.503  0.00  0.00    +0.004 A 
ATOM     17  CE2 PHE A   1      11.881   4.420  23.268  0.00  0.00    +0.000 A 
ATOM     18  CZ  PHE A   1      11.275   5.649  23.520  0.00  0.00    +0.000 A 
ATOM     19  CE1 PHE A   1       9.972   5.691  24.015  0.00  0.00    +0.000 A 
ATOM     20  CD1 PHE A   1       9.273   4.504  24.253  0.00  0.00    +0.004 A 
ENDBRANCH  14  15
ENDBRANCH   1  14
TORSDOF 7
ENDMDL
MODEL 7
REMARK VINA RESULT:      -5.3      2.253      2.752
REMARK  Name = 
REMARK  7 active torsions:
REMARK  status: ('A' for Active; 'I' for Inactive)
REMARK    1  A    between atoms: CA_2  and  CB_3
REMARK    2  A    between atoms: CA_2  and  N_10
REMARK    3  A    between atoms: CA_2  and  C_16
REMARK    4  A    between atoms: CB_3  and  CG_4
REMARK    5  A    between atoms: C_11  and  C_13
REMARK    6  A    between atoms: C_13  and  O_14
REMARK    7  A    between atoms: C_16  and  O_17
REMARK                            x       y       z     vdW  Elec       q    Type
REMARK                         _______ _______ _______ _____ _____    ______ ____
ROOT
ATOM      1  CA  PHE A   1       7.581  -1.494  24.803  0.00  0.00    +0.186 C 
ENDROOT
BRANCH   1   2
ATOM      2  N   PHE A   1       7.932  -2.678  25.593  0.00  0.00    -0.293 N 
ATOM      3  H   PHE A   1       7.368  -2.930  26.403  0.00  0.00    +0.150 HD
ATOM      4  C   UNK A   0       8.901  -3.566  25.206  0.00  0.00    +0.322 C 
ATOM      5  O   UNK A   0       9.517  -3.507  24.149  0.00  0.00    -0.263 OA
BRANCH   4   6
ATOM      6  C   UNK A   0       9.142  -4.752  26.158  0.00  0.00    +0.392 C 
ATOM      7  O   UNK A   0       8.387  -5.015  27.076  0.00  0.00    -0.240 OA
BRANCH   6   8
ATOM      8  O   UNK A   0      10.245  -5.435  25.810  0.00  0.00    -0.474 OA
ATOM      9  H   UNK A   0      10.334  -6.238  26.372  0.00  0.00    +0.296 HD
ENDBRANCH   6   8
ENDBRANCH   4   6
ENDBRANCH   1   2
BRANCH   1  10
ATOM     10  C   PHE A   1       6.062  -1.276  24.864  0.00  0.00    +0.326 C 
ATOM     11  OXT PHE A   1       5.282  -1.950  25.519  0.00  0.00    -0.249 OA
BRANCH  10  12
ATOM     12  O   PHE A   1       5.648  -0.196  24.150  0.00  0.00    -0.479 OA
ATOM     13  H   PHE A   1       5.850   0.659  24.590  0.00  0.00    +0.295 HD
ENDBRANCH  10  12
ENDBRANCH   1  10
BRANCH   1  14
ATOM     14  CB  PHE A   1       8.324  -0.232  25.269  0.00  0.00    +0.069 C 
BRANCH  14  15
ATOM     15  CG  PHE A   1       9.025   0.526  24.160  0.00  0.00    -0.045 A 
ATOM     16  CD2 PHE A   1       9.604   1.776  24.427  0.00  0.00    +0.004 A 
ATOM     17  CE2 PHE A   1      10.230   2.503  23.412  0.00  0.00    +0.000 A 
ATOM     18  CZ  PHE A   1      10.282   1.992  22.118  0.00  0.00    +0.000 A 
ATOM     19  CE1 PHE A   1       9.702   0.755  21.836  0.00  0.00    +0.000 A 
ATOM     20  CD1 PHE A   1       9.073   0.028  22.851  0.00  0.00    +0.004 A 
ENDBRANCH  14  15
ENDBRANCH   1  14
TORSDOF 7
ENDMDL
MODEL 8
REMARK VINA RESULT:      -5.3      2.473      3.945
REMARK  Name = 
REMARK  7 active torsions:
REMARK  status: ('A' for Active; 'I' for Inactive)
REMARK    1  A    between atoms: CA_2  and  CB_3
REMARK    2  A    between atoms: CA_2  and  N_10
REMARK    3  A    between atoms: CA_2  and  C_16
REMARK    4  A    between atoms: CB_3  and  CG_4
REMARK    5  A    between atoms: C_11  and  C_13
REMARK    6  A    between atoms: C_13  and  O_14
REMARK    7  A    between atoms: C_16  and  O_17
REMARK                            x       y       z     vdW  Elec       q    Type
REMARK                         _______ _______ _______ _____ _____    ______ ____
ROOT
ATOM      1  CA  PHE A   1       9.030  -2.907  24.918  0.00  0.00    +0.186 C 
ENDROOT
BRANCH   1   2
ATOM      2  N   PHE A   1       7.653  -2.497  24.628  0.00  0.00    -0.293 N 
ATOM      3  H   PHE A   1       7.195  -2.830  23.781  0.00  0.00    +0.150 HD
ATOM      4  C   UNK A   0       6.882  -1.806  25.524  0.00  0.00    +0.322 C 
ATOM      5  O   UNK A   0       7.228  -1.520  26.664  0.00  0.00    -0.263 OA
BRANCH   4   6
ATOM      6  C   UNK A   0       5.458  -1.453  25.053  0.00  0.00    +0.392 C 
ATOM      7  O   UNK A   0       4.519  -2.214  25.193  0.00  0.00    -0.240 OA
BRANCH   6   8
ATOM      8  O   UNK A   0       5.417  -0.221  24.520  0.00  0.00    -0.474 OA
ATOM      9  H   UNK A   0       5.374  -0.282  23.539  0.00  0.00    +0.296 HD
ENDBRANCH   6   8
ENDBRANCH   4   6
ENDBRANCH   1   2
BRANCH   1  10
ATOM     10  C   PHE A   1       9.071  -4.426  25.144  0.00  0.00    +0.326 C 
ATOM     11  OXT PHE A   1       9.017  -5.268  24.261  0.00  0.00    -0.249 OA
BRANCH  10  12
ATOM     12  O   PHE A   1       9.237  -4.768  26.448  0.00  0.00    -0.479 OA
ATOM     13  H   PHE A   1       8.737  -5.574  26.703  0.00  0.00    +0.295 HD
ENDBRANCH  10  12
ENDBRANCH   1  10
BRANCH   1  14
ATOM     14  CB  PHE A   1      10.012  -2.503  23.806  0.00  0.00    +0.069 C 
BRANCH  14  15
ATOM     15  CG  PHE A   1      10.045  -1.017  23.510  0.00  0.00    -0.045 A 
ATOM     16  CD2 PHE A   1       9.834  -0.561  22.201  0.00  0.00    +0.004 A 
ATOM     17  CE2 PHE A   1       9.889   0.802  21.904  0.00  0.00    +0.000 A 
ATOM     18  CZ  PHE A   1      10.159   1.726  22.911  0.00  0.00    +0.000 A 
ATOM     19  CE1 PHE A   1      10.381   1.286  24.215  0.00  0.00    +0.000 A 
ATOM     20  CD1 PHE A   1      10.329  -0.079  24.513  0.00  0.00    +0.004 A 
ENDBRANCH  14  15
ENDBRANCH   1  14
TORSDOF 7
ENDMDL
MODEL 9
REMARK VINA RESULT:      -5.3      2.305      5.397
REMARK  Name = 
REMARK  7 active torsions:
REMARK  status: ('A' for Active; 'I' for Inactive)
REMARK    1  A    between atoms: CA_2  and  CB_3
REMARK    2  A    between atoms: CA_2  and  N_10
REMARK    3  A    between atoms: CA_2  and  C_16
REMARK    4  A    between atoms: CB_3  and  CG_4
REMARK    5  A    between atoms: C_11  and  C_13
REMARK    6  A    between atoms: C_13  and  O_14
REMARK    7  A    between atoms: C_16  and  O_17
REMARK                            x       y       z     vdW  Elec       q    Type
REMARK                         _______ _______ _______ _____ _____    ______ ____
ROOT
ATOM      1  CA  PHE A   1       9.229  -3.931  24.832  0.00  0.00    +0.186 C 
ENDROOT
BRANCH   1   2
ATOM      2  N   PHE A   1       8.709  -2.871  23.963  0.00  0.00    -0.293 N 
ATOM      3  H   PHE A   1       7.762  -2.522  24.105  0.00  0.00    +0.150 HD
ATOM      4  C   UNK A   0       9.491  -2.205  23.057  0.00  0.00    +0.322 C 
ATOM      5  O   UNK A   0      10.698  -2.372  22.924  0.00  0.00    -0.263 OA
BRANCH   4   6
ATOM      6  C   UNK A   0       8.780  -1.123  22.224  0.00  0.00    +0.392 C 
ATOM      7  O   UNK A   0       7.757  -0.580  22.599  0.00  0.00    -0.240 OA
BRANCH   6   8
ATOM      8  O   UNK A   0       9.454  -0.864  21.091  0.00  0.00    -0.474 OA
ATOM      9  H   UNK A   0       8.892  -0.336  20.480  0.00  0.00    +0.296 HD
ENDBRANCH   6   8
ENDBRANCH   4   6
ENDBRANCH   1   2
BRANCH   1  10
ATOM     10  C   PHE A   1       8.740  -3.695  26.269  0.00  0.00    +0.326 C 
ATOM     11  OXT PHE A   1       8.080  -2.735  26.637  0.00  0.00    -0.249 OA
BRANCH  10  12
ATOM     12  O   PHE A   1       9.066  -4.705  27.117  0.00  0.00    -0.479 OA
ATOM     13  H   PHE A   1       8.707  -4.580  28.023  0.00  0.00    +0.295 HD
ENDBRANCH  10  12
ENDBRANCH   1  10
BRANCH   1  14
ATOM     14  CB  PHE A   1       8.828  -5.335  24.353  0.00  0.00    +0.069 C 
BRANCH  14  15
ATOM     15  CG  PHE A   1       7.465  -5.405  23.692  0.00  0.00    -0.045 A 
ATOM     16  CD2 PHE A   1       6.305  -5.294  24.473  0.00  0.00    +0.004 A 
ATOM     17  CE2 PHE A   1       5.041  -5.384  23.886  0.00  0.00    +0.000 A 
ATOM     18  CZ  PHE A   1       4.920  -5.590  22.514  0.00  0.00    +0.000 A 
ATOM     19  CE1 PHE A   1       6.065  -5.712  21.728  0.00  0.00    +0.000 A 
ATOM     20  CD1 PHE A   1       7.332  -5.625  22.314  0.00  0.00    +0.004 A 
ENDBRANCH  14  15
ENDBRANCH   1  14
TORSDOF 7
ENDMDL
