MODEL 1
REMARK VINA RESULT:      -4.8      0.000      0.000
REMARK  Name = 
REMARK  4 active torsions:
REMARK  status: ('A' for Active; 'I' for Inactive)
REMARK    1  A    between atoms: O_1  and  C_2
REMARK    2  A    between atoms: C_2  and  C_4
REMARK    3  A    between atoms: C_4  and  C_6
REMARK    4  A    between atoms: C_6  and  C_7
REMARK                            x       y       z     vdW  Elec       q    Type
REMARK                         _______ _______ _______ _____ _____    ______ ____
ROOT
ATOM      1  C   UNL     1      10.237  -1.945  22.917  0.00  0.00    +0.121 C 
ENDROOT
BRANCH   1   2
ATOM      2  C   UNL     1      10.229  -0.436  22.939  0.00  0.00    -0.040 A 
ATOM      3  C   UNL     1       9.793   0.289  21.821  0.00  0.00    +0.004 A 
ATOM      4  C   UNL     1       9.772   1.684  21.847  0.00  0.00    +0.000 A 
ATOM      5  C   UNL     1      10.181   2.367  22.990  0.00  0.00    +0.000 A 
ATOM      6  C   UNL     1      10.611   1.657  24.109  0.00  0.00    +0.000 A 
ATOM      7  C   UNL     1      10.632   0.262  24.086  0.00  0.00    +0.004 A 
ENDBRANCH   1   2
BRANCH   1   8
ATOM      8  C   UNL     1       9.017  -2.570  23.546  0.00  0.00    +0.243 C 
ATOM      9  O   UNL     1       7.842  -2.427  23.218  0.00  0.00    -0.285 OA
BRANCH   8  10
ATOM     10  C   UNL     1       9.284  -3.490  24.730  0.00  0.00    +0.373 C 
ATOM     11  O   UNL     1       9.941  -4.507  24.651  0.00  0.00    -0.242 OA
BRANCH  10  12
ATOM     12  O   UNL     1       8.696  -3.010  25.843  0.00  0.00    -0.475 OA
ATOM     13  H   UNL     1       9.222  -3.291  26.631  0.00  0.00    +0.295 HD
ENDBRANCH  10  12
ENDBRANCH   8  10
ENDBRANCH   1   8
TORSDOF 4
ENDMDL
MODEL 2
REMARK VINA RESULT:      -4.8      0.764      1.586
REMARK  Name = 
REMARK  4 active torsions:
REMARK  status: ('A' for Active; 'I' for Inactive)
REMARK    1  A    between atoms: O_1  and  C_2
REMARK    2  A    between atoms: C_2  and  C_4
REMARK    3  A    between atoms: C_4  and  C_6
REMARK    4  A    between atoms: C_6  and  C_7
REMARK                            x       y       z     vdW  Elec       q    Type
REMARK                         _______ _______ _______ _____ _____    ______ ____
ROOT
ATOM      1  C   UNL     1      10.129  -2.058  23.320  0.00  0.00    +0.121 C 
ENDROOT
BRANCH   1   2
ATOM      2  C   UNL     1      10.148  -0.558  23.161  0.00  0.00    -0.040 A 
ATOM      3  C   UNL     1      10.596   0.263  24.206  0.00  0.00    +0.004 A 
ATOM      4  C   UNL     1      10.626   1.650  24.053  0.00  0.00    +0.000 A 
ATOM      5  C   UNL     1      10.214   2.229  22.855  0.00  0.00    +0.000 A 
ATOM      6  C   UNL     1       9.773   1.423  21.807  0.00  0.00    +0.000 A 
ATOM      7  C   UNL     1       9.741   0.036  21.957  0.00  0.00    +0.004 A 
ENDBRANCH   1   2
BRANCH   1   8
ATOM      8  C   UNL     1       8.922  -2.577  24.059  0.00  0.00    +0.243 C 
ATOM      9  O   UNL     1       7.878  -1.980  24.313  0.00  0.00    -0.285 OA
BRANCH   8  10
ATOM     10  C   UNL     1       9.017  -4.017  24.547  0.00  0.00    +0.373 C 
ATOM     11  O   UNL     1      10.070  -4.585  24.751  0.00  0.00    -0.242 OA
BRANCH  10  12
ATOM     12  O   UNL     1       7.787  -4.542  24.711  0.00  0.00    -0.475 OA
ATOM     13  H   UNL     1       7.524  -4.451  25.659  0.00  0.00    +0.295 HD
ENDBRANCH  10  12
ENDBRANCH   8  10
ENDBRANCH   1   8
TORSDOF 4
ENDMDL
MODEL 3
REMARK VINA RESULT:      -4.8      1.689      2.933
REMARK  Name = 
REMARK  4 active torsions:
REMARK  status: ('A' for Active; 'I' for Inactive)
REMARK    1  A    between atoms: O_1  and  C_2
REMARK    2  A    between atoms: C_2  and  C_4
REMARK    3  A    between atoms: C_4  and  C_6
REMARK    4  A    between atoms: C_6  and  C_7
REMARK                            x       y       z     vdW  Elec       q    Type
REMARK                         _______ _______ _______ _____ _____    ______ ____
ROOT
ATOM      1  C   UNL     1       8.337  -3.603  23.963  0.00  0.00    +0.121 C 
ENDROOT
BRANCH   1   2
ATOM      2  C   UNL     1       8.971  -2.296  23.554  0.00  0.00    -0.040 A 
ATOM      3  C   UNL     1       9.553  -1.456  24.514  0.00  0.00    +0.004 A 
ATOM      4  C   UNL     1      10.151  -0.254  24.132  0.00  0.00    +0.000 A 
ATOM      5  C   UNL     1      10.178   0.117  22.790  0.00  0.00    +0.000 A 
ATOM      6  C   UNL     1       9.608  -0.712  21.827  0.00  0.00    +0.000 A 
ATOM      7  C   UNL     1       9.009  -1.915  22.205  0.00  0.00    +0.004 A 
ENDBRANCH   1   2
BRANCH   1   8
ATOM      8  C   UNL     1       9.146  -4.383  24.970  0.00  0.00    +0.243 C 
ATOM      9  O   UNL     1      10.270  -4.856  24.829  0.00  0.00    -0.285 OA
BRANCH   8  10
ATOM     10  C   UNL     1       8.478  -4.605  26.321  0.00  0.00    +0.373 C 
ATOM     11  O   UNL     1       8.072  -3.701  27.021  0.00  0.00    -0.242 OA
BRANCH  10  12
ATOM     12  O   UNL     1       8.413  -5.920  26.605  0.00  0.00    -0.475 OA
ATOM     13  H   UNL     1       7.601  -6.092  27.141  0.00  0.00    +0.295 HD
ENDBRANCH  10  12
ENDBRANCH   8  10
ENDBRANCH   1   8
TORSDOF 4
ENDMDL
MODEL 4
REMARK VINA RESULT:      -4.7      5.531      6.706
REMARK  Name = 
REMARK  4 active torsions:
REMARK  status: ('A' for Active; 'I' for Inactive)
REMARK    1  A    between atoms: O_1  and  C_2
REMARK    2  A    between atoms: C_2  and  C_4
REMARK    3  A    between atoms: C_4  and  C_6
REMARK    4  A    between atoms: C_6  and  C_7
REMARK                            x       y       z     vdW  Elec       q    Type
REMARK                         _______ _______ _______ _____ _____    ______ ____
ROOT
ATOM      1  C   UNL     1      11.435   3.503  23.652  0.00  0.00    +0.121 C 
ENDROOT
BRANCH   1   2
ATOM      2  C   UNL     1      10.168   2.997  23.008  0.00  0.00    -0.040 A 
ATOM      3  C   UNL     1      10.203   1.902  22.132  0.00  0.00    +0.004 A 
ATOM      4  C   UNL     1       9.029   1.426  21.548  0.00  0.00    +0.000 A 
ATOM      5  C   UNL     1       7.809   2.034  21.836  0.00  0.00    +0.000 A 
ATOM      6  C   UNL     1       7.761   3.118  22.710  0.00  0.00    +0.000 A 
ATOM      7  C   UNL     1       8.934   3.597  23.296  0.00  0.00    +0.004 A 
ENDBRANCH   1   2
BRANCH   1   8
ATOM      8  C   UNL     1      11.744   4.945  23.338  0.00  0.00    +0.243 C 
ATOM      9  O   UNL     1      11.071   5.936  23.609  0.00  0.00    -0.285 OA
BRANCH   8  10
ATOM     10  C   UNL     1      13.051   5.192  22.596  0.00  0.00    +0.373 C 
ATOM     11  O   UNL     1      13.103   5.563  21.441  0.00  0.00    -0.242 OA
BRANCH  10  12
ATOM     12  O   UNL     1      14.104   4.942  23.397  0.00  0.00    -0.475 OA
ATOM     13  H   UNL     1      13.923   4.122  23.918  0.00  0.00    +0.295 HD
ENDBRANCH  10  12
ENDBRANCH   8  10
ENDBRANCH   1   8
TORSDOF 4
ENDMDL
MODEL 5
REMARK VINA RESULT:      -4.6      1.810      2.783
REMARK  Name = 
REMARK  4 active torsions:
REMARK  status: ('A' for Active; 'I' for Inactive)
REMARK    1  A    between atoms: O_1  and  C_2
REMARK    2  A    between atoms: C_2  and  C_4
REMARK    3  A    between atoms: C_4  and  C_6
REMARK    4  A    between atoms: C_6  and  C_7
REMARK                            x       y       z     vdW  Elec       q    Type
REMARK                         _______ _______ _______ _____ _____    ______ ____
ROOT
ATOM      1  C   UNL     1       7.824  -2.998  24.996  0.00  0.00    +0.121 C 
ENDROOT
BRANCH   1   2
ATOM      2  C   UNL     1       8.624  -2.118  24.068  0.00  0.00    -0.040 A 
ATOM      3  C   UNL     1       8.466  -2.219  22.679  0.00  0.00    +0.004 A 
ATOM      4  C   UNL     1       9.196  -1.394  21.822  0.00  0.00    +0.000 A 
ATOM      5  C   UNL     1      10.087  -0.458  22.344  0.00  0.00    +0.000 A 
ATOM      6  C   UNL     1      10.247  -0.345  23.724  0.00  0.00    +0.000 A 
ATOM      7  C   UNL     1       9.518  -1.168  24.583  0.00  0.00    +0.004 A 
ENDBRANCH   1   2
BRANCH   1   8
ATOM      8  C   UNL     1       8.657  -4.005  25.749  0.00  0.00    +0.243 C 
ATOM      9  O   UNL     1       8.915  -4.022  26.950  0.00  0.00    -0.285 OA
BRANCH   8  10
ATOM     10  C   UNL     1       9.243  -5.134  24.912  0.00  0.00    +0.373 C 
ATOM     11  O   UNL     1       8.706  -5.576  23.917  0.00  0.00    -0.242 OA
BRANCH  10  12
ATOM     12  O   UNL     1      10.413  -5.550  25.433  0.00  0.00    -0.475 OA
ATOM     13  H   UNL     1      11.082  -4.829  25.335  0.00  0.00    +0.295 HD
ENDBRANCH  10  12
ENDBRANCH   8  10
ENDBRANCH   1   8
TORSDOF 4
ENDMDL
MODEL 6
REMARK VINA RESULT:      -4.6      2.920      5.596
REMARK  Name = 
REMARK  4 active torsions:
REMARK  status: ('A' for Active; 'I' for Inactive)
REMARK    1  A    between atoms: O_1  and  C_2
REMARK    2  A    between atoms: C_2  and  C_4
REMARK    3  A    between atoms: C_4  and  C_6
REMARK    4  A    between atoms: C_6  and  C_7
REMARK                            x       y       z     vdW  Elec       q    Type
REMARK                         _______ _______ _______ _____ _____    ______ ____
ROOT
ATOM      1  C   UNL     1       7.867  -2.321  23.452  0.00  0.00    +0.121 C 
ENDROOT
BRANCH   1   2
ATOM      2  C   UNL     1       7.162  -3.641  23.264  0.00  0.00    -0.040 A 
ATOM      3  C   UNL     1       7.195  -4.295  22.024  0.00  0.00    +0.004 A 
ATOM      4  C   UNL     1       6.553  -5.523  21.854  0.00  0.00    +0.000 A 
ATOM      5  C   UNL     1       5.879  -6.111  22.921  0.00  0.00    +0.000 A 
ATOM      6  C   UNL     1       5.845  -5.474  24.160  0.00  0.00    +0.000 A 
ATOM      7  C   UNL     1       6.485  -4.246  24.332  0.00  0.00    +0.004 A 
ENDBRANCH   1   2
BRANCH   1   8
ATOM      8  C   UNL     1       9.370  -2.435  23.504  0.00  0.00    +0.243 C 
ATOM      9  O   UNL     1      10.042  -3.299  24.062  0.00  0.00    -0.285 OA
BRANCH   8  10
ATOM     10  C   UNL     1      10.139  -1.343  22.773  0.00  0.00    +0.373 C 
ATOM     11  O   UNL     1      10.650  -0.396  23.334  0.00  0.00    -0.242 OA
BRANCH  10  12
ATOM     12  O   UNL     1      10.162  -1.587  21.448  0.00  0.00    -0.475 OA
ATOM     13  H   UNL     1       9.241  -1.765  21.139  0.00  0.00    +0.295 HD
ENDBRANCH  10  12
ENDBRANCH   8  10
ENDBRANCH   1   8
TORSDOF 4
ENDMDL
MODEL 7
REMARK VINA RESULT:      -4.5      4.216      6.089
REMARK  Name = 
REMARK  4 active torsions:
REMARK  status: ('A' for Active; 'I' for Inactive)
REMARK    1  A    between atoms: O_1  and  C_2
REMARK    2  A    between atoms: C_2  and  C_4
REMARK    3  A    between atoms: C_4  and  C_6
REMARK    4  A    between atoms: C_6  and  C_7
REMARK                            x       y       z     vdW  Elec       q    Type
REMARK                         _______ _______ _______ _____ _____    ______ ____
ROOT
ATOM      1  C   UNL     1      10.592   3.688  23.568  0.00  0.00    +0.121 C 
ENDROOT
BRANCH   1   2
ATOM      2  C   UNL     1      10.384   2.225  23.267  0.00  0.00    -0.040 A 
ATOM      3  C   UNL     1       9.900   1.819  22.015  0.00  0.00    +0.004 A 
ATOM      4  C   UNL     1       9.720   0.464  21.732  0.00  0.00    +0.000 A 
ATOM      5  C   UNL     1      10.027  -0.497  22.693  0.00  0.00    +0.000 A 
ATOM      6  C   UNL     1      10.515  -0.105  23.938  0.00  0.00    +0.000 A 
ATOM      7  C   UNL     1      10.695   1.249  24.224  0.00  0.00    +0.004 A 
ENDBRANCH   1   2
BRANCH   1   8
ATOM      8  C   UNL     1       9.363   4.382  24.101  0.00  0.00    +0.243 C 
ATOM      9  O   UNL     1       8.696   4.081  25.087  0.00  0.00    -0.285 OA
BRANCH   8  10
ATOM     10  C   UNL     1       8.902   5.601  23.314  0.00  0.00    +0.373 C 
ATOM     11  O   UNL     1       9.230   6.737  23.589  0.00  0.00    -0.242 OA
BRANCH  10  12
ATOM     12  O   UNL     1       8.100   5.231  22.297  0.00  0.00    -0.475 OA
ATOM     13  H   UNL     1       7.828   4.291  22.430  0.00  0.00    +0.295 HD
ENDBRANCH  10  12
ENDBRANCH   8  10
ENDBRANCH   1   8
TORSDOF 4
ENDMDL
MODEL 8
REMARK VINA RESULT:      -4.5      4.526      5.809
REMARK  Name = 
REMARK  4 active torsions:
REMARK  status: ('A' for Active; 'I' for Inactive)
REMARK    1  A    between atoms: O_1  and  C_2
REMARK    2  A    between atoms: C_2  and  C_4
REMARK    3  A    between atoms: C_4  and  C_6
REMARK    4  A    between atoms: C_6  and  C_7
REMARK                            x       y       z     vdW  Elec       q    Type
REMARK                         _______ _______ _______ _____ _____    ______ ____
ROOT
ATOM      1  C   UNL     1       7.277  -3.644  25.343  0.00  0.00    +0.121 C 
ENDROOT
BRANCH   1   2
ATOM      2  C   UNL     1       6.644  -4.351  24.171  0.00  0.00    -0.040 A 
ATOM      3  C   UNL     1       6.873  -3.904  22.862  0.00  0.00    +0.004 A 
ATOM      4  C   UNL     1       6.298  -4.567  21.777  0.00  0.00    +0.000 A 
ATOM      5  C   UNL     1       5.493  -5.684  21.988  0.00  0.00    +0.000 A 
ATOM      6  C   UNL     1       5.263  -6.141  23.284  0.00  0.00    +0.000 A 
ATOM      7  C   UNL     1       5.837  -5.480  24.371  0.00  0.00    +0.004 A 
ENDBRANCH   1   2
BRANCH   1   8
ATOM      8  C   UNL     1       8.319  -4.466  26.060  0.00  0.00    +0.243 C 
ATOM      9  O   UNL     1       8.259  -4.937  27.193  0.00  0.00    -0.285 OA
BRANCH   8  10
ATOM     10  C   UNL     1       9.595  -4.741  25.277  0.00  0.00    +0.373 C 
ATOM     11  O   UNL     1      10.019  -4.005  24.410  0.00  0.00    -0.242 OA
BRANCH  10  12
ATOM     12  O   UNL     1      10.161  -5.894  25.685  0.00  0.00    -0.475 OA
ATOM     13  H   UNL     1      11.062  -5.700  26.041  0.00  0.00    +0.295 HD
ENDBRANCH  10  12
ENDBRANCH   8  10
ENDBRANCH   1   8
TORSDOF 4
ENDMDL
MODEL 9
REMARK VINA RESULT:      -4.5      4.077      5.259
REMARK  Name = 
REMARK  4 active torsions:
REMARK  status: ('A' for Active; 'I' for Inactive)
REMARK    1  A    between atoms: O_1  and  C_2
REMARK    2  A    between atoms: C_2  and  C_4
REMARK    3  A    between atoms: C_4  and  C_6
REMARK    4  A    between atoms: C_6  and  C_7
REMARK                            x       y       z     vdW  Elec       q    Type
REMARK                         _______ _______ _______ _____ _____    ______ ____
ROOT
ATOM      1  C   UNL     1       7.429  -5.855  22.420  0.00  0.00    +0.121 C 
ENDROOT
BRANCH   1   2
ATOM      2  C   UNL     1       7.846  -4.705  23.303  0.00  0.00    -0.040 A 
ATOM      3  C   UNL     1       7.755  -3.384  22.841  0.00  0.00    +0.004 A 
ATOM      4  C   UNL     1       8.129  -2.320  23.664  0.00  0.00    +0.000 A 
ATOM      5  C   UNL     1       8.591  -2.565  24.955  0.00  0.00    +0.000 A 
ATOM      6  C   UNL     1       8.680  -3.873  25.427  0.00  0.00    +0.000 A 
ATOM      7  C   UNL     1       8.307  -4.939  24.606  0.00  0.00    +0.004 A 
ENDBRANCH   1   2
BRANCH   1   8
ATOM      8  C   UNL     1       6.104  -5.644  21.731  0.00  0.00    +0.243 C 
ATOM      9  O   UNL     1       5.899  -5.453  20.535  0.00  0.00    -0.285 OA
BRANCH   8  10
ATOM     10  C   UNL     1       4.879  -5.672  22.635  0.00  0.00    +0.373 C 
ATOM     11  O   UNL     1       4.099  -4.747  22.731  0.00  0.00    -0.242 OA
BRANCH  10  12
ATOM     12  O   UNL     1       4.801  -6.847  23.288  0.00  0.00    -0.475 OA
ATOM     13  H   UNL     1       3.982  -7.320  23.001  0.00  0.00    +0.295 HD
ENDBRANCH  10  12
ENDBRANCH   8  10
ENDBRANCH   1   8
TORSDOF 4
ENDMDL
