MODEL 1
REMARK VINA RESULT:      -4.1      0.000      0.000
REMARK  Name = 
REMARK  17 active torsions:
REMARK  status: ('A' for Active; 'I' for Inactive)
REMARK    1  A    between atoms: C_1  and  C_2
REMARK    2  A    between atoms: C_2  and  O_3
REMARK    3  A    between atoms: O_3  and  C_4
REMARK    4  A    between atoms: C_4  and  C_5
REMARK    5  A    between atoms: C_5  and  O_6
REMARK    6  A    between atoms: O_6  and  C_7
REMARK    7  A    between atoms: C_7  and  C_8
REMARK    8  A    between atoms: C_8  and  O_9
REMARK    9  A    between atoms: O_9  and  C_10
REMARK   10  A    between atoms: C_10  and  C_11
REMARK   11  A    between atoms: C_11  and  O_12
REMARK   12  A    between atoms: O_12  and  C_13
REMARK   13  A    between atoms: C_13  and  C_14
REMARK   14  A    between atoms: C_14  and  O_15
REMARK   15  A    between atoms: O_15  and  C_16
REMARK   16  A    between atoms: C_16  and  C_17
REMARK   17  A    between atoms: C_17  and  O_18
REMARK                            x       y       z     vdW  Elec       q    Type
REMARK                         _______ _______ _______ _____ _____    ______ ____
ROOT
ATOM      1  C   UNL     1       9.363  -2.964  24.436  0.00  0.00    +0.188 C 
ENDROOT
BRANCH   1   2
ATOM      2  C   UNL     1      10.048  -2.117  23.371  0.00  0.00    +0.188 C 
BRANCH   2   3
ATOM      3  O   UNL     1       9.170  -1.951  22.258  0.00  0.00    -0.375 OA
BRANCH   3   4
ATOM      4  C   UNL     1       9.458  -0.753  21.538  0.00  0.00    +0.188 C 
BRANCH   4   5
ATOM      5  C   UNL     1       8.995   0.446  22.358  0.00  0.00    +0.188 C 
BRANCH   5   6
ATOM      6  O   UNL     1      10.006   1.456  22.352  0.00  0.00    -0.375 OA
BRANCH   6   7
ATOM      7  C   UNL     1      10.524   1.673  23.672  0.00  0.00    +0.187 C 
BRANCH   7   8
ATOM      8  C   UNL     1       9.444   1.294  24.682  0.00  0.00    +0.184 C 
BRANCH   8   9
ATOM      9  O   UNL     1      10.012   0.511  25.730  0.00  0.00    -0.393 OA
ATOM     10  H   UNL     1      10.711   1.072  26.118  0.00  0.00    +0.209 HD
ENDBRANCH   8   9
ENDBRANCH   7   8
ENDBRANCH   6   7
ENDBRANCH   5   6
ENDBRANCH   4   5
ENDBRANCH   3   4
ENDBRANCH   2   3
ENDBRANCH   1   2
BRANCH   1  11
ATOM     11  O   UNL     1      10.055  -4.205  24.567  0.00  0.00    -0.375 OA
BRANCH  11  12
ATOM     12  C   UNL     1       9.192  -5.234  25.050  0.00  0.00    +0.188 C 
BRANCH  12  13
ATOM     13  C   UNL     1       7.922  -5.263  24.207  0.00  0.00    +0.188 C 
BRANCH  13  14
ATOM     14  O   UNL     1       8.224  -5.800  22.920  0.00  0.00    -0.375 OA
BRANCH  14  15
ATOM     15  C   UNL     1       7.054  -5.891  22.107  0.00  0.00    +0.188 C 
BRANCH  15  16
ATOM     16  C   UNL     1       5.846  -5.437  22.917  0.00  0.00    +0.188 C 
BRANCH  16  17
ATOM     17  O   UNL     1       5.100  -4.483  22.162  0.00  0.00    -0.378 OA
BRANCH  17  19
ATOM     18  C   UNL     1       5.723  -2.465  23.273  0.00  0.00    +0.034 C 
ATOM     19  C   UNL     1       5.828  -3.269  21.992  0.00  0.00    +0.156 C 
ENDBRANCH  17  19
ENDBRANCH  16  17
ENDBRANCH  15  16
ENDBRANCH  14  15
ENDBRANCH  13  14
ENDBRANCH  12  13
ENDBRANCH  11  12
ENDBRANCH   1  11
TORSDOF 16
ENDMDL
MODEL 2
REMARK VINA RESULT:      -4.0      1.753      2.694
REMARK  Name = 
REMARK  17 active torsions:
REMARK  status: ('A' for Active; 'I' for Inactive)
REMARK    1  A    between atoms: C_1  and  C_2
REMARK    2  A    between atoms: C_2  and  O_3
REMARK    3  A    between atoms: O_3  and  C_4
REMARK    4  A    between atoms: C_4  and  C_5
REMARK    5  A    between atoms: C_5  and  O_6
REMARK    6  A    between atoms: O_6  and  C_7
REMARK    7  A    between atoms: C_7  and  C_8
REMARK    8  A    between atoms: C_8  and  O_9
REMARK    9  A    between atoms: O_9  and  C_10
REMARK   10  A    between atoms: C_10  and  C_11
REMARK   11  A    between atoms: C_11  and  O_12
REMARK   12  A    between atoms: O_12  and  C_13
REMARK   13  A    between atoms: C_13  and  C_14
REMARK   14  A    between atoms: C_14  and  O_15
REMARK   15  A    between atoms: O_15  and  C_16
REMARK   16  A    between atoms: C_16  and  C_17
REMARK   17  A    between atoms: C_17  and  O_18
REMARK                            x       y       z     vdW  Elec       q    Type
REMARK                         _______ _______ _______ _____ _____    ______ ____
ROOT
ATOM      1  C   UNL     1       8.791  -3.303  24.223  0.00  0.00    +0.188 C 
ENDROOT
BRANCH   1   2
ATOM      2  C   UNL     1      10.053  -2.559  23.804  0.00  0.00    +0.188 C 
BRANCH   2   3
ATOM      3  O   UNL     1       9.763  -1.168  23.674  0.00  0.00    -0.375 OA
BRANCH   3   4
ATOM      4  C   UNL     1       9.382  -0.595  24.925  0.00  0.00    +0.188 C 
BRANCH   4   5
ATOM      5  C   UNL     1       8.956   0.852  24.701  0.00  0.00    +0.188 C 
BRANCH   5   6
ATOM      6  O   UNL     1      10.112   1.685  24.588  0.00  0.00    -0.375 OA
BRANCH   6   7
ATOM      7  C   UNL     1       9.962   2.629  23.519  0.00  0.00    +0.187 C 
BRANCH   7   8
ATOM      8  C   UNL     1      10.201   1.904  22.198  0.00  0.00    +0.184 C 
BRANCH   8   9
ATOM      9  O   UNL     1       9.110   2.139  21.310  0.00  0.00    -0.393 OA
ATOM     10  H   UNL     1       9.038   1.325  20.773  0.00  0.00    +0.209 HD
ENDBRANCH   8   9
ENDBRANCH   7   8
ENDBRANCH   6   7
ENDBRANCH   5   6
ENDBRANCH   4   5
ENDBRANCH   3   4
ENDBRANCH   2   3
ENDBRANCH   1   2
BRANCH   1  11
ATOM     11  O   UNL     1       9.069  -4.701  24.290  0.00  0.00    -0.375 OA
BRANCH  11  12
ATOM     12  C   UNL     1       9.551  -5.075  25.581  0.00  0.00    +0.188 C 
BRANCH  12  13
ATOM     13  C   UNL     1       8.437  -4.897  26.605  0.00  0.00    +0.188 C 
BRANCH  13  14
ATOM     14  O   UNL     1       7.394  -5.833  26.333  0.00  0.00    -0.375 OA
BRANCH  14  15
ATOM     15  C   UNL     1       6.108  -5.220  26.424  0.00  0.00    +0.188 C 
BRANCH  15  16
ATOM     16  C   UNL     1       5.609  -4.896  25.021  0.00  0.00    +0.188 C 
BRANCH  16  17
ATOM     17  O   UNL     1       5.855  -6.008  24.161  0.00  0.00    -0.378 OA
BRANCH  17  19
ATOM     18  C   UNL     1       6.725  -5.906  21.941  0.00  0.00    +0.034 C 
ATOM     19  C   UNL     1       5.500  -5.712  22.812  0.00  0.00    +0.156 C 
ENDBRANCH  17  19
ENDBRANCH  16  17
ENDBRANCH  15  16
ENDBRANCH  14  15
ENDBRANCH  13  14
ENDBRANCH  12  13
ENDBRANCH  11  12
ENDBRANCH   1  11
TORSDOF 16
ENDMDL
MODEL 3
REMARK VINA RESULT:      -4.0      2.192      6.768
REMARK  Name = 
REMARK  17 active torsions:
REMARK  status: ('A' for Active; 'I' for Inactive)
REMARK    1  A    between atoms: C_1  and  C_2
REMARK    2  A    between atoms: C_2  and  O_3
REMARK    3  A    between atoms: O_3  and  C_4
REMARK    4  A    between atoms: C_4  and  C_5
REMARK    5  A    between atoms: C_5  and  O_6
REMARK    6  A    between atoms: O_6  and  C_7
REMARK    7  A    between atoms: C_7  and  C_8
REMARK    8  A    between atoms: C_8  and  O_9
REMARK    9  A    between atoms: O_9  and  C_10
REMARK   10  A    between atoms: C_10  and  C_11
REMARK   11  A    between atoms: C_11  and  O_12
REMARK   12  A    between atoms: O_12  and  C_13
REMARK   13  A    between atoms: C_13  and  C_14
REMARK   14  A    between atoms: C_14  and  O_15
REMARK   15  A    between atoms: O_15  and  C_16
REMARK   16  A    between atoms: C_16  and  C_17
REMARK   17  A    between atoms: C_17  and  O_18
REMARK                            x       y       z     vdW  Elec       q    Type
REMARK                         _______ _______ _______ _____ _____    ______ ____
ROOT
ATOM      1  C   UNL     1       9.317  -5.324  25.272  0.00  0.00    +0.188 C 
ENDROOT
BRANCH   1   2
ATOM      2  C   UNL     1       8.653  -4.812  26.545  0.00  0.00    +0.188 C 
BRANCH   2   3
ATOM      3  O   UNL     1       7.750  -5.800  27.039  0.00  0.00    -0.375 OA
BRANCH   3   4
ATOM      4  C   UNL     1       6.565  -5.207  27.570  0.00  0.00    +0.188 C 
BRANCH   4   5
ATOM      5  C   UNL     1       5.688  -4.729  26.419  0.00  0.00    +0.188 C 
BRANCH   5   6
ATOM      6  O   UNL     1       5.495  -5.792  25.484  0.00  0.00    -0.375 OA
BRANCH   6   7
ATOM      7  C   UNL     1       5.588  -5.313  24.135  0.00  0.00    +0.187 C 
BRANCH   7   8
ATOM      8  C   UNL     1       4.741  -6.216  23.243  0.00  0.00    +0.184 C 
BRANCH   8   9
ATOM      9  O   UNL     1       4.472  -7.447  23.912  0.00  0.00    -0.393 OA
ATOM     10  H   UNL     1       4.632  -8.141  23.243  0.00  0.00    +0.209 HD
ENDBRANCH   8   9
ENDBRANCH   7   8
ENDBRANCH   6   7
ENDBRANCH   5   6
ENDBRANCH   4   5
ENDBRANCH   3   4
ENDBRANCH   2   3
ENDBRANCH   1   2
BRANCH   1  11
ATOM     11  O   UNL     1       9.854  -4.220  24.545  0.00  0.00    -0.375 OA
BRANCH  11  12
ATOM     12  C   UNL     1       8.820  -3.385  24.025  0.00  0.00    +0.188 C 
BRANCH  12  13
ATOM     13  C   UNL     1       9.302  -1.939  24.005  0.00  0.00    +0.188 C 
BRANCH  13  14
ATOM     14  O   UNL     1       9.193  -1.389  25.318  0.00  0.00    -0.375 OA
BRANCH  14  15
ATOM     15  C   UNL     1       9.322   0.032  25.298  0.00  0.00    +0.188 C 
BRANCH  15  16
ATOM     16  C   UNL     1      10.724   0.401  24.825  0.00  0.00    +0.188 C 
BRANCH  16  17
ATOM     17  O   UNL     1      10.694   1.688  24.209  0.00  0.00    -0.378 OA
BRANCH  17  19
ATOM     18  C   UNL     1       9.949   1.491  21.950  0.00  0.00    +0.034 C 
ATOM     19  C   UNL     1       9.551   1.839  23.371  0.00  0.00    +0.156 C 
ENDBRANCH  17  19
ENDBRANCH  16  17
ENDBRANCH  15  16
ENDBRANCH  14  15
ENDBRANCH  13  14
ENDBRANCH  12  13
ENDBRANCH  11  12
ENDBRANCH   1  11
TORSDOF 16
ENDMDL
MODEL 4
REMARK VINA RESULT:      -4.0      2.876      5.046
REMARK  Name = 
REMARK  17 active torsions:
REMARK  status: ('A' for Active; 'I' for Inactive)
REMARK    1  A    between atoms: C_1  and  C_2
REMARK    2  A    between atoms: C_2  and  O_3
REMARK    3  A    between atoms: O_3  and  C_4
REMARK    4  A    between atoms: C_4  and  C_5
REMARK    5  A    between atoms: C_5  and  O_6
REMARK    6  A    between atoms: O_6  and  C_7
REMARK    7  A    between atoms: C_7  and  C_8
REMARK    8  A    between atoms: C_8  and  O_9
REMARK    9  A    between atoms: O_9  and  C_10
REMARK   10  A    between atoms: C_10  and  C_11
REMARK   11  A    between atoms: C_11  and  O_12
REMARK   12  A    between atoms: O_12  and  C_13
REMARK   13  A    between atoms: C_13  and  C_14
REMARK   14  A    between atoms: C_14  and  O_15
REMARK   15  A    between atoms: O_15  and  C_16
REMARK   16  A    between atoms: C_16  and  C_17
REMARK   17  A    between atoms: C_17  and  O_18
REMARK                            x       y       z     vdW  Elec       q    Type
REMARK                         _______ _______ _______ _____ _____    ______ ____
ROOT
ATOM      1  C   UNL     1       8.748   1.281  23.919  0.00  0.00    +0.188 C 
ENDROOT
BRANCH   1   2
ATOM      2  C   UNL     1       8.914   2.696  24.457  0.00  0.00    +0.188 C 
BRANCH   2   3
ATOM      3  O   UNL     1       9.002   3.612  23.366  0.00  0.00    -0.375 OA
BRANCH   3   4
ATOM      4  C   UNL     1       8.644   4.935  23.763  0.00  0.00    +0.188 C 
BRANCH   4   5
ATOM      5  C   UNL     1       9.851   5.851  23.593  0.00  0.00    +0.188 C 
BRANCH   5   6
ATOM      6  O   UNL     1      11.003   5.247  24.186  0.00  0.00    -0.375 OA
BRANCH   6   7
ATOM      7  C   UNL     1      12.191   5.986  23.867  0.00  0.00    +0.187 C 
BRANCH   7   8
ATOM      8  C   UNL     1      12.961   5.221  22.795  0.00  0.00    +0.184 C 
BRANCH   8   9
ATOM      9  O   UNL     1      14.333   5.107  23.170  0.00  0.00    -0.393 OA
ATOM     10  H   UNL     1      14.576   4.182  22.968  0.00  0.00    +0.209 HD
ENDBRANCH   8   9
ENDBRANCH   7   8
ENDBRANCH   6   7
ENDBRANCH   5   6
ENDBRANCH   4   5
ENDBRANCH   3   4
ENDBRANCH   2   3
ENDBRANCH   1   2
BRANCH   1  11
ATOM     11  O   UNL     1       8.761   1.316  22.492  0.00  0.00    -0.375 OA
BRANCH  11  12
ATOM     12  C   UNL     1       9.862   0.578  21.963  0.00  0.00    +0.188 C 
BRANCH  12  13
ATOM     13  C   UNL     1      10.384  -0.380  23.028  0.00  0.00    +0.188 C 
BRANCH  13  14
ATOM     14  O   UNL     1      10.077  -1.720  22.645  0.00  0.00    -0.375 OA
BRANCH  14  15
ATOM     15  C   UNL     1       9.739  -2.520  23.779  0.00  0.00    +0.188 C 
BRANCH  15  16
ATOM     16  C   UNL     1       8.237  -2.779  23.777  0.00  0.00    +0.188 C 
BRANCH  16  17
ATOM     17  O   UNL     1       7.993  -4.151  23.467  0.00  0.00    -0.378 OA
BRANCH  17  19
ATOM     18  C   UNL     1       7.197  -5.741  21.875  0.00  0.00    +0.034 C 
ATOM     19  C   UNL     1       7.182  -4.286  22.303  0.00  0.00    +0.156 C 
ENDBRANCH  17  19
ENDBRANCH  16  17
ENDBRANCH  15  16
ENDBRANCH  14  15
ENDBRANCH  13  14
ENDBRANCH  12  13
ENDBRANCH  11  12
ENDBRANCH   1  11
TORSDOF 16
ENDMDL
MODEL 5
REMARK VINA RESULT:      -4.0      2.381      6.440
REMARK  Name = 
REMARK  17 active torsions:
REMARK  status: ('A' for Active; 'I' for Inactive)
REMARK    1  A    between atoms: C_1  and  C_2
REMARK    2  A    between atoms: C_2  and  O_3
REMARK    3  A    between atoms: O_3  and  C_4
REMARK    4  A    between atoms: C_4  and  C_5
REMARK    5  A    between atoms: C_5  and  O_6
REMARK    6  A    between atoms: O_6  and  C_7
REMARK    7  A    between atoms: C_7  and  C_8
REMARK    8  A    between atoms: C_8  and  O_9
REMARK    9  A    between atoms: O_9  and  C_10
REMARK   10  A    between atoms: C_10  and  C_11
REMARK   11  A    between atoms: C_11  and  O_12
REMARK   12  A    between atoms: O_12  and  C_13
REMARK   13  A    between atoms: C_13  and  C_14
REMARK   14  A    between atoms: C_14  and  O_15
REMARK   15  A    between atoms: O_15  and  C_16
REMARK   16  A    between atoms: C_16  and  C_17
REMARK   17  A    between atoms: C_17  and  O_18
REMARK                            x       y       z     vdW  Elec       q    Type
REMARK                         _______ _______ _______ _____ _____    ______ ____
ROOT
ATOM      1  C   UNL     1       7.641  -5.227  26.996  0.00  0.00    +0.188 C 
ENDROOT
BRANCH   1   2
ATOM      2  C   UNL     1       6.194  -5.604  27.291  0.00  0.00    +0.188 C 
BRANCH   2   3
ATOM      3  O   UNL     1       5.759  -6.585  26.349  0.00  0.00    -0.375 OA
BRANCH   3   4
ATOM      4  C   UNL     1       4.353  -6.813  26.444  0.00  0.00    +0.188 C 
BRANCH   4   5
ATOM      5  C   UNL     1       3.828  -7.264  25.086  0.00  0.00    +0.188 C 
BRANCH   5   6
ATOM      6  O   UNL     1       4.737  -6.862  24.058  0.00  0.00    -0.375 OA
BRANCH   6   7
ATOM      7  C   UNL     1       4.135  -5.888  23.194  0.00  0.00    +0.187 C 
BRANCH   7   8
ATOM      8  C   UNL     1       5.175  -4.819  22.874  0.00  0.00    +0.184 C 
BRANCH   8   9
ATOM      9  O   UNL     1       5.734  -4.306  24.082  0.00  0.00    -0.393 OA
ATOM     10  H   UNL     1       5.024  -4.392  24.748  0.00  0.00    +0.209 HD
ENDBRANCH   8   9
ENDBRANCH   7   8
ENDBRANCH   6   7
ENDBRANCH   5   6
ENDBRANCH   4   5
ENDBRANCH   3   4
ENDBRANCH   2   3
ENDBRANCH   1   2
BRANCH   1  11
ATOM     11  O   UNL     1       7.885  -5.358  25.596  0.00  0.00    -0.375 OA
BRANCH  11  12
ATOM     12  C   UNL     1       9.269  -5.187  25.291  0.00  0.00    +0.188 C 
BRANCH  12  13
ATOM     13  C   UNL     1       9.483  -3.805  24.684  0.00  0.00    +0.188 C 
BRANCH  13  14
ATOM     14  O   UNL     1       8.499  -3.577  23.675  0.00  0.00    -0.375 OA
BRANCH  14  15
ATOM     15  C   UNL     1       8.650  -2.286  23.085  0.00  0.00    +0.188 C 
BRANCH  15  16
ATOM     16  C   UNL     1      10.126  -1.910  23.075  0.00  0.00    +0.188 C 
BRANCH  16  17
ATOM     17  O   UNL     1      10.262  -0.531  22.733  0.00  0.00    -0.378 OA
BRANCH  17  19
ATOM     18  C   UNL     1       9.042   1.206  21.643  0.00  0.00    +0.034 C 
ATOM     19  C   UNL     1       9.552  -0.217  21.538  0.00  0.00    +0.156 C 
ENDBRANCH  17  19
ENDBRANCH  16  17
ENDBRANCH  15  16
ENDBRANCH  14  15
ENDBRANCH  13  14
ENDBRANCH  12  13
ENDBRANCH  11  12
ENDBRANCH   1  11
TORSDOF 16
ENDMDL
MODEL 6
REMARK VINA RESULT:      -3.9      1.673      2.456
REMARK  Name = 
REMARK  17 active torsions:
REMARK  status: ('A' for Active; 'I' for Inactive)
REMARK    1  A    between atoms: C_1  and  C_2
REMARK    2  A    between atoms: C_2  and  O_3
REMARK    3  A    between atoms: O_3  and  C_4
REMARK    4  A    between atoms: C_4  and  C_5
REMARK    5  A    between atoms: C_5  and  O_6
REMARK    6  A    between atoms: O_6  and  C_7
REMARK    7  A    between atoms: C_7  and  C_8
REMARK    8  A    between atoms: C_8  and  O_9
REMARK    9  A    between atoms: O_9  and  C_10
REMARK   10  A    between atoms: C_10  and  C_11
REMARK   11  A    between atoms: C_11  and  O_12
REMARK   12  A    between atoms: O_12  and  C_13
REMARK   13  A    between atoms: C_13  and  C_14
REMARK   14  A    between atoms: C_14  and  O_15
REMARK   15  A    between atoms: O_15  and  C_16
REMARK   16  A    between atoms: C_16  and  C_17
REMARK   17  A    between atoms: C_17  and  O_18
REMARK                            x       y       z     vdW  Elec       q    Type
REMARK                         _______ _______ _______ _____ _____    ______ ____
ROOT
ATOM      1  C   UNL     1       9.246  -4.372  25.229  0.00  0.00    +0.188 C 
ENDROOT
BRANCH   1   2
ATOM      2  C   UNL     1       8.973  -3.378  24.107  0.00  0.00    +0.188 C 
BRANCH   2   3
ATOM      3  O   UNL     1      10.203  -2.788  23.687  0.00  0.00    -0.375 OA
BRANCH   3   4
ATOM      4  C   UNL     1      10.000  -1.862  22.619  0.00  0.00    +0.188 C 
BRANCH   4   5
ATOM      5  C   UNL     1       8.634  -1.207  22.780  0.00  0.00    +0.188 C 
BRANCH   5   6
ATOM      6  O   UNL     1       8.657   0.106  22.215  0.00  0.00    -0.375 OA
BRANCH   6   7
ATOM      7  C   UNL     1       8.821   1.101  23.234  0.00  0.00    +0.187 C 
BRANCH   7   8
ATOM      8  C   UNL     1      10.087   1.897  22.931  0.00  0.00    +0.184 C 
BRANCH   8   9
ATOM      9  O   UNL     1      10.131   2.233  21.546  0.00  0.00    -0.393 OA
ATOM     10  H   UNL     1       9.406   1.723  21.136  0.00  0.00    +0.209 HD
ENDBRANCH   8   9
ENDBRANCH   7   8
ENDBRANCH   6   7
ENDBRANCH   5   6
ENDBRANCH   4   5
ENDBRANCH   3   4
ENDBRANCH   2   3
ENDBRANCH   1   2
BRANCH   1  11
ATOM     11  O   UNL     1       8.204  -5.347  25.258  0.00  0.00    -0.375 OA
BRANCH  11  12
ATOM     12  C   UNL     1       7.532  -5.354  26.517  0.00  0.00    +0.188 C 
BRANCH  12  13
ATOM     13  C   UNL     1       6.036  -5.542  26.289  0.00  0.00    +0.188 C 
BRANCH  13  14
ATOM     14  O   UNL     1       5.770  -5.534  24.886  0.00  0.00    -0.375 OA
BRANCH  14  15
ATOM     15  C   UNL     1       4.593  -4.785  24.585  0.00  0.00    +0.188 C 
BRANCH  15  16
ATOM     16  C   UNL     1       4.883  -3.844  23.421  0.00  0.00    +0.188 C 
BRANCH  16  17
ATOM     17  O   UNL     1       4.994  -4.601  22.216  0.00  0.00    -0.378 OA
BRANCH  17  19
ATOM     18  C   UNL     1       7.029  -5.701  21.632  0.00  0.00    +0.034 C 
ATOM     19  C   UNL     1       6.258  -4.397  21.588  0.00  0.00    +0.156 C 
ENDBRANCH  17  19
ENDBRANCH  16  17
ENDBRANCH  15  16
ENDBRANCH  14  15
ENDBRANCH  13  14
ENDBRANCH  12  13
ENDBRANCH  11  12
ENDBRANCH   1  11
TORSDOF 16
ENDMDL
MODEL 7
REMARK VINA RESULT:      -3.9      1.941      3.223
REMARK  Name = 
REMARK  17 active torsions:
REMARK  status: ('A' for Active; 'I' for Inactive)
REMARK    1  A    between atoms: C_1  and  C_2
REMARK    2  A    between atoms: C_2  and  O_3
REMARK    3  A    between atoms: O_3  and  C_4
REMARK    4  A    between atoms: C_4  and  C_5
REMARK    5  A    between atoms: C_5  and  O_6
REMARK    6  A    between atoms: O_6  and  C_7
REMARK    7  A    between atoms: C_7  and  C_8
REMARK    8  A    between atoms: C_8  and  O_9
REMARK    9  A    between atoms: O_9  and  C_10
REMARK   10  A    between atoms: C_10  and  C_11
REMARK   11  A    between atoms: C_11  and  O_12
REMARK   12  A    between atoms: O_12  and  C_13
REMARK   13  A    between atoms: C_13  and  C_14
REMARK   14  A    between atoms: C_14  and  O_15
REMARK   15  A    between atoms: O_15  and  C_16
REMARK   16  A    between atoms: C_16  and  C_17
REMARK   17  A    between atoms: C_17  and  O_18
REMARK                            x       y       z     vdW  Elec       q    Type
REMARK                         _______ _______ _______ _____ _____    ______ ____
ROOT
ATOM      1  C   UNL     1       8.605  -4.861  24.560  0.00  0.00    +0.188 C 
ENDROOT
BRANCH   1   2
ATOM      2  C   UNL     1       8.678  -3.373  24.237  0.00  0.00    +0.188 C 
BRANCH   2   3
ATOM      3  O   UNL     1      10.023  -3.024  23.913  0.00  0.00    -0.375 OA
BRANCH   3   4
ATOM      4  C   UNL     1      10.119  -1.670  23.469  0.00  0.00    +0.188 C 
BRANCH   4   5
ATOM      5  C   UNL     1       9.477  -1.550  22.092  0.00  0.00    +0.188 C 
BRANCH   5   6
ATOM      6  O   UNL     1       8.381  -0.634  22.147  0.00  0.00    -0.375 OA
BRANCH   6   7
ATOM      7  C   UNL     1       8.728   0.536  22.901  0.00  0.00    +0.187 C 
BRANCH   7   8
ATOM      8  C   UNL     1       8.672   1.743  21.970  0.00  0.00    +0.184 C 
BRANCH   8   9
ATOM      9  O   UNL     1       9.975   2.028  21.464  0.00  0.00    -0.393 OA
ATOM     10  H   UNL     1      10.290   2.794  21.983  0.00  0.00    +0.209 HD
ENDBRANCH   8   9
ENDBRANCH   7   8
ENDBRANCH   6   7
ENDBRANCH   5   6
ENDBRANCH   4   5
ENDBRANCH   3   4
ENDBRANCH   2   3
ENDBRANCH   1   2
BRANCH   1  11
ATOM     11  O   UNL     1       8.338  -5.589  23.362  0.00  0.00    -0.375 OA
BRANCH  11  12
ATOM     12  C   UNL     1       7.368  -4.924  22.553  0.00  0.00    +0.188 C 
BRANCH  12  13
ATOM     13  C   UNL     1       6.422  -5.956  21.951  0.00  0.00    +0.188 C 
BRANCH  13  14
ATOM     14  O   UNL     1       5.101  -5.416  21.908  0.00  0.00    -0.375 OA
BRANCH  14  15
ATOM     15  C   UNL     1       4.906  -4.439  22.930  0.00  0.00    +0.188 C 
BRANCH  15  16
ATOM     16  C   UNL     1       3.696  -4.831  23.771  0.00  0.00    +0.188 C 
BRANCH  16  17
ATOM     17  O   UNL     1       2.624  -5.214  22.911  0.00  0.00    -0.378 OA
BRANCH  17  19
ATOM     18  C   UNL     1       1.476  -7.260  22.475  0.00  0.00    +0.034 C 
ATOM     19  C   UNL     1       1.799  -6.206  23.516  0.00  0.00    +0.156 C 
ENDBRANCH  17  19
ENDBRANCH  16  17
ENDBRANCH  15  16
ENDBRANCH  14  15
ENDBRANCH  13  14
ENDBRANCH  12  13
ENDBRANCH  11  12
ENDBRANCH   1  11
TORSDOF 16
ENDMDL
MODEL 8
REMARK VINA RESULT:      -3.9      2.421      3.564
REMARK  Name = 
REMARK  17 active torsions:
REMARK  status: ('A' for Active; 'I' for Inactive)
REMARK    1  A    between atoms: C_1  and  C_2
REMARK    2  A    between atoms: C_2  and  O_3
REMARK    3  A    between atoms: O_3  and  C_4
REMARK    4  A    between atoms: C_4  and  C_5
REMARK    5  A    between atoms: C_5  and  O_6
REMARK    6  A    between atoms: O_6  and  C_7
REMARK    7  A    between atoms: C_7  and  C_8
REMARK    8  A    between atoms: C_8  and  O_9
REMARK    9  A    between atoms: O_9  and  C_10
REMARK   10  A    between atoms: C_10  and  C_11
REMARK   11  A    between atoms: C_11  and  O_12
REMARK   12  A    between atoms: O_12  and  C_13
REMARK   13  A    between atoms: C_13  and  C_14
REMARK   14  A    between atoms: C_14  and  O_15
REMARK   15  A    between atoms: O_15  and  C_16
REMARK   16  A    between atoms: C_16  and  C_17
REMARK   17  A    between atoms: C_17  and  O_18
REMARK                            x       y       z     vdW  Elec       q    Type
REMARK                         _______ _______ _______ _____ _____    ______ ____
ROOT
ATOM      1  C   UNL     1       8.696  -2.268  22.798  0.00  0.00    +0.188 C 
ENDROOT
BRANCH   1   2
ATOM      2  C   UNL     1       9.481  -1.285  21.939  0.00  0.00    +0.188 C 
BRANCH   2   3
ATOM      3  O   UNL     1      10.397  -0.563  22.762  0.00  0.00    -0.375 OA
BRANCH   3   4
ATOM      4  C   UNL     1      10.063  -0.681  24.145  0.00  0.00    +0.188 C 
BRANCH   4   5
ATOM      5  C   UNL     1      10.143   0.695  24.796  0.00  0.00    +0.188 C 
BRANCH   5   6
ATOM      6  O   UNL     1      10.742   1.625  23.891  0.00  0.00    -0.375 OA
BRANCH   6   7
ATOM      7  C   UNL     1       9.940   2.807  23.764  0.00  0.00    +0.187 C 
BRANCH   7   8
ATOM      8  C   UNL     1       8.976   2.613  22.598  0.00  0.00    +0.184 C 
BRANCH   8   9
ATOM      9  O   UNL     1       9.681   2.122  21.460  0.00  0.00    -0.393 OA
ATOM     10  H   UNL     1       8.988   1.912  20.802  0.00  0.00    +0.209 HD
ENDBRANCH   8   9
ENDBRANCH   7   8
ENDBRANCH   6   7
ENDBRANCH   5   6
ENDBRANCH   4   5
ENDBRANCH   3   4
ENDBRANCH   2   3
ENDBRANCH   1   2
BRANCH   1  11
ATOM     11  O   UNL     1       7.792  -2.999  21.970  0.00  0.00    -0.375 OA
BRANCH  11  12
ATOM     12  C   UNL     1       7.209  -4.094  22.675  0.00  0.00    +0.188 C 
BRANCH  12  13
ATOM     13  C   UNL     1       8.013  -4.363  23.942  0.00  0.00    +0.188 C 
BRANCH  13  14
ATOM     14  O   UNL     1       7.134  -4.817  24.970  0.00  0.00    -0.375 OA
BRANCH  14  15
ATOM     15  C   UNL     1       7.834  -5.034  26.195  0.00  0.00    +0.188 C 
BRANCH  15  16
ATOM     16  C   UNL     1       6.826  -5.169  27.330  0.00  0.00    +0.188 C 
BRANCH  16  17
ATOM     17  O   UNL     1       6.355  -6.515  27.390  0.00  0.00    -0.378 OA
BRANCH  17  19
ATOM     18  C   UNL     1       4.478  -6.881  25.963  0.00  0.00    +0.034 C 
ATOM     19  C   UNL     1       4.931  -6.570  27.376  0.00  0.00    +0.156 C 
ENDBRANCH  17  19
ENDBRANCH  16  17
ENDBRANCH  15  16
ENDBRANCH  14  15
ENDBRANCH  13  14
ENDBRANCH  12  13
ENDBRANCH  11  12
ENDBRANCH   1  11
TORSDOF 16
ENDMDL
MODEL 9
REMARK VINA RESULT:      -3.9      1.812      6.328
REMARK  Name = 
REMARK  17 active torsions:
REMARK  status: ('A' for Active; 'I' for Inactive)
REMARK    1  A    between atoms: C_1  and  C_2
REMARK    2  A    between atoms: C_2  and  O_3
REMARK    3  A    between atoms: O_3  and  C_4
REMARK    4  A    between atoms: C_4  and  C_5
REMARK    5  A    between atoms: C_5  and  O_6
REMARK    6  A    between atoms: O_6  and  C_7
REMARK    7  A    between atoms: C_7  and  C_8
REMARK    8  A    between atoms: C_8  and  O_9
REMARK    9  A    between atoms: O_9  and  C_10
REMARK   10  A    between atoms: C_10  and  C_11
REMARK   11  A    between atoms: C_11  and  O_12
REMARK   12  A    between atoms: O_12  and  C_13
REMARK   13  A    between atoms: C_13  and  C_14
REMARK   14  A    between atoms: C_14  and  O_15
REMARK   15  A    between atoms: O_15  and  C_16
REMARK   16  A    between atoms: C_16  and  C_17
REMARK   17  A    between atoms: C_17  and  O_18
REMARK                            x       y       z     vdW  Elec       q    Type
REMARK                         _______ _______ _______ _____ _____    ______ ____
ROOT
ATOM      1  C   UNL     1       6.118  -3.679  21.818  0.00  0.00    +0.188 C 
ENDROOT
BRANCH   1   2
ATOM      2  C   UNL     1       5.237  -4.298  22.896  0.00  0.00    +0.188 C 
BRANCH   2   3
ATOM      3  O   UNL     1       5.774  -5.564  23.278  0.00  0.00    -0.375 OA
BRANCH   3   4
ATOM      4  C   UNL     1       5.170  -6.047  24.478  0.00  0.00    +0.188 C 
BRANCH   4   5
ATOM      5  C   UNL     1       5.740  -5.280  25.666  0.00  0.00    +0.188 C 
BRANCH   5   6
ATOM      6  O   UNL     1       6.989  -5.853  26.059  0.00  0.00    -0.375 OA
BRANCH   6   7
ATOM      7  C   UNL     1       7.994  -4.841  26.207  0.00  0.00    +0.187 C 
BRANCH   7   8
ATOM      8  C   UNL     1       9.140  -5.156  25.251  0.00  0.00    +0.184 C 
BRANCH   8   9
ATOM      9  O   UNL     1       8.637  -5.323  23.927  0.00  0.00    -0.393 OA
ATOM     10  H   UNL     1       8.747  -6.274  23.730  0.00  0.00    +0.209 HD
ENDBRANCH   8   9
ENDBRANCH   7   8
ENDBRANCH   6   7
ENDBRANCH   5   6
ENDBRANCH   4   5
ENDBRANCH   3   4
ENDBRANCH   2   3
ENDBRANCH   1   2
BRANCH   1  11
ATOM     11  O   UNL     1       7.268  -3.094  22.429  0.00  0.00    -0.375 OA
BRANCH  11  12
ATOM     12  C   UNL     1       6.903  -2.222  23.498  0.00  0.00    +0.188 C 
BRANCH  12  13
ATOM     13  C   UNL     1       7.654  -0.904  23.351  0.00  0.00    +0.188 C 
BRANCH  13  14
ATOM     14  O   UNL     1       8.341  -0.615  24.568  0.00  0.00    -0.375 OA
BRANCH  14  15
ATOM     15  C   UNL     1       9.710  -1.011  24.500  0.00  0.00    +0.188 C 
BRANCH  15  16
ATOM     16  C   UNL     1      10.465  -0.045  23.593  0.00  0.00    +0.188 C 
BRANCH  16  17
ATOM     17  O   UNL     1      10.675   1.187  24.282  0.00  0.00    -0.378 OA
BRANCH  17  19
ATOM     18  C   UNL     1      10.009   1.792  22.072  0.00  0.00    +0.034 C 
ATOM     19  C   UNL     1      10.416   2.306  23.439  0.00  0.00    +0.156 C 
ENDBRANCH  17  19
ENDBRANCH  16  17
ENDBRANCH  15  16
ENDBRANCH  14  15
ENDBRANCH  13  14
ENDBRANCH  12  13
ENDBRANCH  11  12
ENDBRANCH   1  11
TORSDOF 16
ENDMDL
