MODEL 1
REMARK VINA RESULT:      -5.7      0.000      0.000
REMARK  Name = 
REMARK  8 active torsions:
REMARK  status: ('A' for Active; 'I' for Inactive)
REMARK    1  A    between atoms: C_1  and  N_2
REMARK    2  A    between atoms: N_2  and  N_3
REMARK    3  A    between atoms: N_7  and  C_8
REMARK    4  A    between atoms: C_10  and  O_12
REMARK    5  A    between atoms: C_14  and  C_16
REMARK    6  A    between atoms: C_16  and  O_17
REMARK    7  A    between atoms: C_18  and  O_20
REMARK    8  A    between atoms: C_21  and  O_23
REMARK                            x       y       z     vdW  Elec       q    Type
REMARK                         _______ _______ _______ _____ _____    ______ ____
ROOT
ATOM      1  C   UNL     1      10.341   0.567  22.936  0.00  0.00    +0.161 C 
ATOM      2  C   UNL     1      10.336   1.969  23.577  0.00  0.00    +0.171 C 
ATOM      3  C   UNL     1       8.924   2.313  24.094  0.00  0.00    +0.176 C 
ATOM      4  C   UNL     1       7.797   1.936  23.088  0.00  0.00    +0.178 C 
ATOM      5  O   UNL     1       8.029   0.724  22.342  0.00  0.00    -0.341 OA
ATOM      6  C   UNL     1       9.341   0.627  21.759  0.00  0.00    +0.270 C 
ENDROOT
BRANCH   1  10
ATOM      7  C   UNL     1       9.203  -3.966  24.836  0.00  0.00    +0.166 C 
ATOM      8  N   UNL     1       9.119  -2.519  24.737  0.00  0.00    -0.144 N 
ATOM      9  C   UNL     1       9.907  -1.847  23.784  0.00  0.00    +0.324 C 
ATOM     10  N   UNL     1       9.789  -0.481  23.828  0.00  0.00    -0.288 N 
ATOM     11  H   UNL     1       9.086  -0.103  24.455  0.00  0.00    +0.151 HD
ATOM     12  O   UNL     1      10.636  -2.399  22.965  0.00  0.00    -0.251 OA
BRANCH   8  13
ATOM     13  N   UNL     1       8.318  -1.785  25.630  0.00  0.00    +0.052 NA
ATOM     14  O   UNL     1       8.936  -1.144  26.486  0.00  0.00    -0.126 OA
ENDBRANCH   8  13
ENDBRANCH   1  10
BRANCH   2  15
ATOM     15  O   UNL     1      10.754   2.935  22.607  0.00  0.00    -0.387 OA
ATOM     16  H   UNL     1      11.404   3.533  23.023  0.00  0.00    +0.210 HD
ENDBRANCH   2  15
BRANCH   3  17
ATOM     17  O   UNL     1       8.693   1.646  25.349  0.00  0.00    -0.387 OA
ATOM     18  H   UNL     1       7.746   1.718  25.565  0.00  0.00    +0.210 HD
ENDBRANCH   3  17
BRANCH   6  19
ATOM     19  O   UNL     1       9.392  -0.577  20.999  0.00  0.00    -0.365 OA
ATOM     20  H   UNL     1       8.516  -0.990  21.057  0.00  0.00    +0.213 HD
ENDBRANCH   6  19
BRANCH   4  21
ATOM     21  C   UNL     1       7.431   3.064  22.117  0.00  0.00    +0.190 C 
BRANCH  21  22
ATOM     22  O   UNL     1       8.142   4.261  22.402  0.00  0.00    -0.392 OA
ATOM     23  H   UNL     1       7.491   4.986  22.442  0.00  0.00    +0.210 HD
ENDBRANCH  21  22
ENDBRANCH   4  21
TORSDOF 7
ENDMDL
MODEL 2
REMARK VINA RESULT:      -5.7      2.829      4.106
REMARK  Name = 
REMARK  8 active torsions:
REMARK  status: ('A' for Active; 'I' for Inactive)
REMARK    1  A    between atoms: C_1  and  N_2
REMARK    2  A    between atoms: N_2  and  N_3
REMARK    3  A    between atoms: N_7  and  C_8
REMARK    4  A    between atoms: C_10  and  O_12
REMARK    5  A    between atoms: C_14  and  C_16
REMARK    6  A    between atoms: C_16  and  O_17
REMARK    7  A    between atoms: C_18  and  O_20
REMARK    8  A    between atoms: C_21  and  O_23
REMARK                            x       y       z     vdW  Elec       q    Type
REMARK                         _______ _______ _______ _____ _____    ______ ____
ROOT
ATOM      1  C   UNL     1       8.157  -1.751  22.055  0.00  0.00    +0.161 C 
ATOM      2  C   UNL     1       9.691  -1.595  22.076  0.00  0.00    +0.171 C 
ATOM      3  C   UNL     1      10.227  -1.788  23.509  0.00  0.00    +0.176 C 
ATOM      4  C   UNL     1       9.376  -1.050  24.584  0.00  0.00    +0.178 C 
ATOM      5  O   UNL     1       7.957  -1.032  24.328  0.00  0.00    -0.341 OA
ATOM      6  C   UNL     1       7.599  -0.652  22.987  0.00  0.00    +0.270 C 
ENDROOT
BRANCH   1  10
ATOM      7  C   UNL     1       5.255  -5.713  23.213  0.00  0.00    +0.166 C 
ATOM      8  N   UNL     1       6.401  -4.831  23.356  0.00  0.00    -0.144 N 
ATOM      9  C   UNL     1       6.544  -3.740  22.480  0.00  0.00    +0.324 C 
ATOM     10  N   UNL     1       7.695  -3.018  22.672  0.00  0.00    -0.288 N 
ATOM     11  H   UNL     1       8.264  -3.271  23.474  0.00  0.00    +0.151 HD
ATOM     12  O   UNL     1       5.731  -3.425  21.617  0.00  0.00    -0.251 OA
BRANCH   8  13
ATOM     13  N   UNL     1       7.399  -5.102  24.310  0.00  0.00    +0.052 NA
ATOM     14  O   UNL     1       8.492  -5.439  23.846  0.00  0.00    -0.126 OA
ENDBRANCH   8  13
ENDBRANCH   1  10
BRANCH   2  15
ATOM     15  O   UNL     1      10.041  -0.295  21.590  0.00  0.00    -0.387 OA
ATOM     16  H   UNL     1      10.254  -0.364  20.640  0.00  0.00    +0.210 HD
ENDBRANCH   2  15
BRANCH   3  17
ATOM     17  O   UNL     1      10.283  -3.193  23.820  0.00  0.00    -0.387 OA
ATOM     18  H   UNL     1       9.420  -3.461  24.185  0.00  0.00    +0.210 HD
ENDBRANCH   3  17
BRANCH   6  19
ATOM     19  O   UNL     1       6.177  -0.609  22.911  0.00  0.00    -0.365 OA
ATOM     20  H   UNL     1       5.946   0.010  22.199  0.00  0.00    +0.213 HD
ENDBRANCH   6  19
BRANCH   4  21
ATOM     21  C   UNL     1       9.853   0.377  24.879  0.00  0.00    +0.190 C 
BRANCH  21  22
ATOM     22  O   UNL     1      11.134   0.635  24.321  0.00  0.00    -0.392 OA
ATOM     23  H   UNL     1      10.999   0.952  23.410  0.00  0.00    +0.210 HD
ENDBRANCH  21  22
ENDBRANCH   4  21
TORSDOF 7
ENDMDL
MODEL 3
REMARK VINA RESULT:      -5.7      2.687      3.743
REMARK  Name = 
REMARK  8 active torsions:
REMARK  status: ('A' for Active; 'I' for Inactive)
REMARK    1  A    between atoms: C_1  and  N_2
REMARK    2  A    between atoms: N_2  and  N_3
REMARK    3  A    between atoms: N_7  and  C_8
REMARK    4  A    between atoms: C_10  and  O_12
REMARK    5  A    between atoms: C_14  and  C_16
REMARK    6  A    between atoms: C_16  and  O_17
REMARK    7  A    between atoms: C_18  and  O_20
REMARK    8  A    between atoms: C_21  and  O_23
REMARK                            x       y       z     vdW  Elec       q    Type
REMARK                         _______ _______ _______ _____ _____    ______ ____
ROOT
ATOM      1  C   UNL     1       8.497  -2.022  24.324  0.00  0.00    +0.161 C 
ATOM      2  C   UNL     1       7.844  -0.649  24.580  0.00  0.00    +0.171 C 
ATOM      3  C   UNL     1       7.507   0.039  23.241  0.00  0.00    +0.176 C 
ATOM      4  C   UNL     1       8.652  -0.072  22.193  0.00  0.00    +0.178 C 
ATOM      5  O   UNL     1       9.378  -1.317  22.214  0.00  0.00    -0.341 OA
ATOM      6  C   UNL     1       9.790  -1.743  23.526  0.00  0.00    +0.270 C 
ENDROOT
BRANCH   1  10
ATOM      7  C   UNL     1       6.829  -6.097  21.861  0.00  0.00    +0.166 C 
ATOM      8  N   UNL     1       6.908  -4.678  22.158  0.00  0.00    -0.144 N 
ATOM      9  C   UNL     1       7.752  -4.238  23.196  0.00  0.00    +0.324 C 
ATOM     10  N   UNL     1       7.694  -2.886  23.424  0.00  0.00    -0.288 N 
ATOM     11  H   UNL     1       7.145  -2.336  22.772  0.00  0.00    +0.151 HD
ATOM     12  O   UNL     1       8.492  -4.965  23.851  0.00  0.00    -0.251 OA
BRANCH   8  13
ATOM     13  N   UNL     1       6.099  -3.755  21.472  0.00  0.00    +0.052 NA
ATOM     14  O   UNL     1       5.136  -3.322  22.111  0.00  0.00    -0.126 OA
ENDBRANCH   8  13
ENDBRANCH   1  10
BRANCH   2  15
ATOM     15  O   UNL     1       8.741   0.167  25.341  0.00  0.00    -0.387 OA
ATOM     16  H   UNL     1       8.766  -0.168  26.257  0.00  0.00    +0.210 HD
ENDBRANCH   2  15
BRANCH   3  17
ATOM     17  O   UNL     1       6.299  -0.526  22.697  0.00  0.00    -0.387 OA
ATOM     18  H   UNL     1       5.859  -1.041  23.397  0.00  0.00    +0.210 HD
ENDBRANCH   3  17
BRANCH   6  19
ATOM     19  O   UNL     1      10.552  -2.938  23.377  0.00  0.00    -0.365 OA
ATOM     20  H   UNL     1      10.225  -3.570  24.037  0.00  0.00    +0.213 HD
ENDBRANCH   6  19
BRANCH   4  21
ATOM     21  C   UNL     1       9.648   1.093  22.239  0.00  0.00    +0.190 C 
BRANCH  21  22
ATOM     22  O   UNL     1       9.284   2.140  21.351  0.00  0.00    -0.392 OA
ATOM     23  H   UNL     1      10.104   2.490  20.958  0.00  0.00    +0.210 HD
ENDBRANCH  21  22
ENDBRANCH   4  21
TORSDOF 7
ENDMDL
MODEL 4
REMARK VINA RESULT:      -5.5      1.206      1.726
REMARK  Name = 
REMARK  8 active torsions:
REMARK  status: ('A' for Active; 'I' for Inactive)
REMARK    1  A    between atoms: C_1  and  N_2
REMARK    2  A    between atoms: N_2  and  N_3
REMARK    3  A    between atoms: N_7  and  C_8
REMARK    4  A    between atoms: C_10  and  O_12
REMARK    5  A    between atoms: C_14  and  C_16
REMARK    6  A    between atoms: C_16  and  O_17
REMARK    7  A    between atoms: C_18  and  O_20
REMARK    8  A    between atoms: C_21  and  O_23
REMARK                            x       y       z     vdW  Elec       q    Type
REMARK                         _______ _______ _______ _____ _____    ______ ____
ROOT
ATOM      1  C   UNL     1       8.888   0.288  22.493  0.00  0.00    +0.161 C 
ATOM      2  C   UNL     1      10.167   1.149  22.494  0.00  0.00    +0.171 C 
ATOM      3  C   UNL     1      10.389   1.772  23.888  0.00  0.00    +0.176 C 
ATOM      4  C   UNL     1       9.085   2.351  24.512  0.00  0.00    +0.178 C 
ATOM      5  O   UNL     1       7.888   1.598  24.227  0.00  0.00    -0.341 OA
ATOM      6  C   UNL     1       7.725   1.243  22.842  0.00  0.00    +0.270 C 
ENDROOT
BRANCH   1  10
ATOM      7  C   UNL     1       9.418  -4.086  24.951  0.00  0.00    +0.166 C 
ATOM      8  N   UNL     1       8.974  -2.713  24.784  0.00  0.00    -0.144 N 
ATOM      9  C   UNL     1       9.284  -2.029  23.594  0.00  0.00    +0.324 C 
ATOM     10  N   UNL     1       8.868  -0.721  23.579  0.00  0.00    -0.288 N 
ATOM     11  H   UNL     1       8.301  -0.414  24.362  0.00  0.00    +0.151 HD
ATOM     12  O   UNL     1       9.863  -2.525  22.632  0.00  0.00    -0.251 OA
BRANCH   8  13
ATOM     13  N   UNL     1       8.308  -2.044  25.826  0.00  0.00    +0.052 NA
ATOM     14  O   UNL     1       8.942  -1.125  26.352  0.00  0.00    -0.126 OA
ENDBRANCH   8  13
ENDBRANCH   1  10
BRANCH   2  15
ATOM     15  O   UNL     1      10.045   2.180  21.508  0.00  0.00    -0.387 OA
ATOM     16  H   UNL     1      10.087   1.770  20.623  0.00  0.00    +0.210 HD
ENDBRANCH   2  15
BRANCH   3  17
ATOM     17  O   UNL     1      10.951   0.787  24.774  0.00  0.00    -0.387 OA
ATOM     18  H   UNL     1      11.594   1.229  25.357  0.00  0.00    +0.210 HD
ENDBRANCH   3  17
BRANCH   6  19
ATOM     19  O   UNL     1       6.474   0.574  22.708  0.00  0.00    -0.365 OA
ATOM     20  H   UNL     1       6.568  -0.296  23.130  0.00  0.00    +0.213 HD
ENDBRANCH   6  19
BRANCH   4  21
ATOM     21  C   UNL     1       8.842   3.827  24.179  0.00  0.00    +0.190 C 
BRANCH  21  22
ATOM     22  O   UNL     1       9.896   4.378  23.402  0.00  0.00    -0.392 OA
ATOM     23  H   UNL     1      10.313   5.082  23.931  0.00  0.00    +0.210 HD
ENDBRANCH  21  22
ENDBRANCH   4  21
TORSDOF 7
ENDMDL
MODEL 5
REMARK VINA RESULT:      -5.4      1.797      3.214
REMARK  Name = 
REMARK  8 active torsions:
REMARK  status: ('A' for Active; 'I' for Inactive)
REMARK    1  A    between atoms: C_1  and  N_2
REMARK    2  A    between atoms: N_2  and  N_3
REMARK    3  A    between atoms: N_7  and  C_8
REMARK    4  A    between atoms: C_10  and  O_12
REMARK    5  A    between atoms: C_14  and  C_16
REMARK    6  A    between atoms: C_16  and  O_17
REMARK    7  A    between atoms: C_18  and  O_20
REMARK    8  A    between atoms: C_21  and  O_23
REMARK                            x       y       z     vdW  Elec       q    Type
REMARK                         _______ _______ _______ _____ _____    ______ ____
ROOT
ATOM      1  C   UNL     1       7.573  -0.095  23.036  0.00  0.00    +0.161 C 
ATOM      2  C   UNL     1       8.275   0.552  21.826  0.00  0.00    +0.171 C 
ATOM      3  C   UNL     1       9.806   0.454  21.983  0.00  0.00    +0.176 C 
ATOM      4  C   UNL     1      10.296   0.805  23.419  0.00  0.00    +0.178 C 
ATOM      5  O   UNL     1       9.421   0.374  24.481  0.00  0.00    -0.341 OA
ATOM      6  C   UNL     1       8.034   0.700  24.278  0.00  0.00    +0.270 C 
ENDROOT
BRANCH   1  10
ATOM      7  C   UNL     1       7.686  -5.137  23.188  0.00  0.00    +0.166 C 
ATOM      8  N   UNL     1       8.142  -3.798  23.517  0.00  0.00    -0.144 N 
ATOM      9  C   UNL     1       7.473  -2.688  22.968  0.00  0.00    +0.324 C 
ATOM     10  N   UNL     1       8.033  -1.480  23.301  0.00  0.00    -0.288 N 
ATOM     11  H   UNL     1       8.790  -1.498  23.976  0.00  0.00    +0.151 HD
ATOM     12  O   UNL     1       6.471  -2.754  22.262  0.00  0.00    -0.251 OA
BRANCH   8  13
ATOM     13  N   UNL     1       9.284  -3.605  24.315  0.00  0.00    +0.052 NA
ATOM     14  O   UNL     1      10.257  -3.119  23.731  0.00  0.00    -0.126 OA
ENDBRANCH   8  13
ENDBRANCH   1  10
BRANCH   2  15
ATOM     15  O   UNL     1       7.877   1.923  21.724  0.00  0.00    -0.387 OA
ATOM     16  H   UNL     1       7.343   2.033  20.915  0.00  0.00    +0.210 HD
ENDBRANCH   2  15
BRANCH   3  17
ATOM     17  O   UNL     1      10.245  -0.872  21.634  0.00  0.00    -0.387 OA
ATOM     18  H   UNL     1      10.470  -1.346  22.454  0.00  0.00    +0.210 HD
ENDBRANCH   3  17
BRANCH   6  19
ATOM     19  O   UNL     1       7.314   0.281  25.434  0.00  0.00    -0.365 OA
ATOM     20  H   UNL     1       7.729   0.708  26.201  0.00  0.00    +0.213 HD
ENDBRANCH   6  19
BRANCH   4  21
ATOM     21  C   UNL     1      10.633   2.287  23.613  0.00  0.00    +0.190 C 
BRANCH  21  22
ATOM     22  O   UNL     1      10.614   3.002  22.386  0.00  0.00    -0.392 OA
ATOM     23  H   UNL     1      11.538   3.195  22.144  0.00  0.00    +0.210 HD
ENDBRANCH  21  22
ENDBRANCH   4  21
TORSDOF 7
ENDMDL
MODEL 6
REMARK VINA RESULT:      -5.4      4.116      6.634
REMARK  Name = 
REMARK  8 active torsions:
REMARK  status: ('A' for Active; 'I' for Inactive)
REMARK    1  A    between atoms: C_1  and  N_2
REMARK    2  A    between atoms: N_2  and  N_3
REMARK    3  A    between atoms: N_7  and  C_8
REMARK    4  A    between atoms: C_10  and  O_12
REMARK    5  A    between atoms: C_14  and  C_16
REMARK    6  A    between atoms: C_16  and  O_17
REMARK    7  A    between atoms: C_18  and  O_20
REMARK    8  A    between atoms: C_21  and  O_23
REMARK                            x       y       z     vdW  Elec       q    Type
REMARK                         _______ _______ _______ _____ _____    ______ ____
ROOT
ATOM      1  C   UNL     1       7.609  -5.050  23.082  0.00  0.00    +0.161 C 
ATOM      2  C   UNL     1       6.692  -5.471  21.916  0.00  0.00    +0.171 C 
ATOM      3  C   UNL     1       5.430  -4.585  21.884  0.00  0.00    +0.176 C 
ATOM      4  C   UNL     1       4.808  -4.359  23.294  0.00  0.00    +0.178 C 
ATOM      5  O   UNL     1       5.763  -4.237  24.367  0.00  0.00    -0.341 OA
ATOM      6  C   UNL     1       6.784  -5.251  24.373  0.00  0.00    +0.270 C 
ENDROOT
BRANCH   1  10
ATOM      7  C   UNL     1       9.899  -0.665  24.073  0.00  0.00    +0.166 C 
ATOM      8  N   UNL     1       8.842  -1.511  23.545  0.00  0.00    -0.144 N 
ATOM      9  C   UNL     1       8.953  -2.908  23.667  0.00  0.00    +0.324 C 
ATOM     10  N   UNL     1       7.928  -3.602  23.076  0.00  0.00    -0.288 N 
ATOM     11  H   UNL     1       7.156  -3.053  22.710  0.00  0.00    +0.151 HD
ATOM     12  O   UNL     1       9.864  -3.490  24.249  0.00  0.00    -0.251 OA
BRANCH   8  13
ATOM     13  N   UNL     1       7.754  -0.950  22.853  0.00  0.00    +0.052 NA
ATOM     14  O   UNL     1       6.650  -1.127  23.377  0.00  0.00    -0.126 OA
ENDBRANCH   8  13
ENDBRANCH   1  10
BRANCH   2  15
ATOM     15  O   UNL     1       6.326  -6.846  22.074  0.00  0.00    -0.387 OA
ATOM     16  H   UNL     1       5.469  -6.888  22.540  0.00  0.00    +0.210 HD
ENDBRANCH   2  15
BRANCH   3  17
ATOM     17  O   UNL     1       5.745  -3.314  21.288  0.00  0.00    -0.387 OA
ATOM     18  H   UNL     1       6.714  -3.209  21.283  0.00  0.00    +0.210 HD
ENDBRANCH   3  17
BRANCH   6  19
ATOM     19  O   UNL     1       7.599  -5.041  25.523  0.00  0.00    -0.365 OA
ATOM     20  H   UNL     1       8.475  -5.411  25.325  0.00  0.00    +0.213 HD
ENDBRANCH   6  19
BRANCH   4  21
ATOM     21  C   UNL     1       3.749  -5.400  23.677  0.00  0.00    +0.190 C 
BRANCH  21  22
ATOM     22  O   UNL     1       3.426  -6.255  22.589  0.00  0.00    -0.392 OA
ATOM     23  H   UNL     1       3.766  -7.142  22.803  0.00  0.00    +0.210 HD
ENDBRANCH  21  22
ENDBRANCH   4  21
TORSDOF 7
ENDMDL
MODEL 7
REMARK VINA RESULT:      -5.3      2.728      6.139
REMARK  Name = 
REMARK  8 active torsions:
REMARK  status: ('A' for Active; 'I' for Inactive)
REMARK    1  A    between atoms: C_1  and  N_2
REMARK    2  A    between atoms: N_2  and  N_3
REMARK    3  A    between atoms: N_7  and  C_8
REMARK    4  A    between atoms: C_10  and  O_12
REMARK    5  A    between atoms: C_14  and  C_16
REMARK    6  A    between atoms: C_16  and  O_17
REMARK    7  A    between atoms: C_18  and  O_20
REMARK    8  A    between atoms: C_21  and  O_23
REMARK                            x       y       z     vdW  Elec       q    Type
REMARK                         _______ _______ _______ _____ _____    ______ ____
ROOT
ATOM      1  C   UNL     1       8.303  -4.115  23.782  0.00  0.00    +0.161 C 
ATOM      2  C   UNL     1       6.766  -4.210  23.871  0.00  0.00    +0.171 C 
ATOM      3  C   UNL     1       6.274  -3.651  25.221  0.00  0.00    +0.176 C 
ATOM      4  C   UNL     1       7.133  -4.129  26.429  0.00  0.00    +0.178 C 
ATOM      5  O   UNL     1       8.544  -4.257  26.158  0.00  0.00    -0.341 OA
ATOM      6  C   UNL     1       8.855  -4.969  24.946  0.00  0.00    +0.270 C 
ENDROOT
BRANCH   1  10
ATOM      7  C   UNL     1      10.268   0.476  23.065  0.00  0.00    +0.166 C 
ATOM      8  N   UNL     1       9.809  -0.653  23.857  0.00  0.00    -0.144 N 
ATOM      9  C   UNL     1       9.273  -1.778  23.204  0.00  0.00    +0.324 C 
ATOM     10  N   UNL     1       8.816  -2.751  24.057  0.00  0.00    -0.288 N 
ATOM     11  H   UNL     1       9.000  -2.615  25.046  0.00  0.00    +0.151 HD
ATOM     12  O   UNL     1       9.211  -1.918  21.986  0.00  0.00    -0.251 OA
BRANCH   8  13
ATOM     13  N   UNL     1       9.828  -0.598  25.261  0.00  0.00    +0.052 NA
ATOM     14  O   UNL     1       8.718  -0.547  25.801  0.00  0.00    -0.126 OA
ENDBRANCH   8  13
ENDBRANCH   1  10
BRANCH   2  15
ATOM     15  O   UNL     1       6.367  -5.577  23.729  0.00  0.00    -0.387 OA
ATOM     16  H   UNL     1       6.036  -5.895  24.590  0.00  0.00    +0.210 HD
ENDBRANCH   2  15
BRANCH   3  17
ATOM     17  O   UNL     1       6.267  -2.212  25.175  0.00  0.00    -0.387 OA
ATOM     18  H   UNL     1       5.856  -1.933  24.337  0.00  0.00    +0.210 HD
ENDBRANCH   3  17
BRANCH   6  19
ATOM     19  O   UNL     1      10.273  -5.077  24.856  0.00  0.00    -0.365 OA
ATOM     20  H   UNL     1      10.642  -4.676  25.659  0.00  0.00    +0.213 HD
ENDBRANCH   6  19
BRANCH   4  21
ATOM     21  C   UNL     1       6.625  -5.422  27.077  0.00  0.00    +0.190 C 
BRANCH  21  22
ATOM     22  O   UNL     1       7.615  -6.034  27.891  0.00  0.00    -0.392 OA
ATOM     23  H   UNL     1       7.610  -5.577  28.751  0.00  0.00    +0.210 HD
ENDBRANCH  21  22
ENDBRANCH   4  21
TORSDOF 7
ENDMDL
MODEL 8
REMARK VINA RESULT:      -5.3      1.833      2.627
REMARK  Name = 
REMARK  8 active torsions:
REMARK  status: ('A' for Active; 'I' for Inactive)
REMARK    1  A    between atoms: C_1  and  N_2
REMARK    2  A    between atoms: N_2  and  N_3
REMARK    3  A    between atoms: N_7  and  C_8
REMARK    4  A    between atoms: C_10  and  O_12
REMARK    5  A    between atoms: C_14  and  C_16
REMARK    6  A    between atoms: C_16  and  O_17
REMARK    7  A    between atoms: C_18  and  O_20
REMARK    8  A    between atoms: C_21  and  O_23
REMARK                            x       y       z     vdW  Elec       q    Type
REMARK                         _______ _______ _______ _____ _____    ______ ____
ROOT
ATOM      1  C   UNL     1       8.505  -1.927  22.574  0.00  0.00    +0.161 C 
ATOM      2  C   UNL     1       9.757  -1.157  22.107  0.00  0.00    +0.171 C 
ATOM      3  C   UNL     1      10.032   0.034  23.047  0.00  0.00    +0.176 C 
ATOM      4  C   UNL     1       8.745   0.831  23.413  0.00  0.00    +0.178 C 
ATOM      5  O   UNL     1       7.558   0.029  23.575  0.00  0.00    -0.341 OA
ATOM      6  C   UNL     1       7.334  -0.921  22.516  0.00  0.00    +0.270 C 
ENDROOT
BRANCH   1  10
ATOM      7  C   UNL     1       8.613  -4.796  26.723  0.00  0.00    +0.166 C 
ATOM      8  N   UNL     1       8.525  -3.548  25.985  0.00  0.00    -0.144 N 
ATOM      9  C   UNL     1       8.602  -3.571  24.580  0.00  0.00    +0.324 C 
ATOM     10  N   UNL     1       8.570  -2.328  24.000  0.00  0.00    -0.288 N 
ATOM     11  H   UNL     1       8.392  -1.541  24.616  0.00  0.00    +0.151 HD
ATOM     12  O   UNL     1       8.681  -4.590  23.901  0.00  0.00    -0.251 OA
BRANCH   8  13
ATOM     13  N   UNL     1       8.437  -2.319  26.664  0.00  0.00    +0.052 NA
ATOM     14  O   UNL     1       7.329  -1.775  26.626  0.00  0.00    -0.126 OA
ENDBRANCH   8  13
ENDBRANCH   1  10
BRANCH   2  15
ATOM     15  O   UNL     1       9.555  -0.693  20.768  0.00  0.00    -0.387 OA
ATOM     16  H   UNL     1       8.766  -0.119  20.754  0.00  0.00    +0.210 HD
ENDBRANCH   2  15
BRANCH   3  17
ATOM     17  O   UNL     1      10.667  -0.435  24.251  0.00  0.00    -0.387 OA
ATOM     18  H   UNL     1      10.400  -1.360  24.398  0.00  0.00    +0.210 HD
ENDBRANCH   3  17
BRANCH   6  19
ATOM     19  O   UNL     1       6.098  -1.579  22.777  0.00  0.00    -0.365 OA
ATOM     20  H   UNL     1       5.433  -0.890  22.937  0.00  0.00    +0.213 HD
ENDBRANCH   6  19
BRANCH   4  21
ATOM     21  C   UNL     1       8.443   1.992  22.458  0.00  0.00    +0.190 C 
BRANCH  21  22
ATOM     22  O   UNL     1       9.486   2.189  21.514  0.00  0.00    -0.392 OA
ATOM     23  H   UNL     1       9.518   3.140  21.306  0.00  0.00    +0.210 HD
ENDBRANCH  21  22
ENDBRANCH   4  21
TORSDOF 7
ENDMDL
MODEL 9
REMARK VINA RESULT:      -5.3      1.895      3.504
REMARK  Name = 
REMARK  8 active torsions:
REMARK  status: ('A' for Active; 'I' for Inactive)
REMARK    1  A    between atoms: C_1  and  N_2
REMARK    2  A    between atoms: N_2  and  N_3
REMARK    3  A    between atoms: N_7  and  C_8
REMARK    4  A    between atoms: C_10  and  O_12
REMARK    5  A    between atoms: C_14  and  C_16
REMARK    6  A    between atoms: C_16  and  O_17
REMARK    7  A    between atoms: C_18  and  O_20
REMARK    8  A    between atoms: C_21  and  O_23
REMARK                            x       y       z     vdW  Elec       q    Type
REMARK                         _______ _______ _______ _____ _____    ______ ____
ROOT
ATOM      1  C   UNL     1       7.479  -0.365  24.399  0.00  0.00    +0.161 C 
ATOM      2  C   UNL     1       7.295  -0.033  22.905  0.00  0.00    +0.171 C 
ATOM      3  C   UNL     1       8.605  -0.299  22.135  0.00  0.00    +0.176 C 
ATOM      4  C   UNL     1       9.867   0.229  22.879  0.00  0.00    +0.178 C 
ATOM      5  O   UNL     1       9.823   0.105  24.315  0.00  0.00    -0.341 OA
ATOM      6  C   UNL     1       8.598   0.568  24.913  0.00  0.00    +0.270 C 
ENDROOT
BRANCH   1  10
ATOM      7  C   UNL     1       8.669  -4.696  26.697  0.00  0.00    +0.166 C 
ATOM      8  N   UNL     1       8.698  -3.726  25.616  0.00  0.00    -0.144 N 
ATOM      9  C   UNL     1       7.953  -2.538  25.737  0.00  0.00    +0.324 C 
ATOM     10  N   UNL     1       8.009  -1.731  24.629  0.00  0.00    -0.288 N 
ATOM     11  H   UNL     1       8.649  -2.010  23.892  0.00  0.00    +0.151 HD
ATOM     12  O   UNL     1       7.309  -2.214  26.730  0.00  0.00    -0.251 OA
BRANCH   8  13
ATOM     13  N   UNL     1       9.400  -3.997  24.429  0.00  0.00    +0.052 NA
ATOM     14  O   UNL     1       8.697  -4.277  23.453  0.00  0.00    -0.126 OA
ENDBRANCH   8  13
ENDBRANCH   1  10
BRANCH   2  15
ATOM     15  O   UNL     1       6.913   1.339  22.768  0.00  0.00    -0.387 OA
ATOM     16  H   UNL     1       5.940   1.398  22.816  0.00  0.00    +0.210 HD
ENDBRANCH   2  15
BRANCH   3  17
ATOM     17  O   UNL     1       8.745  -1.711  21.890  0.00  0.00    -0.387 OA
ATOM     18  H   UNL     1       9.193  -1.831  21.034  0.00  0.00    +0.210 HD
ENDBRANCH   3  17
BRANCH   6  19
ATOM     19  O   UNL     1       8.734   0.451  26.327  0.00  0.00    -0.365 OA
ATOM     20  H   UNL     1       7.842   0.504  26.706  0.00  0.00    +0.213 HD
ENDBRANCH   6  19
BRANCH   4  21
ATOM     21  C   UNL     1      10.248   1.667  22.508  0.00  0.00    +0.190 C 
BRANCH  21  22
ATOM     22  O   UNL     1       9.532   2.130  21.371  0.00  0.00    -0.392 OA
ATOM     23  H   UNL     1       8.745   2.604  21.694  0.00  0.00    +0.210 HD
ENDBRANCH  21  22
ENDBRANCH   4  21
TORSDOF 7
ENDMDL
