MODEL 1
REMARK VINA RESULT:      -7.7      0.000      0.000
REMARK  Name = 
REMARK  5 active torsions:
REMARK  status: ('A' for Active; 'I' for Inactive)
REMARK    1  A    between atoms: C_1  and  C_2
REMARK    2  A    between atoms: C_3  and  C_24
REMARK    3  A    between atoms: N_4  and  C_16
REMARK    4  A    between atoms: C_6  and  C_7
REMARK    5  A    between atoms: N_9  and  N_10
REMARK                            x       y       z     vdW  Elec       q    Type
REMARK                         _______ _______ _______ _____ _____    ______ ____
ROOT
ATOM      1  C   UNL     1       7.279  -5.190  22.502  0.00  0.00    +0.048 C 
ATOM      2  C   UNL     1       6.908  -4.597  23.820  0.00  0.00    +0.008 A 
ATOM      3  C   UNL     1       7.733  -3.694  24.557  0.00  0.00    +0.152 A 
ATOM      4  N   UNL     1       7.192  -3.433  25.750  0.00  0.00    -0.161 NA
ATOM      5  N   UNL     1       5.953  -4.009  25.747  0.00  0.00    -0.230 N 
ATOM      6  C   UNL     1       5.755  -4.797  24.595  0.00  0.00    +0.078 A 
ENDROOT
BRANCH   5   7
ATOM      7  C   UNL     1       5.150  -3.773  26.911  0.00  0.00    +0.084 A 
ATOM      8  C   UNL     1       4.149  -2.777  26.803  0.00  0.00    +0.031 A 
ATOM      9  C   UNL     1       3.360  -2.416  27.898  0.00  0.00    +0.022 A 
ATOM     10  C   UNL     1       3.568  -3.035  29.121  0.00  0.00    +0.042 A 
ATOM     11 CL   UNL     1       2.630  -2.568  30.485  0.00  0.00    -0.083 Cl
ATOM     12  C   UNL     1       4.506  -4.058  29.237  0.00  0.00    +0.042 A 
ATOM     13  C   UNL     1       5.261  -4.466  28.123  0.00  0.00    +0.068 A 
ATOM     14 CL   UNL     1       6.098  -5.968  28.305  0.00  0.00    -0.081 Cl
ENDBRANCH   5   7
BRANCH   6  15
ATOM     15  C   UNL     1       4.625  -5.717  24.293  0.00  0.00    +0.001 A 
ATOM     16  C   UNL     1       4.437  -6.875  25.075  0.00  0.00    +0.011 A 
ATOM     17  C   UNL     1       3.351  -7.736  24.874  0.00  0.00    +0.020 A 
ATOM     18  C   UNL     1       2.465  -7.489  23.835  0.00  0.00    +0.041 A 
ATOM     19 CL   UNL     1       1.145  -8.559  23.563  0.00  0.00    -0.084 Cl
ATOM     20  C   UNL     1       2.642  -6.374  23.022  0.00  0.00    +0.020 A 
ATOM     21  C   UNL     1       3.693  -5.475  23.272  0.00  0.00    +0.011 A 
ENDBRANCH   6  15
BRANCH   3  22
ATOM     22  C   UNL     1       9.030  -3.110  24.140  0.00  0.00    +0.278 C 
ATOM     23  N   UNL     1       8.905  -1.824  23.610  0.00  0.00    -0.243 N 
ATOM     24  H   UNL     1       7.955  -1.453  23.598  0.00  0.00    +0.170 HD
ATOM     25  O   UNL     1      10.085  -3.723  24.237  0.00  0.00    -0.267 OA
BRANCH  23  26
ATOM     26  N   UNL     1       9.945  -1.037  23.085  0.00  0.00    -0.227 NA
ATOM     27  C   UNL     1      10.516   0.007  23.938  0.00  0.00    +0.105 C 
ATOM     28  C   UNL     1      10.074   1.448  23.650  0.00  0.00    +0.017 C 
ATOM     29  C   UNL     1       9.988   1.761  22.161  0.00  0.00    +0.003 C 
ATOM     30  C   UNL     1       9.183   0.686  21.443  0.00  0.00    +0.017 C 
ATOM     31  C   UNL     1       9.811  -0.686  21.675  0.00  0.00    +0.105 C 
ENDBRANCH  23  26
ENDBRANCH   3  22
TORSDOF 4
ENDMDL
MODEL 2
REMARK VINA RESULT:      -6.7      1.040      4.400
REMARK  Name = 
REMARK  5 active torsions:
REMARK  status: ('A' for Active; 'I' for Inactive)
REMARK    1  A    between atoms: C_1  and  C_2
REMARK    2  A    between atoms: C_3  and  C_24
REMARK    3  A    between atoms: N_4  and  C_16
REMARK    4  A    between atoms: C_6  and  C_7
REMARK    5  A    between atoms: N_9  and  N_10
REMARK                            x       y       z     vdW  Elec       q    Type
REMARK                         _______ _______ _______ _____ _____    ______ ____
ROOT
ATOM      1  C   UNL     1       7.207  -1.484  26.690  0.00  0.00    +0.048 C 
ATOM      2  C   UNL     1       6.680  -2.651  25.922  0.00  0.00    +0.008 A 
ATOM      3  C   UNL     1       7.326  -3.222  24.785  0.00  0.00    +0.152 A 
ATOM      4  N   UNL     1       6.559  -4.169  24.238  0.00  0.00    -0.161 NA
ATOM      5  N   UNL     1       5.502  -4.348  25.086  0.00  0.00    -0.230 N 
ATOM      6  C   UNL     1       5.499  -3.384  26.114  0.00  0.00    +0.078 A 
ENDROOT
BRANCH   5   7
ATOM      7  C   UNL     1       4.589  -5.395  24.734  0.00  0.00    +0.084 A 
ATOM      8  C   UNL     1       4.051  -5.359  23.425  0.00  0.00    +0.031 A 
ATOM      9  C   UNL     1       3.098  -6.290  23.003  0.00  0.00    +0.022 A 
ATOM     10  C   UNL     1       2.657  -7.262  23.888  0.00  0.00    +0.042 A 
ATOM     11 CL   UNL     1       1.453  -8.385  23.392  0.00  0.00    -0.083 Cl
ATOM     12  C   UNL     1       3.214  -7.354  25.161  0.00  0.00    +0.042 A 
ATOM     13  C   UNL     1       4.217  -6.457  25.570  0.00  0.00    +0.068 A 
ATOM     14 CL   UNL     1       5.075  -6.907  27.002  0.00  0.00    -0.081 Cl
ENDBRANCH   5   7
BRANCH   6  15
ATOM     15  C   UNL     1       4.441  -3.124  27.128  0.00  0.00    +0.001 A 
ATOM     16  C   UNL     1       3.267  -2.440  26.756  0.00  0.00    +0.011 A 
ATOM     17  C   UNL     1       2.215  -2.231  27.656  0.00  0.00    +0.020 A 
ATOM     18  C   UNL     1       2.349  -2.646  28.973  0.00  0.00    +0.041 A 
ATOM     19 CL   UNL     1       1.072  -2.366  30.093  0.00  0.00    -0.084 Cl
ATOM     20  C   UNL     1       3.510  -3.293  29.383  0.00  0.00    +0.020 A 
ATOM     21  C   UNL     1       4.534  -3.563  28.459  0.00  0.00    +0.011 A 
ENDBRANCH   6  15
BRANCH   3  22
ATOM     22  C   UNL     1       8.643  -2.854  24.213  0.00  0.00    +0.278 C 
ATOM     23  N   UNL     1       8.665  -1.563  23.681  0.00  0.00    -0.243 N 
ATOM     24  H   UNL     1       7.792  -1.044  23.772  0.00  0.00    +0.170 HD
ATOM     25  O   UNL     1       9.590  -3.629  24.198  0.00  0.00    -0.267 OA
BRANCH  23  26
ATOM     26  N   UNL     1       9.750  -0.953  23.027  0.00  0.00    -0.227 NA
ATOM     27  C   UNL     1      10.569  -0.008  23.789  0.00  0.00    +0.105 C 
ATOM     28  C   UNL     1      10.328   1.484  23.519  0.00  0.00    +0.017 C 
ATOM     29  C   UNL     1      10.125   1.799  22.041  0.00  0.00    +0.003 C 
ATOM     30  C   UNL     1       9.087   0.861  21.440  0.00  0.00    +0.017 C 
ATOM     31  C   UNL     1       9.515  -0.591  21.633  0.00  0.00    +0.105 C 
ENDBRANCH  23  26
ENDBRANCH   3  22
TORSDOF 4
ENDMDL
MODEL 3
REMARK VINA RESULT:      -6.6      4.993      8.758
REMARK  Name = 
REMARK  5 active torsions:
REMARK  status: ('A' for Active; 'I' for Inactive)
REMARK    1  A    between atoms: C_1  and  C_2
REMARK    2  A    between atoms: C_3  and  C_24
REMARK    3  A    between atoms: N_4  and  C_16
REMARK    4  A    between atoms: C_6  and  C_7
REMARK    5  A    between atoms: N_9  and  N_10
REMARK                            x       y       z     vdW  Elec       q    Type
REMARK                         _______ _______ _______ _____ _____    ______ ____
ROOT
ATOM      1  C   UNL     1       9.735  -0.486  25.251  0.00  0.00    +0.048 C 
ATOM      2  C   UNL     1       8.359   0.012  24.955  0.00  0.00    +0.008 A 
ATOM      3  C   UNL     1       7.192  -0.809  24.944  0.00  0.00    +0.152 A 
ATOM      4  N   UNL     1       6.133  -0.111  24.526  0.00  0.00    -0.161 NA
ATOM      5  N   UNL     1       6.543   1.189  24.422  0.00  0.00    -0.230 N 
ATOM      6  C   UNL     1       7.934   1.306  24.616  0.00  0.00    +0.078 A 
ENDROOT
BRANCH   5   7
ATOM      7  C   UNL     1       5.528   2.138  24.070  0.00  0.00    +0.084 A 
ATOM      8  C   UNL     1       4.544   2.411  25.051  0.00  0.00    +0.031 A 
ATOM      9  C   UNL     1       3.470   3.265  24.788  0.00  0.00    +0.022 A 
ATOM     10  C   UNL     1       3.355   3.848  23.535  0.00  0.00    +0.042 A 
ATOM     11 CL   UNL     1       2.014   4.867  23.187  0.00  0.00    -0.083 Cl
ATOM     12  C   UNL     1       4.341   3.641  22.574  0.00  0.00    +0.042 A 
ATOM     13  C   UNL     1       5.455   2.830  22.854  0.00  0.00    +0.068 A 
ATOM     14 CL   UNL     1       6.767   2.960  21.735  0.00  0.00    -0.081 Cl
ENDBRANCH   5   7
BRANCH   6  15
ATOM     15  C   UNL     1       8.792   2.505  24.419  0.00  0.00    +0.001 A 
ATOM     16  C   UNL     1       9.984   2.398  23.674  0.00  0.00    +0.011 A 
ATOM     17  C   UNL     1      10.791   3.510  23.404  0.00  0.00    +0.020 A 
ATOM     18  C   UNL     1      10.453   4.745  23.935  0.00  0.00    +0.041 A 
ATOM     19 CL   UNL     1      11.456   6.111  23.632  0.00  0.00    -0.084 Cl
ATOM     20  C   UNL     1       9.302   4.880  24.705  0.00  0.00    +0.020 A 
ATOM     21  C   UNL     1       8.458   3.775  24.914  0.00  0.00    +0.011 A 
ENDBRANCH   6  15
BRANCH   3  22
ATOM     22  C   UNL     1       7.092  -2.244  25.303  0.00  0.00    +0.278 C 
ATOM     23  N   UNL     1       7.055  -3.084  24.188  0.00  0.00    -0.243 N 
ATOM     24  H   UNL     1       7.120  -2.609  23.289  0.00  0.00    +0.170 HD
ATOM     25  O   UNL     1       7.025  -2.625  26.464  0.00  0.00    -0.267 OA
BRANCH  23  26
ATOM     26  N   UNL     1       6.912  -4.482  24.207  0.00  0.00    -0.227 NA
ATOM     27  C   UNL     1       7.844  -5.280  23.408  0.00  0.00    +0.105 C 
ATOM     28  C   UNL     1       7.311  -5.833  22.079  0.00  0.00    +0.017 C 
ATOM     29  C   UNL     1       5.884  -6.357  22.178  0.00  0.00    +0.003 C 
ATOM     30  C   UNL     1       4.989  -5.323  22.849  0.00  0.00    +0.017 C 
ATOM     31  C   UNL     1       5.536  -4.969  24.229  0.00  0.00    +0.105 C 
ENDBRANCH  23  26
ENDBRANCH   3  22
TORSDOF 4
ENDMDL
MODEL 4
REMARK VINA RESULT:      -6.5      3.117      5.554
REMARK  Name = 
REMARK  5 active torsions:
REMARK  status: ('A' for Active; 'I' for Inactive)
REMARK    1  A    between atoms: C_1  and  C_2
REMARK    2  A    between atoms: C_3  and  C_24
REMARK    3  A    between atoms: N_4  and  C_16
REMARK    4  A    between atoms: C_6  and  C_7
REMARK    5  A    between atoms: N_9  and  N_10
REMARK                            x       y       z     vdW  Elec       q    Type
REMARK                         _______ _______ _______ _____ _____    ______ ____
ROOT
ATOM      1  C   UNL     1       7.934  -0.315  27.589  0.00  0.00    +0.048 C 
ATOM      2  C   UNL     1       7.900  -0.951  26.239  0.00  0.00    +0.008 A 
ATOM      3  C   UNL     1       8.410  -0.345  25.051  0.00  0.00    +0.152 A 
ATOM      4  N   UNL     1       8.126  -1.096  23.984  0.00  0.00    -0.161 NA
ATOM      5  N   UNL     1       7.591  -2.260  24.461  0.00  0.00    -0.230 N 
ATOM      6  C   UNL     1       7.370  -2.192  25.851  0.00  0.00    +0.078 A 
ENDROOT
BRANCH   5   7
ATOM      7  C   UNL     1       7.295  -3.261  23.479  0.00  0.00    +0.084 A 
ATOM      8  C   UNL     1       6.479  -2.865  22.391  0.00  0.00    +0.031 A 
ATOM      9  C   UNL     1       6.070  -3.778  21.416  0.00  0.00    +0.022 A 
ATOM     10  C   UNL     1       6.458  -5.106  21.522  0.00  0.00    +0.042 A 
ATOM     11 CL   UNL     1       5.925  -6.246  20.350  0.00  0.00    -0.083 Cl
ATOM     12  C   UNL     1       7.308  -5.507  22.549  0.00  0.00    +0.042 A 
ATOM     13  C   UNL     1       7.771  -4.578  23.499  0.00  0.00    +0.068 A 
ATOM     14 CL   UNL     1       9.094  -5.114  24.475  0.00  0.00    -0.081 Cl
ENDBRANCH   5   7
BRANCH   6  15
ATOM     15  C   UNL     1       6.655  -3.167  26.718  0.00  0.00    +0.001 A 
ATOM     16  C   UNL     1       5.346  -2.883  27.158  0.00  0.00    +0.011 A 
ATOM     17  C   UNL     1       4.606  -3.797  27.918  0.00  0.00    +0.020 A 
ATOM     18  C   UNL     1       5.191  -4.991  28.312  0.00  0.00    +0.041 A 
ATOM     19 CL   UNL     1       4.298  -6.106  29.272  0.00  0.00    -0.084 Cl
ATOM     20  C   UNL     1       6.494  -5.288  27.925  0.00  0.00    +0.020 A 
ATOM     21  C   UNL     1       7.207  -4.399  27.103  0.00  0.00    +0.011 A 
ENDBRANCH   6  15
BRANCH   3  22
ATOM     22  C   UNL     1       9.133   0.943  24.932  0.00  0.00    +0.278 C 
ATOM     23  N   UNL     1       8.279   2.048  24.902  0.00  0.00    -0.243 N 
ATOM     24  H   UNL     1       7.287   1.828  24.985  0.00  0.00    +0.170 HD
ATOM     25  O   UNL     1      10.352   1.004  24.845  0.00  0.00    -0.267 OA
BRANCH  23  26
ATOM     26  N   UNL     1       8.664   3.391  24.745  0.00  0.00    -0.227 NA
ATOM     27  C   UNL     1       8.085   4.383  25.653  0.00  0.00    +0.105 C 
ATOM     28  C   UNL     1       6.956   5.256  25.088  0.00  0.00    +0.017 C 
ATOM     29  C   UNL     1       7.212   5.713  23.657  0.00  0.00    +0.003 C 
ATOM     30  C   UNL     1       7.605   4.527  22.787  0.00  0.00    +0.017 C 
ATOM     31  C   UNL     1       8.836   3.834  23.365  0.00  0.00    +0.105 C 
ENDBRANCH  23  26
ENDBRANCH   3  22
TORSDOF 4
ENDMDL
MODEL 5
REMARK VINA RESULT:      -6.5      2.213      4.655
REMARK  Name = 
REMARK  5 active torsions:
REMARK  status: ('A' for Active; 'I' for Inactive)
REMARK    1  A    between atoms: C_1  and  C_2
REMARK    2  A    between atoms: C_3  and  C_24
REMARK    3  A    between atoms: N_4  and  C_16
REMARK    4  A    between atoms: C_6  and  C_7
REMARK    5  A    between atoms: N_9  and  N_10
REMARK                            x       y       z     vdW  Elec       q    Type
REMARK                         _______ _______ _______ _____ _____    ______ ____
ROOT
ATOM      1  C   UNL     1       8.740  -2.032  26.133  0.00  0.00    +0.048 C 
ATOM      2  C   UNL     1       7.751  -2.587  25.161  0.00  0.00    +0.008 A 
ATOM      3  C   UNL     1       7.631  -2.161  23.804  0.00  0.00    +0.152 A 
ATOM      4  N   UNL     1       6.583  -2.747  23.221  0.00  0.00    -0.161 NA
ATOM      5  N   UNL     1       6.112  -3.672  24.111  0.00  0.00    -0.230 N 
ATOM      6  C   UNL     1       6.765  -3.567  25.355  0.00  0.00    +0.078 A 
ENDROOT
BRANCH   5   7
ATOM      7  C   UNL     1       5.030  -4.490  23.648  0.00  0.00    +0.084 A 
ATOM      8  C   UNL     1       3.729  -4.124  24.069  0.00  0.00    +0.031 A 
ATOM      9  C   UNL     1       2.611  -4.893  23.736  0.00  0.00    +0.022 A 
ATOM     10  C   UNL     1       2.779  -6.050  22.989  0.00  0.00    +0.042 A 
ATOM     11 CL   UNL     1       1.415  -7.026  22.610  0.00  0.00    -0.083 Cl
ATOM     12  C   UNL     1       4.041  -6.399  22.514  0.00  0.00    +0.042 A 
ATOM     13  C   UNL     1       5.160  -5.595  22.796  0.00  0.00    +0.068 A 
ATOM     14 CL   UNL     1       6.568  -5.927  21.849  0.00  0.00    -0.081 Cl
ENDBRANCH   5   7
BRANCH   6  15
ATOM     15  C   UNL     1       6.436  -4.263  26.628  0.00  0.00    +0.001 A 
ATOM     16  C   UNL     1       5.343  -3.825  27.403  0.00  0.00    +0.011 A 
ATOM     17  C   UNL     1       4.952  -4.487  28.573  0.00  0.00    +0.020 A 
ATOM     18  C   UNL     1       5.694  -5.567  29.028  0.00  0.00    +0.041 A 
ATOM     19 CL   UNL     1       5.237  -6.368  30.482  0.00  0.00    -0.084 Cl
ATOM     20  C   UNL     1       6.800  -6.004  28.307  0.00  0.00    +0.020 A 
ATOM     21  C   UNL     1       7.147  -5.379  27.096  0.00  0.00    +0.011 A 
ENDBRANCH   6  15
BRANCH   3  22
ATOM     22  C   UNL     1       8.488  -1.191  23.082  0.00  0.00    +0.278 C 
ATOM     23  N   UNL     1       8.031   0.125  23.187  0.00  0.00    -0.243 N 
ATOM     24  H   UNL     1       7.193   0.245  23.754  0.00  0.00    +0.170 HD
ATOM     25  O   UNL     1       9.475  -1.536  22.446  0.00  0.00    -0.267 OA
BRANCH  23  26
ATOM     26  N   UNL     1       8.600   1.253  22.571  0.00  0.00    -0.227 NA
ATOM     27  C   UNL     1       9.679   1.950  23.275  0.00  0.00    +0.105 C 
ATOM     28  C   UNL     1       9.304   3.258  23.985  0.00  0.00    +0.017 C 
ATOM     29  C   UNL     1       8.351   4.127  23.173  0.00  0.00    +0.003 C 
ATOM     30  C   UNL     1       7.170   3.300  22.685  0.00  0.00    +0.017 C 
ATOM     31  C   UNL     1       7.663   2.115  21.858  0.00  0.00    +0.105 C 
ENDBRANCH  23  26
ENDBRANCH   3  22
TORSDOF 4
ENDMDL
MODEL 6
REMARK VINA RESULT:      -6.5      4.175      5.856
REMARK  Name = 
REMARK  5 active torsions:
REMARK  status: ('A' for Active; 'I' for Inactive)
REMARK    1  A    between atoms: C_1  and  C_2
REMARK    2  A    between atoms: C_3  and  C_24
REMARK    3  A    between atoms: N_4  and  C_16
REMARK    4  A    between atoms: C_6  and  C_7
REMARK    5  A    between atoms: N_9  and  N_10
REMARK                            x       y       z     vdW  Elec       q    Type
REMARK                         _______ _______ _______ _____ _____    ______ ____
ROOT
ATOM      1  C   UNL     1       8.796   1.053  21.508  0.00  0.00    +0.048 C 
ATOM      2  C   UNL     1       8.090   1.208  22.814  0.00  0.00    +0.008 A 
ATOM      3  C   UNL     1       7.934   2.449  23.502  0.00  0.00    +0.152 A 
ATOM      4  N   UNL     1       7.372   2.254  24.697  0.00  0.00    -0.161 NA
ATOM      5  N   UNL     1       7.003   0.939  24.742  0.00  0.00    -0.230 N 
ATOM      6  C   UNL     1       7.485   0.232  23.621  0.00  0.00    +0.078 A 
ENDROOT
BRANCH   5   7
ATOM      7  C   UNL     1       6.290   0.528  25.915  0.00  0.00    +0.084 A 
ATOM      8  C   UNL     1       4.882   0.680  25.891  0.00  0.00    +0.031 A 
ATOM      9  C   UNL     1       4.097   0.379  27.007  0.00  0.00    +0.022 A 
ATOM     10  C   UNL     1       4.709  -0.064  28.170  0.00  0.00    +0.042 A 
ATOM     11 CL   UNL     1       3.756  -0.397  29.562  0.00  0.00    -0.083 Cl
ATOM     12  C   UNL     1       6.085  -0.278  28.199  0.00  0.00    +0.042 A 
ATOM     13  C   UNL     1       6.872  -0.033  27.059  0.00  0.00    +0.068 A 
ATOM     14 CL   UNL     1       8.472  -0.686  27.110  0.00  0.00    -0.081 Cl
ENDBRANCH   5   7
BRANCH   6  15
ATOM     15  C   UNL     1       7.451  -1.235  23.375  0.00  0.00    +0.001 A 
ATOM     16  C   UNL     1       6.405  -1.792  22.612  0.00  0.00    +0.011 A 
ATOM     17  C   UNL     1       6.365  -3.156  22.296  0.00  0.00    +0.020 A 
ATOM     18  C   UNL     1       7.341  -4.003  22.797  0.00  0.00    +0.041 A 
ATOM     19 CL   UNL     1       7.282  -5.686  22.438  0.00  0.00    -0.084 Cl
ATOM     20  C   UNL     1       8.368  -3.492  23.584  0.00  0.00    +0.020 A 
ATOM     21  C   UNL     1       8.443  -2.112  23.840  0.00  0.00    +0.011 A 
ENDBRANCH   6  15
BRANCH   3  22
ATOM     22  C   UNL     1       8.339   3.797  23.037  0.00  0.00    +0.278 C 
ATOM     23  N   UNL     1       9.485   4.274  23.676  0.00  0.00    -0.243 N 
ATOM     24  H   UNL     1       9.899   3.634  24.353  0.00  0.00    +0.170 HD
ATOM     25  O   UNL     1       7.701   4.418  22.197  0.00  0.00    -0.267 OA
BRANCH  23  26
ATOM     26  N   UNL     1      10.079   5.534  23.486  0.00  0.00    -0.227 NA
ATOM     27  C   UNL     1      11.512   5.582  23.188  0.00  0.00    +0.105 C 
ATOM     28  C   UNL     1      12.441   5.973  24.345  0.00  0.00    +0.017 C 
ATOM     29  C   UNL     1      11.888   7.108  25.199  0.00  0.00    +0.003 C 
ATOM     30  C   UNL     1      10.450   6.810  25.603  0.00  0.00    +0.017 C 
ATOM     31  C   UNL     1       9.589   6.594  24.362  0.00  0.00    +0.105 C 
ENDBRANCH  23  26
ENDBRANCH   3  22
TORSDOF 4
ENDMDL
MODEL 7
REMARK VINA RESULT:      -6.3      4.540      8.811
REMARK  Name = 
REMARK  5 active torsions:
REMARK  status: ('A' for Active; 'I' for Inactive)
REMARK    1  A    between atoms: C_1  and  C_2
REMARK    2  A    between atoms: C_3  and  C_24
REMARK    3  A    between atoms: N_4  and  C_16
REMARK    4  A    between atoms: C_6  and  C_7
REMARK    5  A    between atoms: N_9  and  N_10
REMARK                            x       y       z     vdW  Elec       q    Type
REMARK                         _______ _______ _______ _____ _____    ______ ____
ROOT
ATOM      1  C   UNL     1      10.471  -0.559  23.521  0.00  0.00    +0.048 C 
ATOM      2  C   UNL     1       9.052  -0.097  23.496  0.00  0.00    +0.008 A 
ATOM      3  C   UNL     1       7.927  -0.961  23.334  0.00  0.00    +0.152 A 
ATOM      4  N   UNL     1       6.802  -0.251  23.227  0.00  0.00    -0.161 NA
ATOM      5  N   UNL     1       7.140   1.049  23.483  0.00  0.00    -0.230 N 
ATOM      6  C   UNL     1       8.537   1.205  23.593  0.00  0.00    +0.078 A 
ENDROOT
BRANCH   5   7
ATOM      7  C   UNL     1       6.054   1.984  23.512  0.00  0.00    +0.084 A 
ATOM      8  C   UNL     1       5.824   2.730  22.331  0.00  0.00    +0.031 A 
ATOM      9  C   UNL     1       4.838   3.718  22.274  0.00  0.00    +0.022 A 
ATOM     10  C   UNL     1       4.077   3.986  23.401  0.00  0.00    +0.042 A 
ATOM     11 CL   UNL     1       2.890   5.230  23.354  0.00  0.00    -0.083 Cl
ATOM     12  C   UNL     1       4.244   3.225  24.556  0.00  0.00    +0.042 A 
ATOM     13  C   UNL     1       5.194   2.189  24.599  0.00  0.00    +0.068 A 
ATOM     14 CL   UNL     1       5.040   1.098  25.931  0.00  0.00    -0.081 Cl
ENDBRANCH   5   7
BRANCH   6  15
ATOM     15  C   UNL     1       9.316   2.468  23.696  0.00  0.00    +0.001 A 
ATOM     16  C   UNL     1       8.737   3.600  24.303  0.00  0.00    +0.011 A 
ATOM     17  C   UNL     1       9.451   4.790  24.485  0.00  0.00    +0.020 A 
ATOM     18  C   UNL     1      10.746   4.892  23.997  0.00  0.00    +0.041 A 
ATOM     19 CL   UNL     1      11.620   6.362  24.189  0.00  0.00    -0.084 Cl
ATOM     20  C   UNL     1      11.336   3.805  23.360  0.00  0.00    +0.020 A 
ATOM     21  C   UNL     1      10.639   2.590  23.244  0.00  0.00    +0.011 A 
ENDBRANCH   6  15
BRANCH   3  22
ATOM     22  C   UNL     1       7.929  -2.442  23.255  0.00  0.00    +0.278 C 
ATOM     23  N   UNL     1       7.593  -3.054  24.465  0.00  0.00    -0.243 N 
ATOM     24  H   UNL     1       7.374  -2.412  25.226  0.00  0.00    +0.170 HD
ATOM     25  O   UNL     1       8.223  -3.042  22.230  0.00  0.00    -0.267 OA
BRANCH  23  26
ATOM     26  N   UNL     1       7.560  -4.436  24.715  0.00  0.00    -0.227 NA
ATOM     27  C   UNL     1       6.365  -5.181  24.311  0.00  0.00    +0.105 C 
ATOM     28  C   UNL     1       5.377  -5.552  25.426  0.00  0.00    +0.017 C 
ATOM     29  C   UNL     1       6.065  -6.016  26.704  0.00  0.00    +0.003 C 
ATOM     30  C   UNL     1       7.148  -5.025  27.109  0.00  0.00    +0.017 C 
ATOM     31  C   UNL     1       8.159  -4.858  25.977  0.00  0.00    +0.105 C 
ENDBRANCH  23  26
ENDBRANCH   3  22
TORSDOF 4
ENDMDL
MODEL 8
REMARK VINA RESULT:      -6.3      4.815      8.876
REMARK  Name = 
REMARK  5 active torsions:
REMARK  status: ('A' for Active; 'I' for Inactive)
REMARK    1  A    between atoms: C_1  and  C_2
REMARK    2  A    between atoms: C_3  and  C_24
REMARK    3  A    between atoms: N_4  and  C_16
REMARK    4  A    between atoms: C_6  and  C_7
REMARK    5  A    between atoms: N_9  and  N_10
REMARK                            x       y       z     vdW  Elec       q    Type
REMARK                         _______ _______ _______ _____ _____    ______ ____
ROOT
ATOM      1  C   UNL     1      10.405  -0.590  23.713  0.00  0.00    +0.048 C 
ATOM      2  C   UNL     1       8.985  -0.130  23.699  0.00  0.00    +0.008 A 
ATOM      3  C   UNL     1       7.860  -0.999  23.571  0.00  0.00    +0.152 A 
ATOM      4  N   UNL     1       6.732  -0.292  23.465  0.00  0.00    -0.161 NA
ATOM      5  N   UNL     1       7.072   1.013  23.689  0.00  0.00    -0.230 N 
ATOM      6  C   UNL     1       8.469   1.173  23.776  0.00  0.00    +0.078 A 
ENDROOT
BRANCH   5   7
ATOM      7  C   UNL     1       5.985   1.947  23.713  0.00  0.00    +0.084 A 
ATOM      8  C   UNL     1       5.152   1.925  24.858  0.00  0.00    +0.031 A 
ATOM      9  C   UNL     1       4.022   2.742  24.954  0.00  0.00    +0.022 A 
ATOM     10  C   UNL     1       3.700   3.583  23.899  0.00  0.00    +0.042 A 
ATOM     11 CL   UNL     1       2.288   4.562  23.989  0.00  0.00    -0.083 Cl
ATOM     12  C   UNL     1       4.536   3.666  22.789  0.00  0.00    +0.042 A 
ATOM     13  C   UNL     1       5.706   2.889  22.714  0.00  0.00    +0.068 A 
ATOM     14 CL   UNL     1       6.828   3.356  21.485  0.00  0.00    -0.081 Cl
ENDBRANCH   5   7
BRANCH   6  15
ATOM     15  C   UNL     1       9.248   2.439  23.841  0.00  0.00    +0.001 A 
ATOM     16  C   UNL     1       8.721   3.551  24.528  0.00  0.00    +0.011 A 
ATOM     17  C   UNL     1       9.442   4.741  24.676  0.00  0.00    +0.020 A 
ATOM     18  C   UNL     1      10.687   4.865  24.076  0.00  0.00    +0.041 A 
ATOM     19 CL   UNL     1      11.568   6.336  24.227  0.00  0.00    -0.084 Cl
ATOM     20  C   UNL     1      11.222   3.800  23.360  0.00  0.00    +0.020 A 
ATOM     21  C   UNL     1      10.524   2.583  23.274  0.00  0.00    +0.011 A 
ENDBRANCH   6  15
BRANCH   3  22
ATOM     22  C   UNL     1       7.863  -2.481  23.523  0.00  0.00    +0.278 C 
ATOM     23  N   UNL     1       7.554  -3.068  24.752  0.00  0.00    -0.243 N 
ATOM     24  H   UNL     1       7.351  -2.410  25.504  0.00  0.00    +0.170 HD
ATOM     25  O   UNL     1       8.136  -3.102  22.504  0.00  0.00    -0.267 OA
BRANCH  23  26
ATOM     26  N   UNL     1       7.529  -4.445  25.031  0.00  0.00    -0.227 NA
ATOM     27  C   UNL     1       6.455  -5.247  24.442  0.00  0.00    +0.105 C 
ATOM     28  C   UNL     1       5.298  -5.636  25.372  0.00  0.00    +0.017 C 
ATOM     29  C   UNL     1       5.762  -6.043  26.766  0.00  0.00    +0.003 C 
ATOM     30  C   UNL     1       6.716  -4.999  27.329  0.00  0.00    +0.017 C 
ATOM     31  C   UNL     1       7.907  -4.813  26.392  0.00  0.00    +0.105 C 
ENDBRANCH  23  26
ENDBRANCH   3  22
TORSDOF 4
ENDMDL
MODEL 9
REMARK VINA RESULT:      -6.2      4.085      8.077
REMARK  Name = 
REMARK  5 active torsions:
REMARK  status: ('A' for Active; 'I' for Inactive)
REMARK    1  A    between atoms: C_1  and  C_2
REMARK    2  A    between atoms: C_3  and  C_24
REMARK    3  A    between atoms: N_4  and  C_16
REMARK    4  A    between atoms: C_6  and  C_7
REMARK    5  A    between atoms: N_9  and  N_10
REMARK                            x       y       z     vdW  Elec       q    Type
REMARK                         _______ _______ _______ _____ _____    ______ ____
ROOT
ATOM      1  C   UNL     1       7.962  -2.085  22.186  0.00  0.00    +0.048 C 
ATOM      2  C   UNL     1       7.146  -1.511  23.296  0.00  0.00    +0.008 A 
ATOM      3  C   UNL     1       5.928  -2.079  23.777  0.00  0.00    +0.152 A 
ATOM      4  N   UNL     1       5.364  -1.280  24.685  0.00  0.00    -0.161 NA
ATOM      5  N   UNL     1       6.266  -0.283  24.935  0.00  0.00    -0.230 N 
ATOM      6  C   UNL     1       7.361  -0.347  24.051  0.00  0.00    +0.078 A 
ENDROOT
BRANCH   5   7
ATOM      7  C   UNL     1       5.899   0.649  25.961  0.00  0.00    +0.084 A 
ATOM      8  C   UNL     1       6.485   0.457  27.236  0.00  0.00    +0.031 A 
ATOM      9  C   UNL     1       6.143   1.263  28.324  0.00  0.00    +0.022 A 
ATOM     10  C   UNL     1       5.198   2.264  28.159  0.00  0.00    +0.042 A 
ATOM     11 CL   UNL     1       4.738   3.234  29.503  0.00  0.00    -0.083 Cl
ATOM     12  C   UNL     1       4.652   2.511  26.902  0.00  0.00    +0.042 A 
ATOM     13  C   UNL     1       5.038   1.741  25.790  0.00  0.00    +0.068 A 
ATOM     14 CL   UNL     1       4.583   2.383  24.251  0.00  0.00    -0.081 Cl
ENDBRANCH   5   7
BRANCH   6  15
ATOM     15  C   UNL     1       8.462   0.639  23.877  0.00  0.00    +0.001 A 
ATOM     16  C   UNL     1       8.201   1.875  23.251  0.00  0.00    +0.011 A 
ATOM     17  C   UNL     1       9.186   2.863  23.124  0.00  0.00    +0.020 A 
ATOM     18  C   UNL     1      10.475   2.603  23.562  0.00  0.00    +0.041 A 
ATOM     19 CL   UNL     1      11.699   3.800  23.382  0.00  0.00    -0.084 Cl
ATOM     20  C   UNL     1      10.776   1.379  24.152  0.00  0.00    +0.020 A 
ATOM     21  C   UNL     1       9.768   0.419  24.341  0.00  0.00    +0.011 A 
ENDBRANCH   6  15
BRANCH   3  22
ATOM     22  C   UNL     1       5.297  -3.353  23.356  0.00  0.00    +0.278 C 
ATOM     23  N   UNL     1       4.991  -4.192  24.430  0.00  0.00    -0.243 N 
ATOM     24  H   UNL     1       5.219  -3.815  25.349  0.00  0.00    +0.170 HD
ATOM     25  O   UNL     1       5.099  -3.628  22.180  0.00  0.00    -0.267 OA
BRANCH  23  26
ATOM     26  N   UNL     1       4.437  -5.481  24.345  0.00  0.00    -0.227 NA
ATOM     27  C   UNL     1       2.991  -5.597  24.144  0.00  0.00    +0.105 C 
ATOM     28  C   UNL     1       2.152  -5.958  25.378  0.00  0.00    +0.017 C 
ATOM     29  C   UNL     1       2.803  -7.023  26.252  0.00  0.00    +0.003 C 
ATOM     30  C   UNL     1       4.250  -6.652  26.546  0.00  0.00    +0.017 C 
ATOM     31  C   UNL     1       5.023  -6.473  25.241  0.00  0.00    +0.105 C 
ENDBRANCH  23  26
ENDBRANCH   3  22
TORSDOF 4
ENDMDL
