MODEL 1
REMARK VINA RESULT:      -6.9      0.000      0.000
REMARK  Name = 
REMARK  9 active torsions:
REMARK  status: ('A' for Active; 'I' for Inactive)
REMARK    1  A    between atoms: C_1  and  C_2
REMARK    2  A    between atoms: C_2  and  N_3
REMARK    3  A    between atoms: C_7  and  C_8
REMARK    4  A    between atoms: C_8  and  N_9
REMARK    5  A    between atoms: C_10  and  C_12
REMARK    6  A    between atoms: C_13  and  O_14
REMARK    7  A    between atoms: O_14  and  C_15
REMARK    8  A    between atoms: C_18  and  S_20
REMARK    9  A    between atoms: S_20  and  N_21
REMARK                            x       y       z     vdW  Elec       q    Type
REMARK                         _______ _______ _______ _____ _____    ______ ____
ROOT
ATOM      1  C   UNL     1       7.494  -4.605  24.472  0.00  0.00    +0.080 A 
ATOM      2  C   UNL     1       7.257  -4.878  25.831  0.00  0.00    +0.045 A 
ATOM      3  C   UNL     1       6.150  -5.650  26.206  0.00  0.00    +0.106 A 
ATOM      4  C   UNL     1       5.258  -6.130  25.248  0.00  0.00    +0.032 A 
ATOM      5  C   UNL     1       5.483  -5.853  23.899  0.00  0.00    +0.048 A 
ATOM      6  C   UNL     1       6.589  -5.087  23.502  0.00  0.00    +0.132 A 
ENDROOT
BRANCH   1   9
ATOM      7  N   UNL     1       8.369  -2.652  23.280  0.00  0.00    -0.310 N 
ATOM      8  H   UNL     1       7.426  -2.443  22.991  0.00  0.00    +0.149 HD
ATOM      9  C   UNL     1       8.655  -3.743  24.079  0.00  0.00    +0.248 C 
ATOM     10  O   UNL     1       9.795  -4.022  24.435  0.00  0.00    -0.270 OA
BRANCH   7  11
ATOM     11  C   UNL     1       9.400  -1.752  22.788  0.00  0.00    +0.123 C 
BRANCH  11  13
ATOM     12  N   UNL     1      10.143   0.663  22.610  0.00  0.00    -0.298 NA
ATOM     13  C   UNL     1       9.266  -0.307  23.323  0.00  0.00    +0.074 C 
ATOM     14  C   UNL     1       9.718  -0.257  24.794  0.00  0.00    +0.022 C 
ATOM     15  C   UNL     1      10.924   0.661  24.812  0.00  0.00    +0.017 C 
ATOM     16  C   UNL     1      10.671   1.576  23.636  0.00  0.00    +0.085 C 
BRANCH  12  18
ATOM     17  C   UNL     1       7.972   1.652  21.910  0.00  0.00    +0.020 C 
ATOM     18  C   UNL     1       9.433   1.397  21.553  0.00  0.00    +0.081 C 
ENDBRANCH  12  18
ENDBRANCH  11  13
ENDBRANCH   7  11
ENDBRANCH   1   9
BRANCH   3  19
ATOM     19  S   UNL     1       5.829  -5.969  27.917  0.00  0.00    +0.056 S 
ATOM     20  O   UNL     1       4.953  -4.944  28.432  0.00  0.00    -0.153 OA
ATOM     21  O   UNL     1       7.062  -6.344  28.564  0.00  0.00    -0.153 OA
BRANCH  19  22
ATOM     22  N   UNL     1       4.909  -7.372  27.837  0.00  0.00    -0.204 NA
ATOM     23  H   UNL     1       4.952  -7.760  26.894  0.00  0.00    +0.144 HD
ATOM     24  H   UNL     1       3.958  -7.178  28.152  0.00  0.00    +0.144 HD
ENDBRANCH  19  22
ENDBRANCH   3  19
BRANCH   6  25
ATOM     25  O   UNL     1       6.865  -4.868  22.177  0.00  0.00    -0.494 OA
ATOM     26  C   UNL     1       6.471  -5.909  21.286  0.00  0.00    +0.277 C 
ENDBRANCH   6  25
TORSDOF 7
ENDMDL
MODEL 2
REMARK VINA RESULT:      -6.8      0.899      1.916
REMARK  Name = 
REMARK  9 active torsions:
REMARK  status: ('A' for Active; 'I' for Inactive)
REMARK    1  A    between atoms: C_1  and  C_2
REMARK    2  A    between atoms: C_2  and  N_3
REMARK    3  A    between atoms: C_7  and  C_8
REMARK    4  A    between atoms: C_8  and  N_9
REMARK    5  A    between atoms: C_10  and  C_12
REMARK    6  A    between atoms: C_13  and  O_14
REMARK    7  A    between atoms: O_14  and  C_15
REMARK    8  A    between atoms: C_18  and  S_20
REMARK    9  A    between atoms: S_20  and  N_21
REMARK                            x       y       z     vdW  Elec       q    Type
REMARK                         _______ _______ _______ _____ _____    ______ ____
ROOT
ATOM      1  C   UNL     1       7.739  -4.605  24.437  0.00  0.00    +0.080 A 
ATOM      2  C   UNL     1       7.427  -4.871  25.783  0.00  0.00    +0.045 A 
ATOM      3  C   UNL     1       6.246  -5.549  26.105  0.00  0.00    +0.106 A 
ATOM      4  C   UNL     1       5.355  -5.943  25.107  0.00  0.00    +0.032 A 
ATOM      5  C   UNL     1       5.655  -5.674  23.772  0.00  0.00    +0.048 A 
ATOM      6  C   UNL     1       6.836  -5.000  23.427  0.00  0.00    +0.132 A 
ENDROOT
BRANCH   1   9
ATOM      7  N   UNL     1       8.832  -2.766  23.246  0.00  0.00    -0.310 N 
ATOM      8  H   UNL     1       7.929  -2.504  22.882  0.00  0.00    +0.149 HD
ATOM      9  C   UNL     1       8.983  -3.841  24.101  0.00  0.00    +0.248 C 
ATOM     10  O   UNL     1      10.073  -4.182  24.548  0.00  0.00    -0.270 OA
BRANCH   7  11
ATOM     11  C   UNL     1       9.956  -1.958  22.800  0.00  0.00    +0.123 C 
BRANCH  11  13
ATOM     12  N   UNL     1       8.778  -0.207  24.201  0.00  0.00    -0.298 NA
ATOM     13  C   UNL     1       9.839  -0.465  23.188  0.00  0.00    +0.074 C 
ATOM     14  C   UNL     1       9.430   0.359  21.953  0.00  0.00    +0.022 C 
ATOM     15  C   UNL     1       8.078   0.951  22.296  0.00  0.00    +0.017 C 
ATOM     16  C   UNL     1       8.123   1.049  23.804  0.00  0.00    +0.085 C 
BRANCH  12  18
ATOM     17  C   UNL     1       8.586  -1.070  26.525  0.00  0.00    +0.020 C 
ATOM     18  C   UNL     1       9.309  -0.126  25.569  0.00  0.00    +0.081 C 
ENDBRANCH  12  18
ENDBRANCH  11  13
ENDBRANCH   7  11
ENDBRANCH   1   9
BRANCH   3  19
ATOM     19  S   UNL     1       5.831  -5.856  27.798  0.00  0.00    +0.056 S 
ATOM     20  O   UNL     1       4.901  -4.847  28.247  0.00  0.00    -0.153 OA
ATOM     21  O   UNL     1       7.033  -6.192  28.522  0.00  0.00    -0.153 OA
BRANCH  19  22
ATOM     22  N   UNL     1       4.953  -7.283  27.684  0.00  0.00    -0.204 NA
ATOM     23  H   UNL     1       4.104  -7.212  28.248  0.00  0.00    +0.144 HD
ATOM     24  H   UNL     1       5.545  -8.073  27.940  0.00  0.00    +0.144 HD
ENDBRANCH  19  22
ENDBRANCH   3  19
BRANCH   6  25
ATOM     25  O   UNL     1       7.182  -4.793  22.117  0.00  0.00    -0.494 OA
ATOM     26  C   UNL     1       6.459  -5.564  21.160  0.00  0.00    +0.277 C 
ENDBRANCH   6  25
TORSDOF 7
ENDMDL
MODEL 3
REMARK VINA RESULT:      -6.5      2.739      4.201
REMARK  Name = 
REMARK  9 active torsions:
REMARK  status: ('A' for Active; 'I' for Inactive)
REMARK    1  A    between atoms: C_1  and  C_2
REMARK    2  A    between atoms: C_2  and  N_3
REMARK    3  A    between atoms: C_7  and  C_8
REMARK    4  A    between atoms: C_8  and  N_9
REMARK    5  A    between atoms: C_10  and  C_12
REMARK    6  A    between atoms: C_13  and  O_14
REMARK    7  A    between atoms: O_14  and  C_15
REMARK    8  A    between atoms: C_18  and  S_20
REMARK    9  A    between atoms: S_20  and  N_21
REMARK                            x       y       z     vdW  Elec       q    Type
REMARK                         _______ _______ _______ _____ _____    ______ ____
ROOT
ATOM      1  C   UNL     1       8.324  -2.766  23.894  0.00  0.00    +0.080 A 
ATOM      2  C   UNL     1       7.609  -3.482  22.917  0.00  0.00    +0.045 A 
ATOM      3  C   UNL     1       6.522  -4.280  23.291  0.00  0.00    +0.106 A 
ATOM      4  C   UNL     1       6.152  -4.400  24.631  0.00  0.00    +0.032 A 
ATOM      5  C   UNL     1       6.864  -3.700  25.605  0.00  0.00    +0.048 A 
ATOM      6  C   UNL     1       7.953  -2.890  25.251  0.00  0.00    +0.132 A 
ENDROOT
BRANCH   1   9
ATOM      7  N   UNL     1       9.440  -0.590  23.750  0.00  0.00    -0.310 N 
ATOM      8  H   UNL     1       8.634  -0.180  24.197  0.00  0.00    +0.149 HD
ATOM      9  C   UNL     1       9.513  -1.947  23.494  0.00  0.00    +0.248 C 
ATOM     10  O   UNL     1      10.479  -2.465  22.944  0.00  0.00    -0.270 OA
BRANCH   7  11
ATOM     11  C   UNL     1      10.500   0.333  23.380  0.00  0.00    +0.123 C 
BRANCH  11  13
ATOM     12  N   UNL     1       9.193   2.499  23.267  0.00  0.00    -0.298 NA
ATOM     13  C   UNL     1      10.016   1.516  22.509  0.00  0.00    +0.074 C 
ATOM     14  C   UNL     1       9.096   0.992  21.391  0.00  0.00    +0.022 C 
ATOM     15  C   UNL     1       7.745   1.625  21.654  0.00  0.00    +0.017 C 
ATOM     16  C   UNL     1       8.105   2.910  22.365  0.00  0.00    +0.085 C 
BRANCH  12  18
ATOM     17  C   UNL     1       9.158   4.946  23.707  0.00  0.00    +0.020 C 
ATOM     18  C   UNL     1       9.973   3.656  23.727  0.00  0.00    +0.081 C 
ENDBRANCH  12  18
ENDBRANCH  11  13
ENDBRANCH   7  11
ENDBRANCH   1   9
BRANCH   3  19
ATOM     19  S   UNL     1       5.640  -5.209  22.070  0.00  0.00    +0.056 S 
ATOM     20  O   UNL     1       5.907  -4.649  20.766  0.00  0.00    -0.153 OA
ATOM     21  O   UNL     1       4.305  -5.469  22.552  0.00  0.00    -0.153 OA
BRANCH  19  22
ATOM     22  N   UNL     1       6.439  -6.684  22.117  0.00  0.00    -0.204 NA
ATOM     23  H   UNL     1       6.628  -6.944  23.087  0.00  0.00    +0.144 HD
ATOM     24  H   UNL     1       7.279  -6.640  21.539  0.00  0.00    +0.144 HD
ENDBRANCH  19  22
ENDBRANCH   3  19
BRANCH   6  25
ATOM     25  O   UNL     1       8.616  -2.138  26.186  0.00  0.00    -0.494 OA
ATOM     26  C   UNL     1       7.830  -1.156  26.856  0.00  0.00    +0.277 C 
ENDBRANCH   6  25
TORSDOF 7
ENDMDL
MODEL 4
REMARK VINA RESULT:      -6.4      2.479      3.434
REMARK  Name = 
REMARK  9 active torsions:
REMARK  status: ('A' for Active; 'I' for Inactive)
REMARK    1  A    between atoms: C_1  and  C_2
REMARK    2  A    between atoms: C_2  and  N_3
REMARK    3  A    between atoms: C_7  and  C_8
REMARK    4  A    between atoms: C_8  and  N_9
REMARK    5  A    between atoms: C_10  and  C_12
REMARK    6  A    between atoms: C_13  and  O_14
REMARK    7  A    between atoms: O_14  and  C_15
REMARK    8  A    between atoms: C_18  and  S_20
REMARK    9  A    between atoms: S_20  and  N_21
REMARK                            x       y       z     vdW  Elec       q    Type
REMARK                         _______ _______ _______ _____ _____    ______ ____
ROOT
ATOM      1  C   UNL     1       7.759  -2.011  24.970  0.00  0.00    +0.080 A 
ATOM      2  C   UNL     1       7.818  -3.208  25.706  0.00  0.00    +0.045 A 
ATOM      3  C   UNL     1       6.640  -3.786  26.195  0.00  0.00    +0.106 A 
ATOM      4  C   UNL     1       5.405  -3.174  25.986  0.00  0.00    +0.032 A 
ATOM      5  C   UNL     1       5.342  -1.981  25.265  0.00  0.00    +0.048 A 
ATOM      6  C   UNL     1       6.510  -1.388  24.762  0.00  0.00    +0.132 A 
ENDROOT
BRANCH   1   9
ATOM      7  N   UNL     1       9.259  -0.075  24.899  0.00  0.00    -0.310 N 
ATOM      8  H   UNL     1       8.615   0.408  25.506  0.00  0.00    +0.149 HD
ATOM      9  C   UNL     1       9.026  -1.374  24.486  0.00  0.00    +0.248 C 
ATOM     10  O   UNL     1       9.791  -1.978  23.741  0.00  0.00    -0.270 OA
BRANCH   7  11
ATOM     11  C   UNL     1      10.425   0.683  24.476  0.00  0.00    +0.123 C 
BRANCH  11  13
ATOM     12  N   UNL     1       8.781   2.439  23.685  0.00  0.00    -0.298 NA
ATOM     13  C   UNL     1      10.103   1.795  23.451  0.00  0.00    +0.074 C 
ATOM     14  C   UNL     1      10.015   1.187  22.039  0.00  0.00    +0.022 C 
ATOM     15  C   UNL     1       8.585   1.417  21.592  0.00  0.00    +0.017 C 
ATOM     16  C   UNL     1       8.187   2.659  22.356  0.00  0.00    +0.085 C 
BRANCH  12  18
ATOM     17  C   UNL     1       9.965   4.617  23.875  0.00  0.00    +0.020 C 
ATOM     18  C   UNL     1       8.888   3.695  24.439  0.00  0.00    +0.081 C 
ENDBRANCH  12  18
ENDBRANCH  11  13
ENDBRANCH   7  11
ENDBRANCH   1   9
BRANCH   3  19
ATOM     19  S   UNL     1       6.712  -5.274  27.150  0.00  0.00    +0.056 S 
ATOM     20  O   UNL     1       6.065  -6.338  26.418  0.00  0.00    -0.153 OA
ATOM     21  O   UNL     1       6.397  -4.965  28.523  0.00  0.00    -0.153 OA
BRANCH  19  22
ATOM     22  N   UNL     1       8.354  -5.621  27.124  0.00  0.00    -0.204 NA
ATOM     23  H   UNL     1       8.805  -5.220  27.947  0.00  0.00    +0.144 HD
ATOM     24  H   UNL     1       8.760  -5.302  26.244  0.00  0.00    +0.144 HD
ENDBRANCH  19  22
ENDBRANCH   3  19
BRANCH   6  25
ATOM     25  O   UNL     1       6.458  -0.257  23.989  0.00  0.00    -0.494 OA
ATOM     26  C   UNL     1       5.755   0.845  24.556  0.00  0.00    +0.277 C 
ENDBRANCH   6  25
TORSDOF 7
ENDMDL
MODEL 5
REMARK VINA RESULT:      -6.3      2.676      4.239
REMARK  Name = 
REMARK  9 active torsions:
REMARK  status: ('A' for Active; 'I' for Inactive)
REMARK    1  A    between atoms: C_1  and  C_2
REMARK    2  A    between atoms: C_2  and  N_3
REMARK    3  A    between atoms: C_7  and  C_8
REMARK    4  A    between atoms: C_8  and  N_9
REMARK    5  A    between atoms: C_10  and  C_12
REMARK    6  A    between atoms: C_13  and  O_14
REMARK    7  A    between atoms: O_14  and  C_15
REMARK    8  A    between atoms: C_18  and  S_20
REMARK    9  A    between atoms: S_20  and  N_21
REMARK                            x       y       z     vdW  Elec       q    Type
REMARK                         _______ _______ _______ _____ _____    ______ ____
ROOT
ATOM      1  C   UNL     1       8.066  -2.697  24.213  0.00  0.00    +0.080 A 
ATOM      2  C   UNL     1       7.659  -3.490  23.124  0.00  0.00    +0.045 A 
ATOM      3  C   UNL     1       6.555  -4.340  23.253  0.00  0.00    +0.106 A 
ATOM      4  C   UNL     1       5.865  -4.435  24.462  0.00  0.00    +0.032 A 
ATOM      5  C   UNL     1       6.271  -3.658  25.548  0.00  0.00    +0.048 A 
ATOM      6  C   UNL     1       7.372  -2.796  25.438  0.00  0.00    +0.132 A 
ENDROOT
BRANCH   1   9
ATOM      7  N   UNL     1       9.140  -0.517  24.521  0.00  0.00    -0.310 N 
ATOM      8  H   UNL     1       8.276  -0.182  24.921  0.00  0.00    +0.149 HD
ATOM      9  C   UNL     1       9.275  -1.821  24.083  0.00  0.00    +0.248 C 
ATOM     10  O   UNL     1      10.312  -2.247  23.586  0.00  0.00    -0.270 OA
BRANCH   7  11
ATOM     11  C   UNL     1      10.214   0.457  24.420  0.00  0.00    +0.123 C 
BRANCH  11  13
ATOM     12  N   UNL     1       8.473   2.117  23.628  0.00  0.00    -0.298 NA
ATOM     13  C   UNL     1       9.882   1.653  23.497  0.00  0.00    +0.074 C 
ATOM     14  C   UNL     1      10.035   1.228  22.026  0.00  0.00    +0.022 C 
ATOM     15  C   UNL     1       8.650   1.361  21.424  0.00  0.00    +0.017 C 
ATOM     16  C   UNL     1       8.017   2.444  22.268  0.00  0.00    +0.085 C 
BRANCH  12  18
ATOM     17  C   UNL     1       7.679   2.889  25.854  0.00  0.00    +0.020 C 
ATOM     18  C   UNL     1       8.337   3.269  24.531  0.00  0.00    +0.081 C 
ENDBRANCH  12  18
ENDBRANCH  11  13
ENDBRANCH   7  11
ENDBRANCH   1   9
BRANCH   3  19
ATOM     19  S   UNL     1       6.058  -5.364  21.898  0.00  0.00    +0.056 S 
ATOM     20  O   UNL     1       6.903  -6.534  21.855  0.00  0.00    -0.153 OA
ATOM     21  O   UNL     1       5.815  -4.531  20.745  0.00  0.00    -0.153 OA
BRANCH  19  22
ATOM     22  N   UNL     1       4.549  -5.896  22.404  0.00  0.00    -0.204 NA
ATOM     23  H   UNL     1       4.648  -6.770  22.924  0.00  0.00    +0.144 HD
ATOM     24  H   UNL     1       3.923  -5.971  21.602  0.00  0.00    +0.144 HD
ENDBRANCH  19  22
ENDBRANCH   3  19
BRANCH   6  25
ATOM     25  O   UNL     1       7.738  -1.972  26.471  0.00  0.00    -0.494 OA
ATOM     26  C   UNL     1       6.749  -1.034  26.890  0.00  0.00    +0.277 C 
ENDBRANCH   6  25
TORSDOF 7
ENDMDL
MODEL 6
REMARK VINA RESULT:      -6.2      1.913      2.790
REMARK  Name = 
REMARK  9 active torsions:
REMARK  status: ('A' for Active; 'I' for Inactive)
REMARK    1  A    between atoms: C_1  and  C_2
REMARK    2  A    between atoms: C_2  and  N_3
REMARK    3  A    between atoms: C_7  and  C_8
REMARK    4  A    between atoms: C_8  and  N_9
REMARK    5  A    between atoms: C_10  and  C_12
REMARK    6  A    between atoms: C_13  and  O_14
REMARK    7  A    between atoms: O_14  and  C_15
REMARK    8  A    between atoms: C_18  and  S_20
REMARK    9  A    between atoms: S_20  and  N_21
REMARK                            x       y       z     vdW  Elec       q    Type
REMARK                         _______ _______ _______ _____ _____    ______ ____
ROOT
ATOM      1  C   UNL     1       8.123  -2.435  25.671  0.00  0.00    +0.080 A 
ATOM      2  C   UNL     1       7.443  -3.207  26.631  0.00  0.00    +0.045 A 
ATOM      3  C   UNL     1       7.090  -4.530  26.341  0.00  0.00    +0.106 A 
ATOM      4  C   UNL     1       7.378  -5.088  25.096  0.00  0.00    +0.032 A 
ATOM      5  C   UNL     1       8.043  -4.324  24.137  0.00  0.00    +0.048 A 
ATOM      6  C   UNL     1       8.411  -2.998  24.409  0.00  0.00    +0.132 A 
ENDROOT
BRANCH   1   9
ATOM      7  N   UNL     1       8.027  -0.066  25.055  0.00  0.00    -0.310 N 
ATOM      8  H   UNL     1       7.499  -0.331  24.238  0.00  0.00    +0.149 HD
ATOM      9  C   UNL     1       8.461  -1.006  25.971  0.00  0.00    +0.248 C 
ATOM     10  O   UNL     1       9.112  -0.708  26.966  0.00  0.00    -0.270 OA
BRANCH   7  11
ATOM     11  C   UNL     1       8.317   1.352  25.194  0.00  0.00    +0.123 C 
BRANCH  11  13
ATOM     12  N   UNL     1       7.766   1.456  22.724  0.00  0.00    -0.298 NA
ATOM     13  C   UNL     1       8.526   2.077  23.844  0.00  0.00    +0.074 C 
ATOM     14  C   UNL     1      10.006   1.983  23.431  0.00  0.00    +0.022 C 
ATOM     15  C   UNL     1      10.013   1.193  22.138  0.00  0.00    +0.017 C 
ATOM     16  C   UNL     1       8.653   1.494  21.551  0.00  0.00    +0.085 C 
BRANCH  12  18
ATOM     17  C   UNL     1       6.679   3.633  22.213  0.00  0.00    +0.020 C 
ATOM     18  C   UNL     1       6.492   2.138  22.456  0.00  0.00    +0.081 C 
ENDBRANCH  12  18
ENDBRANCH  11  13
ENDBRANCH   7  11
ENDBRANCH   1   9
BRANCH   3  19
ATOM     19  S   UNL     1       6.206  -5.495  27.532  0.00  0.00    +0.056 S 
ATOM     20  O   UNL     1       5.141  -4.696  28.091  0.00  0.00    -0.153 OA
ATOM     21  O   UNL     1       7.152  -6.218  28.346  0.00  0.00    -0.153 OA
BRANCH  19  22
ATOM     22  N   UNL     1       5.465  -6.646  26.560  0.00  0.00    -0.204 NA
ATOM     23  H   UNL     1       4.699  -6.216  26.039  0.00  0.00    +0.144 HD
ATOM     24  H   UNL     1       5.172  -7.441  27.129  0.00  0.00    +0.144 HD
ENDBRANCH  19  22
ENDBRANCH   3  19
BRANCH   6  25
ATOM     25  O   UNL     1       9.129  -2.258  23.506  0.00  0.00    -0.494 OA
ATOM     26  C   UNL     1       8.577  -2.183  22.194  0.00  0.00    +0.277 C 
ENDBRANCH   6  25
TORSDOF 7
ENDMDL
MODEL 7
REMARK VINA RESULT:      -6.1      2.281      2.904
REMARK  Name = 
REMARK  9 active torsions:
REMARK  status: ('A' for Active; 'I' for Inactive)
REMARK    1  A    between atoms: C_1  and  C_2
REMARK    2  A    between atoms: C_2  and  N_3
REMARK    3  A    between atoms: C_7  and  C_8
REMARK    4  A    between atoms: C_8  and  N_9
REMARK    5  A    between atoms: C_10  and  C_12
REMARK    6  A    between atoms: C_13  and  O_14
REMARK    7  A    between atoms: O_14  and  C_15
REMARK    8  A    between atoms: C_18  and  S_20
REMARK    9  A    between atoms: S_20  and  N_21
REMARK                            x       y       z     vdW  Elec       q    Type
REMARK                         _______ _______ _______ _____ _____    ______ ____
ROOT
ATOM      1  C   UNL     1       6.600  -4.541  24.133  0.00  0.00    +0.080 A 
ATOM      2  C   UNL     1       5.362  -5.132  23.820  0.00  0.00    +0.045 A 
ATOM      3  C   UNL     1       4.725  -5.957  24.755  0.00  0.00    +0.106 A 
ATOM      4  C   UNL     1       5.318  -6.227  25.988  0.00  0.00    +0.032 A 
ATOM      5  C   UNL     1       6.550  -5.652  26.300  0.00  0.00    +0.048 A 
ATOM      6  C   UNL     1       7.202  -4.818  25.380  0.00  0.00    +0.132 A 
ENDROOT
BRANCH   1   9
ATOM      7  N   UNL     1       7.742  -2.457  23.541  0.00  0.00    -0.310 N 
ATOM      8  H   UNL     1       7.614  -2.151  24.494  0.00  0.00    +0.149 HD
ATOM      9  C   UNL     1       7.298  -3.694  23.113  0.00  0.00    +0.248 C 
ATOM     10  O   UNL     1       7.434  -4.082  21.958  0.00  0.00    -0.270 OA
BRANCH   7  11
ATOM     11  C   UNL     1       8.399  -1.512  22.653  0.00  0.00    +0.123 C 
BRANCH  11  13
ATOM     12  N   UNL     1       9.954   0.478  22.851  0.00  0.00    -0.298 NA
ATOM     13  C   UNL     1       8.676  -0.137  23.305  0.00  0.00    +0.074 C 
ATOM     14  C   UNL     1       8.826  -0.309  24.828  0.00  0.00    +0.022 C 
ATOM     15  C   UNL     1      10.249   0.110  25.140  0.00  0.00    +0.017 C 
ATOM     16  C   UNL     1      10.559   1.099  24.040  0.00  0.00    +0.085 C 
BRANCH  12  18
ATOM     17  C   UNL     1       8.380   2.108  21.827  0.00  0.00    +0.020 C 
ATOM     18  C   UNL     1       9.760   1.457  21.773  0.00  0.00    +0.081 C 
ENDBRANCH  12  18
ENDBRANCH  11  13
ENDBRANCH   7  11
ENDBRANCH   1   9
BRANCH   3  19
ATOM     19  S   UNL     1       3.184  -6.728  24.354  0.00  0.00    +0.056 S 
ATOM     20  O   UNL     1       2.108  -5.973  24.950  0.00  0.00    -0.153 OA
ATOM     21  O   UNL     1       3.319  -8.156  24.510  0.00  0.00    -0.153 OA
BRANCH  19  22
ATOM     22  N   UNL     1       3.084  -6.457  22.700  0.00  0.00    -0.204 NA
ATOM     23  H   UNL     1       2.694  -5.529  22.525  0.00  0.00    +0.144 HD
ATOM     24  H   UNL     1       2.554  -7.209  22.259  0.00  0.00    +0.144 HD
ENDBRANCH  19  22
ENDBRANCH   3  19
BRANCH   6  25
ATOM     25  O   UNL     1       8.377  -4.187  25.698  0.00  0.00    -0.494 OA
ATOM     26  C   UNL     1       9.543  -5.006  25.672  0.00  0.00    +0.277 C 
ENDBRANCH   6  25
TORSDOF 7
ENDMDL
MODEL 8
REMARK VINA RESULT:      -6.1      4.221      7.648
REMARK  Name = 
REMARK  9 active torsions:
REMARK  status: ('A' for Active; 'I' for Inactive)
REMARK    1  A    between atoms: C_1  and  C_2
REMARK    2  A    between atoms: C_2  and  N_3
REMARK    3  A    between atoms: C_7  and  C_8
REMARK    4  A    between atoms: C_8  and  N_9
REMARK    5  A    between atoms: C_10  and  C_12
REMARK    6  A    between atoms: C_13  and  O_14
REMARK    7  A    between atoms: O_14  and  C_15
REMARK    8  A    between atoms: C_18  and  S_20
REMARK    9  A    between atoms: S_20  and  N_21
REMARK                            x       y       z     vdW  Elec       q    Type
REMARK                         _______ _______ _______ _____ _____    ______ ____
ROOT
ATOM      1  C   UNL     1       7.145  -0.033  23.147  0.00  0.00    +0.080 A 
ATOM      2  C   UNL     1       6.605   1.262  23.261  0.00  0.00    +0.045 A 
ATOM      3  C   UNL     1       7.207   2.331  22.587  0.00  0.00    +0.106 A 
ATOM      4  C   UNL     1       8.357   2.135  21.822  0.00  0.00    +0.032 A 
ATOM      5  C   UNL     1       8.902   0.856  21.714  0.00  0.00    +0.048 A 
ATOM      6  C   UNL     1       8.311  -0.231  22.378  0.00  0.00    +0.132 A 
ENDROOT
BRANCH   1   9
ATOM      7  N   UNL     1       5.834  -2.102  23.157  0.00  0.00    -0.310 N 
ATOM      8  H   UNL     1       5.769  -2.031  22.153  0.00  0.00    +0.149 HD
ATOM      9  C   UNL     1       6.522  -1.166  23.905  0.00  0.00    +0.248 C 
ATOM     10  O   UNL     1       6.606  -1.228  25.127  0.00  0.00    -0.270 OA
BRANCH   7  11
ATOM     11  C   UNL     1       5.145  -3.232  23.760  0.00  0.00    +0.123 C 
BRANCH  11  13
ATOM     12  N   UNL     1       7.260  -4.422  23.033  0.00  0.00    -0.298 NA
ATOM     13  C   UNL     1       5.878  -4.580  23.564  0.00  0.00    +0.074 C 
ATOM     14  C   UNL     1       5.133  -5.424  22.513  0.00  0.00    +0.022 C 
ATOM     15  C   UNL     1       6.113  -5.597  21.370  0.00  0.00    +0.017 C 
ATOM     16  C   UNL     1       7.455  -5.507  22.059  0.00  0.00    +0.085 C 
BRANCH  12  18
ATOM     17  C   UNL     1       7.777  -5.151  25.353  0.00  0.00    +0.020 C 
ATOM     18  C   UNL     1       8.280  -4.459  24.090  0.00  0.00    +0.081 C 
ENDBRANCH  12  18
ENDBRANCH  11  13
ENDBRANCH   7  11
ENDBRANCH   1   9
BRANCH   3  19
ATOM     19  S   UNL     1       6.553   3.967  22.753  0.00  0.00    +0.056 S 
ATOM     20  O   UNL     1       7.305   4.864  21.908  0.00  0.00    -0.153 OA
ATOM     21  O   UNL     1       6.300   4.231  24.148  0.00  0.00    -0.153 OA
BRANCH  19  22
ATOM     22  N   UNL     1       5.043   3.807  22.036  0.00  0.00    -0.204 NA
ATOM     23  H   UNL     1       5.097   3.143  21.263  0.00  0.00    +0.144 HD
ATOM     24  H   UNL     1       4.695   4.725  21.758  0.00  0.00    +0.144 HD
ENDBRANCH  19  22
ENDBRANCH   3  19
BRANCH   6  25
ATOM     25  O   UNL     1       8.789  -1.506  22.222  0.00  0.00    -0.494 OA
ATOM     26  C   UNL     1      10.152  -1.702  22.595  0.00  0.00    +0.277 C 
ENDBRANCH   6  25
TORSDOF 7
ENDMDL
MODEL 9
REMARK VINA RESULT:      -5.9      3.479      7.519
REMARK  Name = 
REMARK  9 active torsions:
REMARK  status: ('A' for Active; 'I' for Inactive)
REMARK    1  A    between atoms: C_1  and  C_2
REMARK    2  A    between atoms: C_2  and  N_3
REMARK    3  A    between atoms: C_7  and  C_8
REMARK    4  A    between atoms: C_8  and  N_9
REMARK    5  A    between atoms: C_10  and  C_12
REMARK    6  A    between atoms: C_13  and  O_14
REMARK    7  A    between atoms: O_14  and  C_15
REMARK    8  A    between atoms: C_18  and  S_20
REMARK    9  A    between atoms: S_20  and  N_21
REMARK                            x       y       z     vdW  Elec       q    Type
REMARK                         _______ _______ _______ _____ _____    ______ ____
ROOT
ATOM      1  C   UNL     1       7.933  -1.555  24.419  0.00  0.00    +0.080 A 
ATOM      2  C   UNL     1       8.165  -0.186  24.193  0.00  0.00    +0.045 A 
ATOM      3  C   UNL     1       9.312   0.223  23.503  0.00  0.00    +0.106 A 
ATOM      4  C   UNL     1      10.248  -0.710  23.059  0.00  0.00    +0.032 A 
ATOM      5  C   UNL     1      10.028  -2.068  23.289  0.00  0.00    +0.048 A 
ATOM      6  C   UNL     1       8.882  -2.500  23.974  0.00  0.00    +0.132 A 
ENDROOT
BRANCH   1   9
ATOM      7  N   UNL     1       5.687  -2.532  24.465  0.00  0.00    -0.310 N 
ATOM      8  H   UNL     1       5.748  -2.647  23.465  0.00  0.00    +0.149 HD
ATOM      9  C   UNL     1       6.725  -1.986  25.196  0.00  0.00    +0.248 C 
ATOM     10  O   UNL     1       6.668  -1.829  26.411  0.00  0.00    -0.270 OA
BRANCH   7  11
ATOM     11  C   UNL     1       4.438  -2.956  25.078  0.00  0.00    +0.123 C 
BRANCH  11  13
ATOM     12  N   UNL     1       5.459  -5.262  24.842  0.00  0.00    -0.298 NA
ATOM     13  C   UNL     1       4.201  -4.483  25.008  0.00  0.00    +0.074 C 
ATOM     14  C   UNL     1       3.349  -4.816  23.769  0.00  0.00    +0.022 C 
ATOM     15  C   UNL     1       4.234  -5.683  22.896  0.00  0.00    +0.017 C 
ATOM     16  C   UNL     1       5.151  -6.348  23.898  0.00  0.00    +0.085 C 
BRANCH  12  18
ATOM     17  C   UNL     1       4.942  -6.646  26.842  0.00  0.00    +0.020 C 
ATOM     18  C   UNL     1       5.972  -5.787  26.115  0.00  0.00    +0.081 C 
ENDBRANCH  12  18
ENDBRANCH  11  13
ENDBRANCH   7  11
ENDBRANCH   1   9
BRANCH   3  19
ATOM     19  S   UNL     1       9.625   1.946  23.245  0.00  0.00    +0.056 S 
ATOM     20  O   UNL     1      10.900   2.287  23.831  0.00  0.00    -0.153 OA
ATOM     21  O   UNL     1       8.417   2.687  23.510  0.00  0.00    -0.153 OA
BRANCH  19  22
ATOM     22  N   UNL     1       9.845   2.009  21.581  0.00  0.00    -0.204 NA
ATOM     23  H   UNL     1      10.829   1.851  21.357  0.00  0.00    +0.144 HD
ATOM     24  H   UNL     1       9.484   2.892  21.219  0.00  0.00    +0.144 HD
ENDBRANCH  19  22
ENDBRANCH   3  19
BRANCH   6  25
ATOM     25  O   UNL     1       8.614  -3.834  24.144  0.00  0.00    -0.494 OA
ATOM     26  C   UNL     1       9.427  -4.508  25.101  0.00  0.00    +0.277 C 
ENDBRANCH   6  25
TORSDOF 7
ENDMDL
