MODEL 1
REMARK VINA RESULT:      -7.9      0.000      0.000
REMARK  Name = 
REMARK  0 active torsions:
REMARK  status: ('A' for Active; 'I' for Inactive)
REMARK                            x       y       z     vdW  Elec       q    Type
REMARK                         _______ _______ _______ _____ _____    ______ ____
ROOT
ATOM      1 BR   UNL     1       5.677  -6.165  28.501  0.00  0.00    -0.050 Br
ATOM      2  C   UNL     1       5.391  -6.168  26.630  0.00  0.00    +0.019 A 
ATOM      3  C   UNL     1       4.500  -7.086  26.062  0.00  0.00    +0.017 A 
ATOM      4  C   UNL     1       4.283  -7.093  24.684  0.00  0.00    +0.025 A 
ATOM      5  C   UNL     1       4.977  -6.169  23.920  0.00  0.00    +0.042 A 
ATOM      6  N   UNL     1       4.898  -6.017  22.539  0.00  0.00    -0.281 N 
ATOM      7  H   UNL     1       4.323  -6.563  21.917  0.00  0.00    +0.155 HD
ATOM      8  C   UNL     1       5.726  -4.994  22.100  0.00  0.00    +0.251 C 
ATOM      9  C   UNL     1       6.393  -4.455  23.343  0.00  0.00    +0.071 C 
ATOM     10  C   UNL     1       7.267  -3.441  23.239  0.00  0.00    +0.092 C 
ATOM     11  C   UNL     1       8.017  -2.805  24.394  0.00  0.00    +0.210 C 
ATOM     12  O   UNL     1       8.003  -3.037  25.582  0.00  0.00    -0.285 OA
ATOM     13  C   UNL     1       8.853  -1.765  23.796  0.00  0.00    +0.045 A 
ATOM     14  C   UNL     1       9.723  -0.897  24.424  0.00  0.00    +0.013 A 
ATOM     15  C   UNL     1      10.394   0.007  23.609  0.00  0.00    +0.001 A 
ATOM     16  C   UNL     1      10.174   0.008  22.217  0.00  0.00    +0.002 A 
ATOM     17  C   UNL     1       9.278  -0.894  21.615  0.00  0.00    +0.024 A 
ATOM     18  C   UNL     1       8.617  -1.792  22.421  0.00  0.00    +0.042 A 
ATOM     19  N   UNL     1       7.677  -2.759  22.099  0.00  0.00    -0.310 N 
ATOM     20  H   UNL     1       7.355  -3.023  21.174  0.00  0.00    +0.152 HD
ATOM     21  O   UNL     1       5.884  -4.619  20.951  0.00  0.00    -0.270 OA
ATOM     22  C   UNL     1       5.874  -5.245  24.472  0.00  0.00    +0.011 A 
ATOM     23  C   UNL     1       6.079  -5.245  25.839  0.00  0.00    +0.025 A 
ENDROOT
TORSDOF 0
ENDMDL
MODEL 2
REMARK VINA RESULT:      -7.6      2.914      3.168
REMARK  Name = 
REMARK  0 active torsions:
REMARK  status: ('A' for Active; 'I' for Inactive)
REMARK                            x       y       z     vdW  Elec       q    Type
REMARK                         _______ _______ _______ _____ _____    ______ ____
ROOT
ATOM      1 BR   UNL     1       3.454  -3.266  28.372  0.00  0.00    -0.050 Br
ATOM      2  C   UNL     1       5.075  -4.084  27.838  0.00  0.00    +0.019 A 
ATOM      3  C   UNL     1       5.473  -5.292  28.422  0.00  0.00    +0.017 A 
ATOM      4  C   UNL     1       6.665  -5.902  28.033  0.00  0.00    +0.025 A 
ATOM      5  C   UNL     1       7.423  -5.267  27.062  0.00  0.00    +0.042 A 
ATOM      6  N   UNL     1       8.634  -5.713  26.541  0.00  0.00    -0.281 N 
ATOM      7  H   UNL     1       9.116  -6.557  26.807  0.00  0.00    +0.155 HD
ATOM      8  C   UNL     1       9.120  -4.835  25.583  0.00  0.00    +0.251 C 
ATOM      9  C   UNL     1       8.100  -3.724  25.500  0.00  0.00    +0.071 C 
ATOM     10  C   UNL     1       8.295  -2.707  24.646  0.00  0.00    +0.092 C 
ATOM     11  C   UNL     1       7.365  -1.523  24.462  0.00  0.00    +0.210 C 
ATOM     12  O   UNL     1       6.315  -1.240  24.992  0.00  0.00    -0.285 OA
ATOM     13  C   UNL     1       7.996  -0.681  23.446  0.00  0.00    +0.045 A 
ATOM     14  C   UNL     1       7.546   0.514  22.922  0.00  0.00    +0.013 A 
ATOM     15  C   UNL     1       8.347   1.107  21.952  0.00  0.00    +0.001 A 
ATOM     16  C   UNL     1       9.549   0.492  21.551  0.00  0.00    +0.002 A 
ATOM     17  C   UNL     1       9.974  -0.727  22.110  0.00  0.00    +0.024 A 
ATOM     18  C   UNL     1       9.183  -1.312  23.073  0.00  0.00    +0.042 A 
ATOM     19  N   UNL     1       9.349  -2.505  23.761  0.00  0.00    -0.310 N 
ATOM     20  H   UNL     1      10.140  -3.137  23.718  0.00  0.00    +0.152 HD
ATOM     21  O   UNL     1      10.155  -4.940  24.948  0.00  0.00    -0.270 OA
ATOM     22  C   UNL     1       7.041  -4.058  26.468  0.00  0.00    +0.011 A 
ATOM     23  C   UNL     1       5.855  -3.464  26.860  0.00  0.00    +0.025 A 
ENDROOT
TORSDOF 0
ENDMDL
MODEL 3
REMARK VINA RESULT:      -7.1      2.332      3.176
REMARK  Name = 
REMARK  0 active torsions:
REMARK  status: ('A' for Active; 'I' for Inactive)
REMARK                            x       y       z     vdW  Elec       q    Type
REMARK                         _______ _______ _______ _____ _____    ______ ____
ROOT
ATOM      1 BR   UNL     1       2.280  -5.348  23.375  0.00  0.00    -0.050 Br
ATOM      2  C   UNL     1       3.782  -5.558  24.508  0.00  0.00    +0.019 A 
ATOM      3  C   UNL     1       3.817  -6.609  25.433  0.00  0.00    +0.017 A 
ATOM      4  C   UNL     1       4.920  -6.771  26.270  0.00  0.00    +0.025 A 
ATOM      5  C   UNL     1       5.958  -5.862  26.148  0.00  0.00    +0.042 A 
ATOM      6  N   UNL     1       7.138  -5.854  26.886  0.00  0.00    -0.281 N 
ATOM      7  H   UNL     1       7.387  -6.512  27.607  0.00  0.00    +0.155 HD
ATOM      8  C   UNL     1       7.961  -4.805  26.504  0.00  0.00    +0.251 C 
ATOM      9  C   UNL     1       7.210  -4.081  25.412  0.00  0.00    +0.071 C 
ATOM     10  C   UNL     1       7.758  -3.001  24.833  0.00  0.00    +0.092 C 
ATOM     11  C   UNL     1       7.120  -2.173  23.734  0.00  0.00    +0.210 C 
ATOM     12  O   UNL     1       6.058  -2.282  23.164  0.00  0.00    -0.285 OA
ATOM     13  C   UNL     1       8.075  -1.106  23.440  0.00  0.00    +0.045 A 
ATOM     14  C   UNL     1       7.968  -0.089  22.513  0.00  0.00    +0.013 A 
ATOM     15  C   UNL     1       9.037   0.795  22.434  0.00  0.00    +0.001 A 
ATOM     16  C   UNL     1      10.157   0.632  23.273  0.00  0.00    +0.002 A 
ATOM     17  C   UNL     1      10.229  -0.419  24.207  0.00  0.00    +0.024 A 
ATOM     18  C   UNL     1       9.168  -1.291  24.288  0.00  0.00    +0.042 A 
ATOM     19  N   UNL     1       8.990  -2.409  25.088  0.00  0.00    -0.310 N 
ATOM     20  H   UNL     1       9.603  -2.747  25.822  0.00  0.00    +0.152 HD
ATOM     21  O   UNL     1       9.056  -4.525  26.961  0.00  0.00    -0.270 OA
ATOM     22  C   UNL     1       5.939  -4.804  25.230  0.00  0.00    +0.011 A 
ATOM     23  C   UNL     1       4.841  -4.654  24.403  0.00  0.00    +0.025 A 
ENDROOT
TORSDOF 0
ENDMDL
MODEL 4
REMARK VINA RESULT:      -7.1      3.168      6.719
REMARK  Name = 
REMARK  0 active torsions:
REMARK  status: ('A' for Active; 'I' for Inactive)
REMARK                            x       y       z     vdW  Elec       q    Type
REMARK                         _______ _______ _______ _____ _____    ______ ____
ROOT
ATOM      1 BR   UNL     1       6.005   3.208  25.750  0.00  0.00    -0.050 Br
ATOM      2  C   UNL     1       7.483   2.349  24.937  0.00  0.00    +0.019 A 
ATOM      3  C   UNL     1       8.696   3.033  24.795  0.00  0.00    +0.017 A 
ATOM      4  C   UNL     1       9.790   2.406  24.199  0.00  0.00    +0.025 A 
ATOM      5  C   UNL     1       9.623   1.102  23.761  0.00  0.00    +0.042 A 
ATOM      6  N   UNL     1      10.588   0.310  23.146  0.00  0.00    -0.281 N 
ATOM      7  H   UNL     1      11.535   0.586  22.939  0.00  0.00    +0.155 HD
ATOM      8  C   UNL     1      10.083  -0.945  22.840  0.00  0.00    +0.251 C 
ATOM      9  C   UNL     1       8.650  -0.930  23.314  0.00  0.00    +0.071 C 
ATOM     10  C   UNL     1       7.886  -2.022  23.153  0.00  0.00    +0.092 C 
ATOM     11  C   UNL     1       6.434  -2.149  23.570  0.00  0.00    +0.210 C 
ATOM     12  O   UNL     1       5.684  -1.365  24.106  0.00  0.00    -0.285 OA
ATOM     13  C   UNL     1       6.028  -3.499  23.180  0.00  0.00    +0.045 A 
ATOM     14  C   UNL     1       4.800  -4.107  23.345  0.00  0.00    +0.013 A 
ATOM     15  C   UNL     1       4.688  -5.415  22.886  0.00  0.00    +0.001 A 
ATOM     16  C   UNL     1       5.793  -6.054  22.289  0.00  0.00    +0.002 A 
ATOM     17  C   UNL     1       7.029  -5.400  22.139  0.00  0.00    +0.024 A 
ATOM     18  C   UNL     1       7.138  -4.104  22.590  0.00  0.00    +0.042 A 
ATOM     19  N   UNL     1       8.228  -3.247  22.590  0.00  0.00    -0.310 N 
ATOM     20  H   UNL     1       9.143  -3.412  22.184  0.00  0.00    +0.152 HD
ATOM     21  O   UNL     1      10.675  -1.862  22.295  0.00  0.00    -0.270 OA
ATOM     22  C   UNL     1       8.416   0.404  23.893  0.00  0.00    +0.011 A 
ATOM     23  C   UNL     1       7.339   1.034  24.488  0.00  0.00    +0.025 A 
ENDROOT
TORSDOF 0
ENDMDL
MODEL 5
REMARK VINA RESULT:      -7.1      3.331      6.859
REMARK  Name = 
REMARK  0 active torsions:
REMARK  status: ('A' for Active; 'I' for Inactive)
REMARK                            x       y       z     vdW  Elec       q    Type
REMARK                         _______ _______ _______ _____ _____    ______ ____
ROOT
ATOM      1 BR   UNL     1       6.038   3.010  22.299  0.00  0.00    -0.050 Br
ATOM      2  C   UNL     1       7.441   1.745  22.430  0.00  0.00    +0.019 A 
ATOM      3  C   UNL     1       8.694   2.034  21.876  0.00  0.00    +0.017 A 
ATOM      4  C   UNL     1       9.733   1.108  21.970  0.00  0.00    +0.025 A 
ATOM      5  C   UNL     1       9.472  -0.086  22.621  0.00  0.00    +0.042 A 
ATOM      6  N   UNL     1      10.371  -1.130  22.819  0.00  0.00    -0.281 N 
ATOM      7  H   UNL     1      11.330  -1.149  22.510  0.00  0.00    +0.155 HD
ATOM      8  C   UNL     1       9.779  -2.175  23.512  0.00  0.00    +0.251 C 
ATOM      9  C   UNL     1       8.358  -1.733  23.772  0.00  0.00    +0.071 C 
ATOM     10  C   UNL     1       7.521  -2.547  24.435  0.00  0.00    +0.092 C 
ATOM     11  C   UNL     1       6.071  -2.242  24.759  0.00  0.00    +0.210 C 
ATOM     12  O   UNL     1       5.385  -1.274  24.522  0.00  0.00    -0.285 OA
ATOM     13  C   UNL     1       5.571  -3.418  25.469  0.00  0.00    +0.045 A 
ATOM     14  C   UNL     1       4.308  -3.638  25.982  0.00  0.00    +0.013 A 
ATOM     15  C   UNL     1       4.102  -4.853  26.624  0.00  0.00    +0.001 A 
ATOM     16  C   UNL     1       5.150  -5.789  26.726  0.00  0.00    +0.002 A 
ATOM     17  C   UNL     1       6.424  -5.528  26.190  0.00  0.00    +0.024 A 
ATOM     18  C   UNL     1       6.627  -4.326  25.550  0.00  0.00    +0.042 A 
ATOM     19  N   UNL     1       7.771  -3.809  24.962  0.00  0.00    -0.310 N 
ATOM     20  H   UNL     1       8.665  -4.272  24.840  0.00  0.00    +0.152 HD
ATOM     21  O   UNL     1      10.298  -3.230  23.835  0.00  0.00    -0.270 OA
ATOM     22  C   UNL     1       8.224  -0.392  23.179  0.00  0.00    +0.011 A 
ATOM     23  C   UNL     1       7.202   0.535  23.083  0.00  0.00    +0.025 A 
ENDROOT
TORSDOF 0
ENDMDL
MODEL 6
REMARK VINA RESULT:      -7.1      2.707      3.926
REMARK  Name = 
REMARK  0 active torsions:
REMARK  status: ('A' for Active; 'I' for Inactive)
REMARK                            x       y       z     vdW  Elec       q    Type
REMARK                         _______ _______ _______ _____ _____    ______ ____
ROOT
ATOM      1 BR   UNL     1       6.443  -6.017  21.110  0.00  0.00    -0.050 Br
ATOM      2  C   UNL     1       6.347  -5.231  22.830  0.00  0.00    +0.019 A 
ATOM      3  C   UNL     1       5.693  -5.904  23.869  0.00  0.00    +0.017 A 
ATOM      4  C   UNL     1       5.621  -5.332  25.139  0.00  0.00    +0.025 A 
ATOM      5  C   UNL     1       6.212  -4.092  25.320  0.00  0.00    +0.042 A 
ATOM      6  N   UNL     1       6.248  -3.362  26.504  0.00  0.00    -0.281 N 
ATOM      7  H   UNL     1       5.846  -3.643  27.383  0.00  0.00    +0.155 HD
ATOM      8  C   UNL     1       6.924  -2.163  26.331  0.00  0.00    +0.251 C 
ATOM      9  C   UNL     1       7.353  -2.146  24.883  0.00  0.00    +0.071 C 
ATOM     10  C   UNL     1       8.038  -1.095  24.406  0.00  0.00    +0.092 C 
ATOM     11  C   UNL     1       8.525  -0.937  22.978  0.00  0.00    +0.210 C 
ATOM     12  O   UNL     1       8.423  -1.660  22.014  0.00  0.00    -0.285 OA
ATOM     13  C   UNL     1       9.198   0.360  22.933  0.00  0.00    +0.045 A 
ATOM     14  C   UNL     1       9.818   0.968  21.860  0.00  0.00    +0.013 A 
ATOM     15  C   UNL     1      10.393   2.211  22.098  0.00  0.00    +0.001 A 
ATOM     16  C   UNL     1      10.328   2.790  23.381  0.00  0.00    +0.002 A 
ATOM     17  C   UNL     1       9.687   2.138  24.450  0.00  0.00    +0.024 A 
ATOM     18  C   UNL     1       9.114   0.909  24.213  0.00  0.00    +0.042 A 
ATOM     19  N   UNL     1       8.451   0.051  25.077  0.00  0.00    -0.310 N 
ATOM     20  H   UNL     1       8.210   0.217  26.048  0.00  0.00    +0.152 HD
ATOM     21  O   UNL     1       7.122  -1.303  27.173  0.00  0.00    -0.270 OA
ATOM     22  C   UNL     1       6.869  -3.405  24.291  0.00  0.00    +0.011 A 
ATOM     23  C   UNL     1       6.937  -3.983  23.036  0.00  0.00    +0.025 A 
ENDROOT
TORSDOF 0
ENDMDL
MODEL 7
REMARK VINA RESULT:      -7.0      2.396      2.965
REMARK  Name = 
REMARK  0 active torsions:
REMARK  status: ('A' for Active; 'I' for Inactive)
REMARK                            x       y       z     vdW  Elec       q    Type
REMARK                         _______ _______ _______ _____ _____    ______ ____
ROOT
ATOM      1 BR   UNL     1       2.429  -3.726  25.813  0.00  0.00    -0.050 Br
ATOM      2  C   UNL     1       4.226  -4.318  25.756  0.00  0.00    +0.019 A 
ATOM      3  C   UNL     1       4.569  -5.561  26.301  0.00  0.00    +0.017 A 
ATOM      4  C   UNL     1       5.890  -6.005  26.261  0.00  0.00    +0.025 A 
ATOM      5  C   UNL     1       6.829  -5.174  25.671  0.00  0.00    +0.042 A 
ATOM      6  N   UNL     1       8.189  -5.435  25.533  0.00  0.00    -0.281 N 
ATOM      7  H   UNL     1       8.665  -6.266  25.847  0.00  0.00    +0.155 HD
ATOM      8  C   UNL     1       8.836  -4.389  24.892  0.00  0.00    +0.251 C 
ATOM      9  C   UNL     1       7.763  -3.368  24.602  0.00  0.00    +0.071 C 
ATOM     10  C   UNL     1       8.087  -2.224  23.978  0.00  0.00    +0.092 C 
ATOM     11  C   UNL     1       7.120  -1.108  23.631  0.00  0.00    +0.210 C 
ATOM     12  O   UNL     1       5.930  -0.995  23.814  0.00  0.00    -0.285 OA
ATOM     13  C   UNL     1       7.928  -0.076  22.982  0.00  0.00    +0.045 A 
ATOM     14  C   UNL     1       7.518   1.141  22.474  0.00  0.00    +0.013 A 
ATOM     15  C   UNL     1       8.502   1.935  21.895  0.00  0.00    +0.001 A 
ATOM     16  C   UNL     1       9.838   1.488  21.847  0.00  0.00    +0.002 A 
ATOM     17  C   UNL     1      10.215   0.240  22.376  0.00  0.00    +0.024 A 
ATOM     18  C   UNL     1       9.242  -0.544  22.953  0.00  0.00    +0.042 A 
ATOM     19  N   UNL     1       9.331  -1.806  23.519  0.00  0.00    -0.310 N 
ATOM     20  H   UNL     1      10.169  -2.357  23.670  0.00  0.00    +0.152 HD
ATOM     21  O   UNL     1      10.024  -4.313  24.627  0.00  0.00    -0.270 OA
ATOM     22  C   UNL     1       6.504  -3.927  25.123  0.00  0.00    +0.011 A 
ATOM     23  C   UNL     1       5.189  -3.498  25.166  0.00  0.00    +0.025 A 
ENDROOT
TORSDOF 0
ENDMDL
MODEL 8
REMARK VINA RESULT:      -6.8      2.104      2.135
REMARK  Name = 
REMARK  0 active torsions:
REMARK  status: ('A' for Active; 'I' for Inactive)
REMARK                            x       y       z     vdW  Elec       q    Type
REMARK                         _______ _______ _______ _____ _____    ______ ____
ROOT
ATOM      1 BR   UNL     1       1.673  -3.338  26.298  0.00  0.00    -0.050 Br
ATOM      2  C   UNL     1       2.728  -4.304  25.058  0.00  0.00    +0.019 A 
ATOM      3  C   UNL     1       2.362  -5.605  24.694  0.00  0.00    +0.017 A 
ATOM      4  C   UNL     1       3.133  -6.322  23.780  0.00  0.00    +0.025 A 
ATOM      5  C   UNL     1       4.257  -5.700  23.261  0.00  0.00    +0.042 A 
ATOM      6  N   UNL     1       5.149  -6.244  22.342  0.00  0.00    -0.281 N 
ATOM      7  H   UNL     1       5.090  -7.165  21.936  0.00  0.00    +0.155 HD
ATOM      8  C   UNL     1       6.162  -5.347  22.036  0.00  0.00    +0.251 C 
ATOM      9  C   UNL     1       5.868  -4.114  22.855  0.00  0.00    +0.071 C 
ATOM     10  C   UNL     1       6.687  -3.053  22.773  0.00  0.00    +0.092 C 
ATOM     11  C   UNL     1       6.523  -1.754  23.540  0.00  0.00    +0.210 C 
ATOM     12  O   UNL     1       5.685  -1.395  24.336  0.00  0.00    -0.285 OA
ATOM     13  C   UNL     1       7.651  -0.915  23.139  0.00  0.00    +0.045 A 
ATOM     14  C   UNL     1       7.957   0.366  23.552  0.00  0.00    +0.013 A 
ATOM     15  C   UNL     1       9.096   0.941  23.000  0.00  0.00    +0.001 A 
ATOM     16  C   UNL     1       9.876   0.222  22.072  0.00  0.00    +0.002 A 
ATOM     17  C   UNL     1       9.530  -1.083  21.677  0.00  0.00    +0.024 A 
ATOM     18  C   UNL     1       8.404  -1.653  22.226  0.00  0.00    +0.042 A 
ATOM     19  N   UNL     1       7.831  -2.895  21.999  0.00  0.00    -0.310 N 
ATOM     20  H   UNL     1       8.192  -3.645  21.420  0.00  0.00    +0.152 HD
ATOM     21  O   UNL     1       7.095  -5.525  21.271  0.00  0.00    -0.270 OA
ATOM     22  C   UNL     1       4.640  -4.400  23.616  0.00  0.00    +0.011 A 
ATOM     23  C   UNL     1       3.866  -3.697  24.521  0.00  0.00    +0.025 A 
ENDROOT
TORSDOF 0
ENDMDL
MODEL 9
REMARK VINA RESULT:      -6.8      3.887      6.625
REMARK  Name = 
REMARK  0 active torsions:
REMARK  status: ('A' for Active; 'I' for Inactive)
REMARK                            x       y       z     vdW  Elec       q    Type
REMARK                         _______ _______ _______ _____ _____    ______ ____
ROOT
ATOM      1 BR   UNL     1       4.159   3.171  24.727  0.00  0.00    -0.050 Br
ATOM      2  C   UNL     1       5.604   2.653  23.620  0.00  0.00    +0.019 A 
ATOM      3  C   UNL     1       6.004   3.478  22.562  0.00  0.00    +0.017 A 
ATOM      4  C   UNL     1       7.069   3.104  21.743  0.00  0.00    +0.025 A 
ATOM      5  C   UNL     1       7.700   1.902  22.019  0.00  0.00    +0.042 A 
ATOM      6  N   UNL     1       8.775   1.357  21.324  0.00  0.00    -0.281 N 
ATOM      7  H   UNL     1       9.233   1.770  20.527  0.00  0.00    +0.155 HD
ATOM      8  C   UNL     1       9.160   0.141  21.870  0.00  0.00    +0.251 C 
ATOM      9  C   UNL     1       8.220  -0.095  23.028  0.00  0.00    +0.071 C 
ATOM     10  C   UNL     1       8.343  -1.211  23.765  0.00  0.00    +0.092 C 
ATOM     11  C   UNL     1       7.470  -1.584  24.948  0.00  0.00    +0.210 C 
ATOM     12  O   UNL     1       6.538  -1.013  25.466  0.00  0.00    -0.285 OA
ATOM     13  C   UNL     1       7.969  -2.878  25.412  0.00  0.00    +0.045 A 
ATOM     14  C   UNL     1       7.515  -3.645  26.467  0.00  0.00    +0.013 A 
ATOM     15  C   UNL     1       8.183  -4.841  26.697  0.00  0.00    +0.001 A 
ATOM     16  C   UNL     1       9.264  -5.221  25.877  0.00  0.00    +0.002 A 
ATOM     17  C   UNL     1       9.697  -4.411  24.811  0.00  0.00    +0.024 A 
ATOM     18  C   UNL     1       9.033  -3.228  24.580  0.00  0.00    +0.042 A 
ATOM     19  N   UNL     1       9.262  -2.245  23.629  0.00  0.00    -0.310 N 
ATOM     20  H   UNL     1       9.940  -2.263  22.875  0.00  0.00    +0.152 HD
ATOM     21  O   UNL     1      10.062  -0.583  21.488  0.00  0.00    -0.270 OA
ATOM     22  C   UNL     1       7.312   1.063  23.072  0.00  0.00    +0.011 A 
ATOM     23  C   UNL     1       6.256   1.446  23.879  0.00  0.00    +0.025 A 
ENDROOT
TORSDOF 0
ENDMDL
