MODEL 1
REMARK VINA RESULT:      -6.7      0.000      0.000
REMARK  Name = 
REMARK  13 active torsions:
REMARK  status: ('A' for Active; 'I' for Inactive)
REMARK    1  A    between atoms: C_2  and  C_3
REMARK    2  A    between atoms: C_2  and  N_8
REMARK    3  A    between atoms: C_2  and  C_23
REMARK    4  A    between atoms: C_3  and  S_4
REMARK    5  A    between atoms: S_4  and  C_5
REMARK    6  A    between atoms: C_15  and  N_19
REMARK    7  A    between atoms: C_20  and  C_21
REMARK    8  A    between atoms: C_20  and  O_22
REMARK    9  A    between atoms: C_25  and  O_26
REMARK   10  A    between atoms: O_26  and  C_27
REMARK   11  A    between atoms: C_27  and  C_28
REMARK   12  A    between atoms: C_29  and  O_30
REMARK   13  A    between atoms: O_30  and  C_31
REMARK                            x       y       z     vdW  Elec       q    Type
REMARK                         _______ _______ _______ _____ _____    ______ ____
ROOT
ATOM      1  C   UNL     1       7.406  -3.422  23.386  0.00  0.00    +0.136 C 
ENDROOT
BRANCH   1   2
ATOM      2  N   UNL     1       7.876  -2.022  23.426  0.00  0.00    -0.225 N 
ATOM      3  C   UNL     1       7.160  -0.881  23.732  0.00  0.00    +0.256 C 
ATOM      4  O   UNL     1       6.018  -0.820  24.159  0.00  0.00    -0.269 OA
ATOM      5  C   UNL     1       7.987   0.286  23.318  0.00  0.00    +0.075 A 
ATOM      6  C   UNL     1       7.862   1.672  23.459  0.00  0.00    +0.080 A 
ATOM      7  C   UNL     1       8.896   2.441  22.876  0.00  0.00    +0.028 A 
ATOM      8  C   UNL     1       9.943   1.868  22.128  0.00  0.00    +0.003 A 
ATOM      9  C   UNL     1      10.050   0.494  22.022  0.00  0.00    +0.014 A 
ATOM     10  C   UNL     1       9.079  -0.252  22.655  0.00  0.00    +0.051 A 
ATOM     11  C   UNL     1       9.029  -1.695  22.761  0.00  0.00    +0.254 C 
ATOM     12  O   UNL     1       9.886  -2.434  22.314  0.00  0.00    -0.270 OA
BRANCH   6  13
ATOM     13  N   UNL     1       6.873   2.235  24.283  0.00  0.00    -0.217 NA
ATOM     14  C   UNL     1       5.798   2.837  23.898  0.00  0.00    +0.184 C 
ATOM     15  C   UNL     1       5.194   3.129  22.561  0.00  0.00    +0.109 C 
BRANCH  14  16
ATOM     16  O   UNL     1       5.046   3.365  24.883  0.00  0.00    -0.496 OA
ATOM     17  H   UNL     1       4.117   3.191  24.653  0.00  0.00    +0.293 HD
ENDBRANCH  14  16
ENDBRANCH   6  13
ENDBRANCH   1   2
BRANCH   1  18
ATOM     18  C   UNL     1       7.111  -4.075  24.742  0.00  0.00    -0.021 A 
ATOM     19  C   UNL     1       8.111  -4.698  25.495  0.00  0.00    +0.009 A 
ATOM     20  C   UNL     1       7.876  -5.092  26.818  0.00  0.00    +0.050 A 
ATOM     21  C   UNL     1       6.636  -4.869  27.424  0.00  0.00    +0.162 A 
ATOM     22  C   UNL     1       5.588  -4.314  26.665  0.00  0.00    +0.162 A 
ATOM     23  C   UNL     1       5.831  -3.928  25.336  0.00  0.00    +0.055 A 
BRANCH  21  24
ATOM     24  O   UNL     1       6.357  -5.145  28.740  0.00  0.00    -0.491 OA
ATOM     25  C   UNL     1       6.266  -6.511  29.121  0.00  0.00    +0.277 C 
ENDBRANCH  21  24
BRANCH  22  26
ATOM     26  O   UNL     1       4.392  -4.161  27.329  0.00  0.00    -0.489 OA
BRANCH  26  27
ATOM     27  C   UNL     1       3.207  -4.699  26.751  0.00  0.00    +0.226 C 
ATOM     28  C   UNL     1       3.285  -6.219  26.828  0.00  0.00    +0.048 C 
ENDBRANCH  26  27
ENDBRANCH  22  26
ENDBRANCH   1  18
BRANCH   1  29
ATOM     29  C   UNL     1       6.248  -3.672  22.402  0.00  0.00    +0.193 C 
BRANCH  29  30
ATOM     30  S   UNL     1       6.305  -5.334  21.754  0.00  0.00    -0.032 S 
ATOM     31  O   UNL     1       7.570  -5.925  22.151  0.00  0.00    -0.175 OA
ATOM     32  O   UNL     1       5.900  -5.305  20.363  0.00  0.00    -0.175 OA
ATOM     33  C   UNL     1       5.034  -6.193  22.648  0.00  0.00    +0.194 C 
ENDBRANCH  29  30
ENDBRANCH   1  29
TORSDOF 9
ENDMDL
MODEL 2
REMARK VINA RESULT:      -6.7      2.929      8.008
REMARK  Name = 
REMARK  13 active torsions:
REMARK  status: ('A' for Active; 'I' for Inactive)
REMARK    1  A    between atoms: C_2  and  C_3
REMARK    2  A    between atoms: C_2  and  N_8
REMARK    3  A    between atoms: C_2  and  C_23
REMARK    4  A    between atoms: C_3  and  S_4
REMARK    5  A    between atoms: S_4  and  C_5
REMARK    6  A    between atoms: C_15  and  N_19
REMARK    7  A    between atoms: C_20  and  C_21
REMARK    8  A    between atoms: C_20  and  O_22
REMARK    9  A    between atoms: C_25  and  O_26
REMARK   10  A    between atoms: O_26  and  C_27
REMARK   11  A    between atoms: C_27  and  C_28
REMARK   12  A    between atoms: C_29  and  O_30
REMARK   13  A    between atoms: O_30  and  C_31
REMARK                            x       y       z     vdW  Elec       q    Type
REMARK                         _______ _______ _______ _____ _____    ______ ____
ROOT
ATOM      1  C   UNL     1       7.578   0.713  25.271  0.00  0.00    +0.136 C 
ENDROOT
BRANCH   1   2
ATOM      2  N   UNL     1       7.918  -0.698  25.003  0.00  0.00    -0.225 N 
ATOM      3  C   UNL     1       7.409  -1.538  24.031  0.00  0.00    +0.256 C 
ATOM      4  O   UNL     1       6.664  -1.235  23.111  0.00  0.00    -0.269 OA
ATOM      5  C   UNL     1       7.824  -2.925  24.380  0.00  0.00    +0.075 A 
ATOM      6  C   UNL     1       7.713  -4.168  23.747  0.00  0.00    +0.080 A 
ATOM      7  C   UNL     1       8.237  -5.267  24.464  0.00  0.00    +0.028 A 
ATOM      8  C   UNL     1       8.759  -5.148  25.767  0.00  0.00    +0.003 A 
ATOM      9  C   UNL     1       8.872  -3.904  26.360  0.00  0.00    +0.014 A 
ATOM     10  C   UNL     1       8.428  -2.827  25.624  0.00  0.00    +0.051 A 
ATOM     11  C   UNL     1       8.523  -1.429  25.991  0.00  0.00    +0.254 C 
ATOM     12  O   UNL     1       9.054  -1.036  27.013  0.00  0.00    -0.270 OA
BRANCH   6  13
ATOM     13  N   UNL     1       7.280  -4.271  22.414  0.00  0.00    -0.217 NA
ATOM     14  C   UNL     1       6.222  -4.876  21.991  0.00  0.00    +0.184 C 
ATOM     15  C   UNL     1       5.109  -5.615  22.665  0.00  0.00    +0.109 C 
BRANCH  14  16
ATOM     16  O   UNL     1       6.068  -4.906  20.653  0.00  0.00    -0.496 OA
ATOM     17  H   UNL     1       6.501  -5.718  20.338  0.00  0.00    +0.293 HD
ENDBRANCH  14  16
ENDBRANCH   6  13
ENDBRANCH   1   2
BRANCH   1  18
ATOM     18  C   UNL     1       8.622   1.753  24.844  0.00  0.00    -0.021 A 
ATOM     19  C   UNL     1       9.854   1.382  24.299  0.00  0.00    +0.009 A 
ATOM     20  C   UNL     1      10.699   2.334  23.714  0.00  0.00    +0.050 A 
ATOM     21  C   UNL     1      10.330   3.682  23.657  0.00  0.00    +0.162 A 
ATOM     22  C   UNL     1       9.131   4.095  24.267  0.00  0.00    +0.162 A 
ATOM     23  C   UNL     1       8.293   3.133  24.856  0.00  0.00    +0.055 A 
BRANCH  21  24
ATOM     24  O   UNL     1      11.061   4.658  23.024  0.00  0.00    -0.491 OA
ATOM     25  C   UNL     1      12.438   4.770  23.360  0.00  0.00    +0.277 C 
ENDBRANCH  21  24
BRANCH  22  26
ATOM     26  O   UNL     1       8.862   5.442  24.193  0.00  0.00    -0.489 OA
BRANCH  26  27
ATOM     27  C   UNL     1       7.574   5.868  23.758  0.00  0.00    +0.226 C 
ATOM     28  C   UNL     1       7.568   5.891  22.235  0.00  0.00    +0.048 C 
ENDBRANCH  26  27
ENDBRANCH  22  26
ENDBRANCH   1  18
BRANCH   1  29
ATOM     29  C   UNL     1       6.175   1.129  24.792  0.00  0.00    +0.193 C 
BRANCH  29  30
ATOM     30  S   UNL     1       4.934   0.719  26.009  0.00  0.00    -0.032 S 
ATOM     31  O   UNL     1       4.582  -0.678  25.835  0.00  0.00    -0.175 OA
ATOM     32  O   UNL     1       3.917   1.751  26.003  0.00  0.00    -0.175 OA
ATOM     33  C   UNL     1       5.790   0.843  27.559  0.00  0.00    +0.194 C 
ENDBRANCH  29  30
ENDBRANCH   1  29
TORSDOF 9
ENDMDL
MODEL 3
REMARK VINA RESULT:      -6.6      3.025      7.952
REMARK  Name = 
REMARK  13 active torsions:
REMARK  status: ('A' for Active; 'I' for Inactive)
REMARK    1  A    between atoms: C_2  and  C_3
REMARK    2  A    between atoms: C_2  and  N_8
REMARK    3  A    between atoms: C_2  and  C_23
REMARK    4  A    between atoms: C_3  and  S_4
REMARK    5  A    between atoms: S_4  and  C_5
REMARK    6  A    between atoms: C_15  and  N_19
REMARK    7  A    between atoms: C_20  and  C_21
REMARK    8  A    between atoms: C_20  and  O_22
REMARK    9  A    between atoms: C_25  and  O_26
REMARK   10  A    between atoms: O_26  and  C_27
REMARK   11  A    between atoms: C_27  and  C_28
REMARK   12  A    between atoms: C_29  and  O_30
REMARK   13  A    between atoms: O_30  and  C_31
REMARK                            x       y       z     vdW  Elec       q    Type
REMARK                         _______ _______ _______ _____ _____    ______ ____
ROOT
ATOM      1  C   UNL     1       7.497   0.718  25.729  0.00  0.00    +0.136 C 
ENDROOT
BRANCH   1   2
ATOM      2  N   UNL     1       7.346  -0.652  25.198  0.00  0.00    -0.225 N 
ATOM      3  C   UNL     1       7.819  -1.838  25.724  0.00  0.00    +0.256 C 
ATOM      4  O   UNL     1       8.351  -2.001  26.811  0.00  0.00    -0.269 OA
ATOM      5  C   UNL     1       7.690  -2.877  24.666  0.00  0.00    +0.075 A 
ATOM      6  C   UNL     1       7.893  -4.261  24.623  0.00  0.00    +0.080 A 
ATOM      7  C   UNL     1       7.671  -4.873  23.369  0.00  0.00    +0.028 A 
ATOM      8  C   UNL     1       7.350  -4.139  22.209  0.00  0.00    +0.003 A 
ATOM      9  C   UNL     1       7.138  -2.775  22.286  0.00  0.00    +0.014 A 
ATOM     10  C   UNL     1       7.283  -2.197  23.528  0.00  0.00    +0.051 A 
ATOM     11  C   UNL     1       7.028  -0.814  23.875  0.00  0.00    +0.254 C 
ATOM     12  O   UNL     1       6.611   0.012  23.084  0.00  0.00    -0.270 OA
BRANCH   6  13
ATOM     13  N   UNL     1       8.119  -5.001  25.796  0.00  0.00    -0.217 NA
ATOM     14  C   UNL     1       7.228  -5.405  26.638  0.00  0.00    +0.184 C 
ATOM     15  C   UNL     1       5.737  -5.302  26.701  0.00  0.00    +0.109 C 
BRANCH  14  16
ATOM     16  O   UNL     1       7.707  -6.027  27.733  0.00  0.00    -0.496 OA
ATOM     17  H   UNL     1       8.072  -5.336  28.313  0.00  0.00    +0.293 HD
ENDBRANCH  14  16
ENDBRANCH   6  13
ENDBRANCH   1   2
BRANCH   1  18
ATOM     18  C   UNL     1       8.616   1.563  25.108  0.00  0.00    -0.021 A 
ATOM     19  C   UNL     1       9.816   0.995  24.669  0.00  0.00    +0.009 A 
ATOM     20  C   UNL     1      10.730   1.737  23.910  0.00  0.00    +0.050 A 
ATOM     21  C   UNL     1      10.464   3.066  23.567  0.00  0.00    +0.162 A 
ATOM     22  C   UNL     1       9.300   3.687  24.059  0.00  0.00    +0.162 A 
ATOM     23  C   UNL     1       8.393   2.936  24.826  0.00  0.00    +0.055 A 
BRANCH  21  24
ATOM     24  O   UNL     1      11.265   3.830  22.753  0.00  0.00    -0.491 OA
ATOM     25  C   UNL     1      12.334   4.541  23.364  0.00  0.00    +0.277 C 
ENDBRANCH  21  24
BRANCH  22  26
ATOM     26  O   UNL     1       9.135   5.005  23.701  0.00  0.00    -0.489 OA
BRANCH  26  27
ATOM     27  C   UNL     1       7.819   5.497  23.466  0.00  0.00    +0.226 C 
ATOM     28  C   UNL     1       7.302   4.880  22.173  0.00  0.00    +0.048 C 
ENDBRANCH  26  27
ENDBRANCH  22  26
ENDBRANCH   1  18
BRANCH   1  29
ATOM     29  C   UNL     1       6.185   1.521  25.792  0.00  0.00    +0.193 C 
BRANCH  29  30
ATOM     30  S   UNL     1       5.035   0.781  26.941  0.00  0.00    -0.032 S 
ATOM     31  O   UNL     1       5.797   0.255  28.058  0.00  0.00    -0.175 OA
ATOM     32  O   UNL     1       4.116  -0.060  26.203  0.00  0.00    -0.175 OA
ATOM     33  C   UNL     1       4.098   2.155  27.561  0.00  0.00    +0.194 C 
ENDBRANCH  29  30
ENDBRANCH   1  29
TORSDOF 9
ENDMDL
MODEL 4
REMARK VINA RESULT:      -6.4      2.965      8.155
REMARK  Name = 
REMARK  13 active torsions:
REMARK  status: ('A' for Active; 'I' for Inactive)
REMARK    1  A    between atoms: C_2  and  C_3
REMARK    2  A    between atoms: C_2  and  N_8
REMARK    3  A    between atoms: C_2  and  C_23
REMARK    4  A    between atoms: C_3  and  S_4
REMARK    5  A    between atoms: S_4  and  C_5
REMARK    6  A    between atoms: C_15  and  N_19
REMARK    7  A    between atoms: C_20  and  C_21
REMARK    8  A    between atoms: C_20  and  O_22
REMARK    9  A    between atoms: C_25  and  O_26
REMARK   10  A    between atoms: O_26  and  C_27
REMARK   11  A    between atoms: C_27  and  C_28
REMARK   12  A    between atoms: C_29  and  O_30
REMARK   13  A    between atoms: O_30  and  C_31
REMARK                            x       y       z     vdW  Elec       q    Type
REMARK                         _______ _______ _______ _____ _____    ______ ____
ROOT
ATOM      1  C   UNL     1       6.905   0.367  25.302  0.00  0.00    +0.136 C 
ENDROOT
BRANCH   1   2
ATOM      2  N   UNL     1       7.450  -0.969  24.988  0.00  0.00    -0.225 N 
ATOM      3  C   UNL     1       7.041  -1.860  24.015  0.00  0.00    +0.256 C 
ATOM      4  O   UNL     1       6.224  -1.660  23.130  0.00  0.00    -0.269 OA
ATOM      5  C   UNL     1       7.680  -3.171  24.315  0.00  0.00    +0.075 A 
ATOM      6  C   UNL     1       7.741  -4.403  23.657  0.00  0.00    +0.080 A 
ATOM      7  C   UNL     1       8.456  -5.421  24.328  0.00  0.00    +0.028 A 
ATOM      8  C   UNL     1       9.004  -5.245  25.615  0.00  0.00    +0.003 A 
ATOM      9  C   UNL     1       8.944  -4.010  26.233  0.00  0.00    +0.014 A 
ATOM     10  C   UNL     1       8.309  -3.003  25.539  0.00  0.00    +0.051 A 
ATOM     11  C   UNL     1       8.200  -1.614  25.936  0.00  0.00    +0.254 C 
ATOM     12  O   UNL     1       8.702  -1.162  26.948  0.00  0.00    -0.270 OA
BRANCH   6  13
ATOM     13  N   UNL     1       7.278  -4.549  22.338  0.00  0.00    -0.217 NA
ATOM     14  C   UNL     1       6.156  -5.067  21.966  0.00  0.00    +0.184 C 
ATOM     15  C   UNL     1       4.983  -5.639  22.699  0.00  0.00    +0.109 C 
BRANCH  14  16
ATOM     16  O   UNL     1       5.978  -5.169  20.635  0.00  0.00    -0.496 OA
ATOM     17  H   UNL     1       6.847  -5.376  20.250  0.00  0.00    +0.293 HD
ENDBRANCH  14  16
ENDBRANCH   6  13
ENDBRANCH   1   2
BRANCH   1  18
ATOM     18  C   UNL     1       7.240   1.485  24.307  0.00  0.00    -0.021 A 
ATOM     19  C   UNL     1       6.316   1.932  23.358  0.00  0.00    +0.009 A 
ATOM     20  C   UNL     1       6.555   3.092  22.611  0.00  0.00    +0.050 A 
ATOM     21  C   UNL     1       7.724   3.837  22.797  0.00  0.00    +0.162 A 
ATOM     22  C   UNL     1       8.706   3.369  23.689  0.00  0.00    +0.162 A 
ATOM     23  C   UNL     1       8.459   2.200  24.431  0.00  0.00    +0.055 A 
BRANCH  21  24
ATOM     24  O   UNL     1       7.989   5.030  22.168  0.00  0.00    -0.491 OA
ATOM     25  C   UNL     1       7.002   6.050  22.251  0.00  0.00    +0.277 C 
ENDBRANCH  21  24
BRANCH  22  26
ATOM     26  O   UNL     1       9.838   4.145  23.786  0.00  0.00    -0.489 OA
BRANCH  26  27
ATOM     27  C   UNL     1      11.090   3.593  23.392  0.00  0.00    +0.226 C 
ATOM     28  C   UNL     1      12.099   4.728  23.280  0.00  0.00    +0.048 C 
ENDBRANCH  26  27
ENDBRANCH  22  26
ENDBRANCH   1  18
BRANCH   1  29
ATOM     29  C   UNL     1       5.402   0.374  25.637  0.00  0.00    +0.193 C 
BRANCH  29  30
ATOM     30  S   UNL     1       5.138   0.347  27.403  0.00  0.00    -0.032 S 
ATOM     31  O   UNL     1       5.299  -1.022  27.856  0.00  0.00    -0.175 OA
ATOM     32  O   UNL     1       3.935   1.096  27.705  0.00  0.00    -0.175 OA
ATOM     33  C   UNL     1       6.504   1.270  28.060  0.00  0.00    +0.194 C 
ENDBRANCH  29  30
ENDBRANCH   1  29
TORSDOF 9
ENDMDL
MODEL 5
REMARK VINA RESULT:      -6.3      1.322      2.188
REMARK  Name = 
REMARK  13 active torsions:
REMARK  status: ('A' for Active; 'I' for Inactive)
REMARK    1  A    between atoms: C_2  and  C_3
REMARK    2  A    between atoms: C_2  and  N_8
REMARK    3  A    between atoms: C_2  and  C_23
REMARK    4  A    between atoms: C_3  and  S_4
REMARK    5  A    between atoms: S_4  and  C_5
REMARK    6  A    between atoms: C_15  and  N_19
REMARK    7  A    between atoms: C_20  and  C_21
REMARK    8  A    between atoms: C_20  and  O_22
REMARK    9  A    between atoms: C_25  and  O_26
REMARK   10  A    between atoms: O_26  and  C_27
REMARK   11  A    between atoms: C_27  and  C_28
REMARK   12  A    between atoms: C_29  and  O_30
REMARK   13  A    between atoms: O_30  and  C_31
REMARK                            x       y       z     vdW  Elec       q    Type
REMARK                         _______ _______ _______ _____ _____    ______ ____
ROOT
ATOM      1  C   UNL     1       6.804  -3.601  24.014  0.00  0.00    +0.136 C 
ENDROOT
BRANCH   1   2
ATOM      2  N   UNL     1       7.532  -2.351  24.314  0.00  0.00    -0.225 N 
ATOM      3  C   UNL     1       7.042  -1.061  24.371  0.00  0.00    +0.256 C 
ATOM      4  O   UNL     1       5.873  -0.713  24.310  0.00  0.00    -0.269 OA
ATOM      5  C   UNL     1       8.213  -0.141  24.385  0.00  0.00    +0.075 A 
ATOM      6  C   UNL     1       8.370   1.240  24.538  0.00  0.00    +0.080 A 
ATOM      7  C   UNL     1       9.699   1.717  24.458  0.00  0.00    +0.028 A 
ATOM      8  C   UNL     1      10.791   0.880  24.159  0.00  0.00    +0.003 A 
ATOM      9  C   UNL     1      10.608  -0.484  24.030  0.00  0.00    +0.014 A 
ATOM     10  C   UNL     1       9.320  -0.951  24.183  0.00  0.00    +0.051 A 
ATOM     11  C   UNL     1       8.896  -2.335  24.182  0.00  0.00    +0.254 C 
ATOM     12  O   UNL     1       9.662  -3.275  24.074  0.00  0.00    -0.270 OA
BRANCH   6  13
ATOM     13  N   UNL     1       7.296   2.057  24.929  0.00  0.00    -0.217 NA
ATOM     14  C   UNL     1       6.543   2.765  24.156  0.00  0.00    +0.184 C 
ATOM     15  C   UNL     1       6.476   2.970  22.675  0.00  0.00    +0.109 C 
BRANCH  14  16
ATOM     16  O   UNL     1       5.629   3.532  24.782  0.00  0.00    -0.496 OA
ATOM     17  H   UNL     1       6.066   3.909  25.565  0.00  0.00    +0.293 HD
ENDBRANCH  14  16
ENDBRANCH   6  13
ENDBRANCH   1   2
BRANCH   1  18
ATOM     18  C   UNL     1       5.818  -4.083  25.086  0.00  0.00    -0.021 A 
ATOM     19  C   UNL     1       4.477  -3.689  25.087  0.00  0.00    +0.009 A 
ATOM     20  C   UNL     1       3.546  -4.305  25.933  0.00  0.00    +0.050 A 
ATOM     21  C   UNL     1       3.932  -5.335  26.796  0.00  0.00    +0.162 A 
ATOM     22  C   UNL     1       5.290  -5.699  26.871  0.00  0.00    +0.162 A 
ATOM     23  C   UNL     1       6.218  -5.070  26.023  0.00  0.00    +0.055 A 
BRANCH  21  24
ATOM     24  O   UNL     1       3.065  -6.047  27.589  0.00  0.00    -0.491 OA
ATOM     25  C   UNL     1       2.353  -5.333  28.591  0.00  0.00    +0.277 C 
ENDBRANCH  21  24
BRANCH  22  26
ATOM     26  O   UNL     1       5.587  -6.697  27.770  0.00  0.00    -0.489 OA
BRANCH  26  27
ATOM     27  C   UNL     1       6.447  -6.406  28.867  0.00  0.00    +0.226 C 
ATOM     28  C   UNL     1       5.595  -6.282  30.123  0.00  0.00    +0.048 C 
ENDBRANCH  26  27
ENDBRANCH  22  26
ENDBRANCH   1  18
BRANCH   1  29
ATOM     29  C   UNL     1       6.147  -3.632  22.622  0.00  0.00    +0.193 C 
BRANCH  29  30
ATOM     30  S   UNL     1       6.263  -5.258  21.895  0.00  0.00    -0.032 S 
ATOM     31  O   UNL     1       7.473  -5.884  22.393  0.00  0.00    -0.175 OA
ATOM     32  O   UNL     1       6.010  -5.150  20.472  0.00  0.00    -0.175 OA
ATOM     33  C   UNL     1       4.898  -6.147  22.600  0.00  0.00    +0.194 C 
ENDBRANCH  29  30
ENDBRANCH   1  29
TORSDOF 9
ENDMDL
MODEL 6
REMARK VINA RESULT:      -6.2      2.634      7.244
REMARK  Name = 
REMARK  13 active torsions:
REMARK  status: ('A' for Active; 'I' for Inactive)
REMARK    1  A    between atoms: C_2  and  C_3
REMARK    2  A    between atoms: C_2  and  N_8
REMARK    3  A    between atoms: C_2  and  C_23
REMARK    4  A    between atoms: C_3  and  S_4
REMARK    5  A    between atoms: S_4  and  C_5
REMARK    6  A    between atoms: C_15  and  N_19
REMARK    7  A    between atoms: C_20  and  C_21
REMARK    8  A    between atoms: C_20  and  O_22
REMARK    9  A    between atoms: C_25  and  O_26
REMARK   10  A    between atoms: O_26  and  C_27
REMARK   11  A    between atoms: C_27  and  C_28
REMARK   12  A    between atoms: C_29  and  O_30
REMARK   13  A    between atoms: O_30  and  C_31
REMARK                            x       y       z     vdW  Elec       q    Type
REMARK                         _______ _______ _______ _____ _____    ______ ____
ROOT
ATOM      1  C   UNL     1       6.711  -3.716  24.015  0.00  0.00    +0.136 C 
ENDROOT
BRANCH   1   2
ATOM      2  N   UNL     1       5.875  -4.248  25.109  0.00  0.00    -0.225 N 
ATOM      3  C   UNL     1       6.141  -5.299  25.965  0.00  0.00    +0.256 C 
ATOM      4  O   UNL     1       7.190  -5.917  26.070  0.00  0.00    -0.269 OA
ATOM      5  C   UNL     1       4.869  -5.642  26.658  0.00  0.00    +0.075 A 
ATOM      6  C   UNL     1       4.523  -6.520  27.691  0.00  0.00    +0.080 A 
ATOM      7  C   UNL     1       3.152  -6.551  28.033  0.00  0.00    +0.028 A 
ATOM      8  C   UNL     1       2.175  -5.816  27.332  0.00  0.00    +0.003 A 
ATOM      9  C   UNL     1       2.549  -4.943  26.328  0.00  0.00    +0.014 A 
ATOM     10  C   UNL     1       3.896  -4.863  26.050  0.00  0.00    +0.051 A 
ATOM     11  C   UNL     1       4.535  -3.963  25.112  0.00  0.00    +0.254 C 
ATOM     12  O   UNL     1       3.932  -3.126  24.466  0.00  0.00    -0.270 OA
BRANCH   6  13
ATOM     13  N   UNL     1       5.507  -7.178  28.448  0.00  0.00    -0.217 NA
ATOM     14  C   UNL     1       5.996  -6.793  29.579  0.00  0.00    +0.184 C 
ATOM     15  C   UNL     1       5.731  -5.631  30.484  0.00  0.00    +0.109 C 
BRANCH  14  16
ATOM     16  O   UNL     1       6.993  -7.556  30.067  0.00  0.00    -0.496 OA
ATOM     17  H   UNL     1       7.825  -7.188  29.722  0.00  0.00    +0.293 HD
ENDBRANCH  14  16
ENDBRANCH   6  13
ENDBRANCH   1   2
BRANCH   1  18
ATOM     18  C   UNL     1       7.806  -2.723  24.423  0.00  0.00    -0.021 A 
ATOM     19  C   UNL     1       9.037  -2.666  23.761  0.00  0.00    +0.009 A 
ATOM     20  C   UNL     1       9.934  -1.616  23.997  0.00  0.00    +0.050 A 
ATOM     21  C   UNL     1       9.620  -0.594  24.898  0.00  0.00    +0.162 A 
ATOM     22  C   UNL     1       8.423  -0.666  25.634  0.00  0.00    +0.162 A 
ATOM     23  C   UNL     1       7.532  -1.727  25.395  0.00  0.00    +0.055 A 
BRANCH  21  24
ATOM     24  O   UNL     1      10.406   0.513  25.116  0.00  0.00    -0.491 OA
ATOM     25  C   UNL     1      10.493   1.473  24.072  0.00  0.00    +0.277 C 
ENDBRANCH  21  24
BRANCH  22  26
ATOM     26  O   UNL     1       8.210   0.363  26.522  0.00  0.00    -0.489 OA
BRANCH  26  27
ATOM     27  C   UNL     1       6.895   0.891  26.666  0.00  0.00    +0.226 C 
ATOM     28  C   UNL     1       6.386   0.531  28.056  0.00  0.00    +0.048 C 
ENDBRANCH  26  27
ENDBRANCH  22  26
ENDBRANCH   1  18
BRANCH   1  29
ATOM     29  C   UNL     1       7.282  -4.793  23.073  0.00  0.00    +0.193 C 
BRANCH  29  30
ATOM     30  S   UNL     1       6.183  -5.091  21.699  0.00  0.00    -0.032 S 
ATOM     31  O   UNL     1       6.868  -5.959  20.760  0.00  0.00    -0.175 OA
ATOM     32  O   UNL     1       5.619  -3.826  21.271  0.00  0.00    -0.175 OA
ATOM     33  C   UNL     1       4.857  -6.039  22.402  0.00  0.00    +0.194 C 
ENDBRANCH  29  30
ENDBRANCH   1  29
TORSDOF 9
ENDMDL
MODEL 7
REMARK VINA RESULT:      -6.2      1.571      1.785
REMARK  Name = 
REMARK  13 active torsions:
REMARK  status: ('A' for Active; 'I' for Inactive)
REMARK    1  A    between atoms: C_2  and  C_3
REMARK    2  A    between atoms: C_2  and  N_8
REMARK    3  A    between atoms: C_2  and  C_23
REMARK    4  A    between atoms: C_3  and  S_4
REMARK    5  A    between atoms: S_4  and  C_5
REMARK    6  A    between atoms: C_15  and  N_19
REMARK    7  A    between atoms: C_20  and  C_21
REMARK    8  A    between atoms: C_20  and  O_22
REMARK    9  A    between atoms: C_25  and  O_26
REMARK   10  A    between atoms: O_26  and  C_27
REMARK   11  A    between atoms: C_27  and  C_28
REMARK   12  A    between atoms: C_29  and  O_30
REMARK   13  A    between atoms: O_30  and  C_31
REMARK                            x       y       z     vdW  Elec       q    Type
REMARK                         _______ _______ _______ _____ _____    ______ ____
ROOT
ATOM      1  C   UNL     1       6.815  -3.596  24.229  0.00  0.00    +0.136 C 
ENDROOT
BRANCH   1   2
ATOM      2  N   UNL     1       7.541  -2.331  24.463  0.00  0.00    -0.225 N 
ATOM      3  C   UNL     1       7.028  -1.056  24.601  0.00  0.00    +0.256 C 
ATOM      4  O   UNL     1       5.851  -0.740  24.687  0.00  0.00    -0.269 OA
ATOM      5  C   UNL     1       8.168  -0.104  24.492  0.00  0.00    +0.075 A 
ATOM      6  C   UNL     1       8.306   1.279  24.651  0.00  0.00    +0.080 A 
ATOM      7  C   UNL     1       9.603   1.793  24.422  0.00  0.00    +0.028 A 
ATOM      8  C   UNL     1      10.673   0.992  23.979  0.00  0.00    +0.003 A 
ATOM      9  C   UNL     1      10.511  -0.374  23.848  0.00  0.00    +0.014 A 
ATOM     10  C   UNL     1       9.264  -0.879  24.145  0.00  0.00    +0.051 A 
ATOM     11  C   UNL     1       8.878  -2.275  24.169  0.00  0.00    +0.254 C 
ATOM     12  O   UNL     1       9.650  -3.191  23.953  0.00  0.00    -0.270 OA
BRANCH   6  13
ATOM     13  N   UNL     1       7.266   2.059  25.182  0.00  0.00    -0.217 NA
ATOM     14  C   UNL     1       6.423   2.777  24.519  0.00  0.00    +0.184 C 
ATOM     15  C   UNL     1       6.196   3.032  23.062  0.00  0.00    +0.109 C 
BRANCH  14  16
ATOM     16  O   UNL     1       5.568   3.503  25.265  0.00  0.00    -0.496 OA
ATOM     17  H   UNL     1       5.788   4.439  25.117  0.00  0.00    +0.293 HD
ENDBRANCH  14  16
ENDBRANCH   6  13
ENDBRANCH   1   2
BRANCH   1  18
ATOM     18  C   UNL     1       6.467  -4.416  25.477  0.00  0.00    -0.021 A 
ATOM     19  C   UNL     1       6.825  -3.996  26.761  0.00  0.00    +0.009 A 
ATOM     20  C   UNL     1       6.313  -4.636  27.898  0.00  0.00    +0.050 A 
ATOM     21  C   UNL     1       5.425  -5.709  27.777  0.00  0.00    +0.162 A 
ATOM     22  C   UNL     1       5.107  -6.202  26.498  0.00  0.00    +0.162 A 
ATOM     23  C   UNL     1       5.631  -5.557  25.364  0.00  0.00    +0.055 A 
BRANCH  21  24
ATOM     24  O   UNL     1       4.812  -6.329  28.840  0.00  0.00    -0.491 OA
ATOM     25  C   UNL     1       5.386  -6.146  30.127  0.00  0.00    +0.277 C 
ENDBRANCH  21  24
BRANCH  22  26
ATOM     26  O   UNL     1       4.254  -7.281  26.473  0.00  0.00    -0.489 OA
BRANCH  26  27
ATOM     27  C   UNL     1       2.908  -7.088  26.048  0.00  0.00    +0.226 C 
ATOM     28  C   UNL     1       2.725  -7.790  24.709  0.00  0.00    +0.048 C 
ENDBRANCH  26  27
ENDBRANCH  22  26
ENDBRANCH   1  18
BRANCH   1  29
ATOM     29  C   UNL     1       5.587  -3.460  23.311  0.00  0.00    +0.193 C 
BRANCH  29  30
ATOM     30  S   UNL     1       5.706  -4.564  21.912  0.00  0.00    -0.032 S 
ATOM     31  O   UNL     1       5.661  -3.760  20.705  0.00  0.00    -0.175 OA
ATOM     32  O   UNL     1       4.786  -5.665  22.110  0.00  0.00    -0.175 OA
ATOM     33  C   UNL     1       7.347  -5.230  22.025  0.00  0.00    +0.194 C 
ENDBRANCH  29  30
ENDBRANCH   1  29
TORSDOF 9
ENDMDL
MODEL 8
REMARK VINA RESULT:      -6.1      2.595      7.519
REMARK  Name = 
REMARK  13 active torsions:
REMARK  status: ('A' for Active; 'I' for Inactive)
REMARK    1  A    between atoms: C_2  and  C_3
REMARK    2  A    between atoms: C_2  and  N_8
REMARK    3  A    between atoms: C_2  and  C_23
REMARK    4  A    between atoms: C_3  and  S_4
REMARK    5  A    between atoms: S_4  and  C_5
REMARK    6  A    between atoms: C_15  and  N_19
REMARK    7  A    between atoms: C_20  and  C_21
REMARK    8  A    between atoms: C_20  and  O_22
REMARK    9  A    between atoms: C_25  and  O_26
REMARK   10  A    between atoms: O_26  and  C_27
REMARK   11  A    between atoms: C_27  and  C_28
REMARK   12  A    between atoms: C_29  and  O_30
REMARK   13  A    between atoms: O_30  and  C_31
REMARK                            x       y       z     vdW  Elec       q    Type
REMARK                         _______ _______ _______ _____ _____    ______ ____
ROOT
ATOM      1  C   UNL     1       7.635  -2.554  24.000  0.00  0.00    +0.136 C 
ENDROOT
BRANCH   1   2
ATOM      2  N   UNL     1       6.309  -2.986  24.485  0.00  0.00    -0.225 N 
ATOM      3  C   UNL     1       5.315  -3.656  23.798  0.00  0.00    +0.256 C 
ATOM      4  O   UNL     1       5.392  -4.141  22.680  0.00  0.00    -0.269 OA
ATOM      5  C   UNL     1       4.072  -3.566  24.612  0.00  0.00    +0.075 A 
ATOM      6  C   UNL     1       2.792  -4.120  24.508  0.00  0.00    +0.080 A 
ATOM      7  C   UNL     1       1.878  -3.740  25.517  0.00  0.00    +0.028 A 
ATOM      8  C   UNL     1       2.195  -2.800  26.517  0.00  0.00    +0.003 A 
ATOM      9  C   UNL     1       3.473  -2.283  26.606  0.00  0.00    +0.014 A 
ATOM     10  C   UNL     1       4.380  -2.716  25.663  0.00  0.00    +0.051 A 
ATOM     11  C   UNL     1       5.790  -2.389  25.604  0.00  0.00    +0.254 C 
ATOM     12  O   UNL     1       6.356  -1.696  26.430  0.00  0.00    -0.270 OA
BRANCH   6  13
ATOM     13  N   UNL     1       2.508  -5.126  23.569  0.00  0.00    -0.217 NA
ATOM     14  C   UNL     1       2.841  -6.370  23.646  0.00  0.00    +0.184 C 
ATOM     15  C   UNL     1       3.561  -7.191  24.669  0.00  0.00    +0.109 C 
BRANCH  14  16
ATOM     16  O   UNL     1       2.523  -7.122  22.574  0.00  0.00    -0.496 OA
ATOM     17  H   UNL     1       3.146  -6.882  21.867  0.00  0.00    +0.293 HD
ENDBRANCH  14  16
ENDBRANCH   6  13
ENDBRANCH   1   2
BRANCH   1  18
ATOM     18  C   UNL     1       7.760  -1.080  23.595  0.00  0.00    -0.021 A 
ATOM     19  C   UNL     1       6.786  -0.441  22.821  0.00  0.00    +0.009 A 
ATOM     20  C   UNL     1       6.802   0.949  22.646  0.00  0.00    +0.050 A 
ATOM     21  C   UNL     1       7.791   1.736  23.246  0.00  0.00    +0.162 A 
ATOM     22  C   UNL     1       8.826   1.112  23.967  0.00  0.00    +0.162 A 
ATOM     23  C   UNL     1       8.805  -0.284  24.131  0.00  0.00    +0.055 A 
BRANCH  21  24
ATOM     24  O   UNL     1       7.823   3.108  23.196  0.00  0.00    -0.491 OA
ATOM     25  C   UNL     1       6.923   3.755  22.306  0.00  0.00    +0.277 C 
ENDBRANCH  21  24
BRANCH  22  26
ATOM     26  O   UNL     1       9.775   1.957  24.494  0.00  0.00    -0.489 OA
BRANCH  26  27
ATOM     27  C   UNL     1      11.021   2.104  23.821  0.00  0.00    +0.226 C 
ATOM     28  C   UNL     1      11.193   3.570  23.446  0.00  0.00    +0.048 C 
ENDBRANCH  26  27
ENDBRANCH  22  26
ENDBRANCH   1  18
BRANCH   1  29
ATOM     29  C   UNL     1       8.806  -2.965  24.911  0.00  0.00    +0.193 C 
BRANCH  29  30
ATOM     30  S   UNL     1       9.021  -4.737  24.919  0.00  0.00    -0.032 S 
ATOM     31  O   UNL     1      10.415  -5.017  25.210  0.00  0.00    -0.175 OA
ATOM     32  O   UNL     1       8.379  -5.289  23.743  0.00  0.00    -0.175 OA
ATOM     33  C   UNL     1       8.084  -5.281  26.325  0.00  0.00    +0.194 C 
ENDBRANCH  29  30
ENDBRANCH   1  29
TORSDOF 9
ENDMDL
MODEL 9
REMARK VINA RESULT:      -6.1      2.478      7.468
REMARK  Name = 
REMARK  13 active torsions:
REMARK  status: ('A' for Active; 'I' for Inactive)
REMARK    1  A    between atoms: C_2  and  C_3
REMARK    2  A    between atoms: C_2  and  N_8
REMARK    3  A    between atoms: C_2  and  C_23
REMARK    4  A    between atoms: C_3  and  S_4
REMARK    5  A    between atoms: S_4  and  C_5
REMARK    6  A    between atoms: C_15  and  N_19
REMARK    7  A    between atoms: C_20  and  C_21
REMARK    8  A    between atoms: C_20  and  O_22
REMARK    9  A    between atoms: C_25  and  O_26
REMARK   10  A    between atoms: O_26  and  C_27
REMARK   11  A    between atoms: C_27  and  C_28
REMARK   12  A    between atoms: C_29  and  O_30
REMARK   13  A    between atoms: O_30  and  C_31
REMARK                            x       y       z     vdW  Elec       q    Type
REMARK                         _______ _______ _______ _____ _____    ______ ____
ROOT
ATOM      1  C   UNL     1       6.638  -2.248  24.004  0.00  0.00    +0.136 C 
ENDROOT
BRANCH   1   2
ATOM      2  N   UNL     1       6.156  -2.442  25.386  0.00  0.00    -0.225 N 
ATOM      3  C   UNL     1       6.276  -3.557  26.192  0.00  0.00    +0.256 C 
ATOM      4  O   UNL     1       6.925  -4.566  25.962  0.00  0.00    -0.269 OA
ATOM      5  C   UNL     1       5.356  -3.371  27.348  0.00  0.00    +0.075 A 
ATOM      6  C   UNL     1       5.111  -4.082  28.528  0.00  0.00    +0.080 A 
ATOM      7  C   UNL     1       4.103  -3.551  29.363  0.00  0.00    +0.028 A 
ATOM      8  C   UNL     1       3.328  -2.430  29.004  0.00  0.00    +0.003 A 
ATOM      9  C   UNL     1       3.605  -1.737  27.841  0.00  0.00    +0.014 A 
ATOM     10  C   UNL     1       4.640  -2.218  27.068  0.00  0.00    +0.051 A 
ATOM     11  C   UNL     1       5.171  -1.617  25.862  0.00  0.00    +0.254 C 
ATOM     12  O   UNL     1       4.769  -0.565  25.400  0.00  0.00    -0.270 OA
BRANCH   6  13
ATOM     13  N   UNL     1       5.945  -5.140  28.927  0.00  0.00    -0.217 NA
ATOM     14  C   UNL     1       5.789  -6.392  28.654  0.00  0.00    +0.184 C 
ATOM     15  C   UNL     1       4.786  -7.163  27.855  0.00  0.00    +0.109 C 
BRANCH  14  16
ATOM     16  O   UNL     1       6.682  -7.225  29.225  0.00  0.00    -0.496 OA
ATOM     17  H   UNL     1       6.873  -6.868  30.109  0.00  0.00    +0.293 HD
ENDBRANCH  14  16
ENDBRANCH   6  13
ENDBRANCH   1   2
BRANCH   1  18
ATOM     18  C   UNL     1       7.582  -1.060  23.777  0.00  0.00    -0.021 A 
ATOM     19  C   UNL     1       8.896  -1.058  24.256  0.00  0.00    +0.009 A 
ATOM     20  C   UNL     1       9.807  -0.073  23.856  0.00  0.00    +0.050 A 
ATOM     21  C   UNL     1       9.428   0.934  22.963  0.00  0.00    +0.162 A 
ATOM     22  C   UNL     1       8.092   1.002  22.525  0.00  0.00    +0.162 A 
ATOM     23  C   UNL     1       7.183   0.011  22.937  0.00  0.00    +0.055 A 
BRANCH  21  24
ATOM     24  O   UNL     1      10.285   1.881  22.456  0.00  0.00    -0.491 OA
ATOM     25  C   UNL     1      10.763   2.880  23.347  0.00  0.00    +0.277 C 
ENDBRANCH  21  24
BRANCH  22  26
ATOM     26  O   UNL     1       7.798   2.043  21.676  0.00  0.00    -0.489 OA
BRANCH  26  27
ATOM     27  C   UNL     1       6.751   2.944  22.022  0.00  0.00    +0.226 C 
ATOM     28  C   UNL     1       7.366   4.139  22.738  0.00  0.00    +0.048 C 
ENDBRANCH  26  27
ENDBRANCH  22  26
ENDBRANCH   1  18
BRANCH   1  29
ATOM     29  C   UNL     1       7.203  -3.520  23.345  0.00  0.00    +0.193 C 
BRANCH  29  30
ATOM     30  S   UNL     1       5.965  -4.328  22.344  0.00  0.00    -0.032 S 
ATOM     31  O   UNL     1       5.535  -3.391  21.323  0.00  0.00    -0.175 OA
ATOM     32  O   UNL     1       5.005  -4.969  23.219  0.00  0.00    -0.175 OA
ATOM     33  C   UNL     1       6.854  -5.620  21.514  0.00  0.00    +0.194 C 
ENDBRANCH  29  30
ENDBRANCH   1  29
TORSDOF 9
ENDMDL
