MODEL 1
REMARK VINA RESULT:      -3.9      0.000      0.000
REMARK  Name = 
REMARK  9 active torsions:
REMARK  status: ('A' for Active; 'I' for Inactive)
REMARK    1  A    between atoms: O_1  and  C_2
REMARK    2  A    between atoms: C_2  and  C_3
REMARK    3  A    between atoms: C_3  and  O_4
REMARK    4  A    between atoms: O_4  and  C_5
REMARK    5  A    between atoms: C_5  and  C_6
REMARK    6  A    between atoms: C_6  and  O_7
REMARK    7  A    between atoms: O_7  and  C_8
REMARK    8  A    between atoms: C_8  and  C_9
REMARK    9  A    between atoms: C_9  and  O_10
REMARK                            x       y       z     vdW  Elec       q    Type
REMARK                         _______ _______ _______ _____ _____    ______ ____
ROOT
ATOM      1  C   UNL     1      10.076  -2.111  23.441  0.00  0.00    +0.188 C 
ENDROOT
BRANCH   1   2
ATOM      2  O   UNL     1      10.187  -3.397  24.059  0.00  0.00    -0.375 OA
BRANCH   2   3
ATOM      3  C   UNL     1       8.948  -3.811  24.634  0.00  0.00    +0.187 C 
BRANCH   3   4
ATOM      4  C   UNL     1       9.065  -5.261  25.086  0.00  0.00    +0.184 C 
BRANCH   4   5
ATOM      5  O   UNL     1      10.418  -5.574  25.393  0.00  0.00    -0.393 OA
ATOM      6  H   UNL     1      10.415  -6.459  25.797  0.00  0.00    +0.209 HD
ENDBRANCH   4   5
ENDBRANCH   3   4
ENDBRANCH   2   3
ENDBRANCH   1   2
BRANCH   1   7
ATOM      7  C   UNL     1       8.789  -2.049  22.618  0.00  0.00    +0.188 C 
BRANCH   7   8
ATOM      8  O   UNL     1       8.488  -0.684  22.297  0.00  0.00    -0.375 OA
BRANCH   8   9
ATOM      9  C   UNL     1       9.492  -0.114  21.449  0.00  0.00    +0.187 C 
BRANCH   9  10
ATOM     10  C   UNL     1       9.907   1.229  22.038  0.00  0.00    +0.184 C 
BRANCH  10  11
ATOM     11  O   UNL     1       9.183   2.282  21.403  0.00  0.00    -0.393 OA
ATOM     12  H   UNL     1       8.458   2.496  22.024  0.00  0.00    +0.209 HD
ENDBRANCH  10  11
ENDBRANCH   9  10
ENDBRANCH   8   9
ENDBRANCH   7   8
ENDBRANCH   1   7
TORSDOF 9
ENDMDL
MODEL 2
REMARK VINA RESULT:      -3.8      2.398      3.543
REMARK  Name = 
REMARK  9 active torsions:
REMARK  status: ('A' for Active; 'I' for Inactive)
REMARK    1  A    between atoms: O_1  and  C_2
REMARK    2  A    between atoms: C_2  and  C_3
REMARK    3  A    between atoms: C_3  and  O_4
REMARK    4  A    between atoms: O_4  and  C_5
REMARK    5  A    between atoms: C_5  and  C_6
REMARK    6  A    between atoms: C_6  and  O_7
REMARK    7  A    between atoms: O_7  and  C_8
REMARK    8  A    between atoms: C_8  and  C_9
REMARK    9  A    between atoms: C_9  and  O_10
REMARK                            x       y       z     vdW  Elec       q    Type
REMARK                         _______ _______ _______ _____ _____    ______ ____
ROOT
ATOM      1  C   UNL     1       9.500  -0.542  24.706  0.00  0.00    +0.188 C 
ENDROOT
BRANCH   1   2
ATOM      2  O   UNL     1       9.925  -1.814  24.206  0.00  0.00    -0.375 OA
BRANCH   2   3
ATOM      3  C   UNL     1      10.386  -1.721  22.860  0.00  0.00    +0.187 C 
BRANCH   3   4
ATOM      4  C   UNL     1       9.189  -1.566  21.930  0.00  0.00    +0.184 C 
BRANCH   4   5
ATOM      5  O   UNL     1       9.473  -0.609  20.917  0.00  0.00    -0.393 OA
ATOM      6  H   UNL     1       8.616  -0.329  20.549  0.00  0.00    +0.209 HD
ENDBRANCH   4   5
ENDBRANCH   3   4
ENDBRANCH   2   3
ENDBRANCH   1   2
BRANCH   1   7
ATOM      7  C   UNL     1      10.697   0.408  24.767  0.00  0.00    +0.188 C 
BRANCH   7   8
ATOM      8  O   UNL     1      10.307   1.706  24.297  0.00  0.00    -0.375 OA
BRANCH   8   9
ATOM      9  C   UNL     1       8.980   1.688  23.758  0.00  0.00    +0.187 C 
BRANCH   9  10
ATOM     10  C   UNL     1       8.963   2.554  22.503  0.00  0.00    +0.184 C 
BRANCH  10  11
ATOM     11  O   UNL     1       9.980   2.121  21.601  0.00  0.00    -0.393 OA
ATOM     12  H   UNL     1       9.757   1.190  21.401  0.00  0.00    +0.209 HD
ENDBRANCH  10  11
ENDBRANCH   9  10
ENDBRANCH   8   9
ENDBRANCH   7   8
ENDBRANCH   1   7
TORSDOF 9
ENDMDL
MODEL 3
REMARK VINA RESULT:      -3.8      0.811      5.796
REMARK  Name = 
REMARK  9 active torsions:
REMARK  status: ('A' for Active; 'I' for Inactive)
REMARK    1  A    between atoms: O_1  and  C_2
REMARK    2  A    between atoms: C_2  and  C_3
REMARK    3  A    between atoms: C_3  and  O_4
REMARK    4  A    between atoms: O_4  and  C_5
REMARK    5  A    between atoms: C_5  and  C_6
REMARK    6  A    between atoms: C_6  and  O_7
REMARK    7  A    between atoms: O_7  and  C_8
REMARK    8  A    between atoms: C_8  and  C_9
REMARK    9  A    between atoms: C_9  and  O_10
REMARK                            x       y       z     vdW  Elec       q    Type
REMARK                         _______ _______ _______ _____ _____    ______ ____
ROOT
ATOM      1  C   UNL     1      10.020  -1.339  23.342  0.00  0.00    +0.188 C 
ENDROOT
BRANCH   1   2
ATOM      2  O   UNL     1       9.258  -1.356  22.130  0.00  0.00    -0.375 OA
BRANCH   2   3
ATOM      3  C   UNL     1       9.480  -0.179  21.355  0.00  0.00    +0.187 C 
BRANCH   3   4
ATOM      4  C   UNL     1       9.958   0.941  22.269  0.00  0.00    +0.184 C 
BRANCH   4   5
ATOM      5  O   UNL     1      10.043   2.164  21.547  0.00  0.00    -0.393 OA
ATOM      6  H   UNL     1       9.471   2.066  20.766  0.00  0.00    +0.209 HD
ENDBRANCH   4   5
ENDBRANCH   3   4
ENDBRANCH   2   3
ENDBRANCH   1   2
BRANCH   1   7
ATOM      7  C   UNL     1       9.381  -2.283  24.360  0.00  0.00    +0.188 C 
BRANCH   7   8
ATOM      8  O   UNL     1       9.573  -3.642  23.944  0.00  0.00    -0.375 OA
BRANCH   8   9
ATOM      9  C   UNL     1       8.533  -4.492  24.444  0.00  0.00    +0.187 C 
BRANCH   9  10
ATOM     10  C   UNL     1       9.082  -5.264  25.639  0.00  0.00    +0.184 C 
BRANCH  10  11
ATOM     11  O   UNL     1      10.461  -5.563  25.431  0.00  0.00    -0.393 OA
ATOM     12  H   UNL     1      10.877  -5.442  26.309  0.00  0.00    +0.209 HD
ENDBRANCH  10  11
ENDBRANCH   9  10
ENDBRANCH   8   9
ENDBRANCH   7   8
ENDBRANCH   1   7
TORSDOF 9
ENDMDL
MODEL 4
REMARK VINA RESULT:      -3.8      3.453      5.499
REMARK  Name = 
REMARK  9 active torsions:
REMARK  status: ('A' for Active; 'I' for Inactive)
REMARK    1  A    between atoms: O_1  and  C_2
REMARK    2  A    between atoms: C_2  and  C_3
REMARK    3  A    between atoms: C_3  and  O_4
REMARK    4  A    between atoms: O_4  and  C_5
REMARK    5  A    between atoms: C_5  and  C_6
REMARK    6  A    between atoms: C_6  and  O_7
REMARK    7  A    between atoms: O_7  and  C_8
REMARK    8  A    between atoms: C_8  and  C_9
REMARK    9  A    between atoms: C_9  and  O_10
REMARK                            x       y       z     vdW  Elec       q    Type
REMARK                         _______ _______ _______ _____ _____    ______ ____
ROOT
ATOM      1  C   UNL     1      10.206   2.472  23.815  0.00  0.00    +0.188 C 
ENDROOT
BRANCH   1   2
ATOM      2  O   UNL     1       9.403   1.530  23.097  0.00  0.00    -0.375 OA
BRANCH   2   3
ATOM      3  C   UNL     1      10.120   0.327  22.827  0.00  0.00    +0.187 C 
BRANCH   3   4
ATOM      4  C   UNL     1       9.489  -0.376  21.632  0.00  0.00    +0.184 C 
BRANCH   4   5
ATOM      5  O   UNL     1      10.143  -1.616  21.389  0.00  0.00    -0.393 OA
ATOM      6  H   UNL     1      10.615  -1.847  22.208  0.00  0.00    +0.209 HD
ENDBRANCH   4   5
ENDBRANCH   3   4
ENDBRANCH   2   3
ENDBRANCH   1   2
BRANCH   1   7
ATOM      7  C   UNL     1       9.629   3.876  23.637  0.00  0.00    +0.188 C 
BRANCH   7   8
ATOM      8  O   UNL     1      10.681   4.846  23.735  0.00  0.00    -0.375 OA
BRANCH   8   9
ATOM      9  C   UNL     1      11.950   4.274  23.397  0.00  0.00    +0.187 C 
BRANCH   9  10
ATOM     10  C   UNL     1      12.840   5.381  22.843  0.00  0.00    +0.184 C 
BRANCH  10  11
ATOM     11  O   UNL     1      14.208   5.087  23.121  0.00  0.00    -0.393 OA
ATOM     12  H   UNL     1      14.186   4.543  23.934  0.00  0.00    +0.209 HD
ENDBRANCH  10  11
ENDBRANCH   9  10
ENDBRANCH   8   9
ENDBRANCH   7   8
ENDBRANCH   1   7
TORSDOF 9
ENDMDL
MODEL 5
REMARK VINA RESULT:      -3.6      1.207      5.837
REMARK  Name = 
REMARK  9 active torsions:
REMARK  status: ('A' for Active; 'I' for Inactive)
REMARK    1  A    between atoms: O_1  and  C_2
REMARK    2  A    between atoms: C_2  and  C_3
REMARK    3  A    between atoms: C_3  and  O_4
REMARK    4  A    between atoms: O_4  and  C_5
REMARK    5  A    between atoms: C_5  and  C_6
REMARK    6  A    between atoms: C_6  and  O_7
REMARK    7  A    between atoms: O_7  and  C_8
REMARK    8  A    between atoms: C_8  and  C_9
REMARK    9  A    between atoms: C_9  and  O_10
REMARK                            x       y       z     vdW  Elec       q    Type
REMARK                         _______ _______ _______ _____ _____    ______ ____
ROOT
ATOM      1  C   UNL     1       9.369  -0.894  24.031  0.00  0.00    +0.188 C 
ENDROOT
BRANCH   1   2
ATOM      2  O   UNL     1      10.239   0.243  24.034  0.00  0.00    -0.375 OA
BRANCH   2   3
ATOM      3  C   UNL     1       9.573   1.413  23.562  0.00  0.00    +0.187 C 
BRANCH   3   4
ATOM      4  C   UNL     1      10.132   1.790  22.195  0.00  0.00    +0.184 C 
BRANCH   4   5
ATOM      5  O   UNL     1       9.076   2.166  21.319  0.00  0.00    -0.393 OA
ATOM      6  H   UNL     1       8.302   2.350  21.878  0.00  0.00    +0.209 HD
ENDBRANCH   4   5
ENDBRANCH   3   4
ENDBRANCH   2   3
ENDBRANCH   1   2
BRANCH   1   7
ATOM      7  C   UNL     1       9.960  -1.987  23.139  0.00  0.00    +0.188 C 
BRANCH   7   8
ATOM      8  O   UNL     1      10.198  -3.168  23.917  0.00  0.00    -0.375 OA
BRANCH   8   9
ATOM      9  C   UNL     1       8.984  -3.668  24.490  0.00  0.00    +0.187 C 
BRANCH   9  10
ATOM     10  C   UNL     1       9.348  -4.677  25.574  0.00  0.00    +0.184 C 
BRANCH  10  11
ATOM     11  O   UNL     1      10.467  -5.457  25.154  0.00  0.00    -0.393 OA
ATOM     12  H   UNL     1      11.245  -5.001  25.534  0.00  0.00    +0.209 HD
ENDBRANCH  10  11
ENDBRANCH   9  10
ENDBRANCH   8   9
ENDBRANCH   7   8
ENDBRANCH   1   7
TORSDOF 9
ENDMDL
MODEL 6
REMARK VINA RESULT:      -3.6      2.727      3.804
REMARK  Name = 
REMARK  9 active torsions:
REMARK  status: ('A' for Active; 'I' for Inactive)
REMARK    1  A    between atoms: O_1  and  C_2
REMARK    2  A    between atoms: C_2  and  C_3
REMARK    3  A    between atoms: C_3  and  O_4
REMARK    4  A    between atoms: O_4  and  C_5
REMARK    5  A    between atoms: C_5  and  C_6
REMARK    6  A    between atoms: C_6  and  O_7
REMARK    7  A    between atoms: O_7  and  C_8
REMARK    8  A    between atoms: C_8  and  C_9
REMARK    9  A    between atoms: C_9  and  O_10
REMARK                            x       y       z     vdW  Elec       q    Type
REMARK                         _______ _______ _______ _____ _____    ______ ____
ROOT
ATOM      1  C   UNL     1       8.226  -5.001  24.931  0.00  0.00    +0.188 C 
ENDROOT
BRANCH   1   2
ATOM      2  O   UNL     1       8.320  -5.310  23.536  0.00  0.00    -0.375 OA
BRANCH   2   3
ATOM      3  C   UNL     1       7.101  -5.027  22.853  0.00  0.00    +0.187 C 
BRANCH   3   4
ATOM      4  C   UNL     1       6.987  -5.933  21.633  0.00  0.00    +0.184 C 
BRANCH   4   5
ATOM      5  O   UNL     1       5.641  -6.359  21.460  0.00  0.00    -0.393 OA
ATOM      6  H   UNL     1       5.288  -6.534  22.350  0.00  0.00    +0.209 HD
ENDBRANCH   4   5
ENDBRANCH   3   4
ENDBRANCH   2   3
ENDBRANCH   1   2
BRANCH   1   7
ATOM      7  C   UNL     1       9.158  -3.834  25.260  0.00  0.00    +0.188 C 
BRANCH   7   8
ATOM      8  O   UNL     1       9.932  -3.494  24.102  0.00  0.00    -0.375 OA
BRANCH   8   9
ATOM      9  C   UNL     1       9.864  -2.090  23.824  0.00  0.00    +0.187 C 
BRANCH   9  10
ATOM     10  C   UNL     1       9.191  -1.904  22.468  0.00  0.00    +0.184 C 
BRANCH  10  11
ATOM     11  O   UNL     1      10.170  -1.583  21.482  0.00  0.00    -0.393 OA
ATOM     12  H   UNL     1       9.680  -1.082  20.798  0.00  0.00    +0.209 HD
ENDBRANCH  10  11
ENDBRANCH   9  10
ENDBRANCH   8   9
ENDBRANCH   7   8
ENDBRANCH   1   7
TORSDOF 9
ENDMDL
MODEL 7
REMARK VINA RESULT:      -3.6      2.001      2.551
REMARK  Name = 
REMARK  9 active torsions:
REMARK  status: ('A' for Active; 'I' for Inactive)
REMARK    1  A    between atoms: O_1  and  C_2
REMARK    2  A    between atoms: C_2  and  C_3
REMARK    3  A    between atoms: C_3  and  O_4
REMARK    4  A    between atoms: O_4  and  C_5
REMARK    5  A    between atoms: C_5  and  C_6
REMARK    6  A    between atoms: C_6  and  O_7
REMARK    7  A    between atoms: O_7  and  C_8
REMARK    8  A    between atoms: C_8  and  C_9
REMARK    9  A    between atoms: C_9  and  O_10
REMARK                            x       y       z     vdW  Elec       q    Type
REMARK                         _______ _______ _______ _____ _____    ______ ____
ROOT
ATOM      1  C   UNL     1       8.284  -3.863  24.135  0.00  0.00    +0.188 C 
ENDROOT
BRANCH   1   2
ATOM      2  O   UNL     1       9.171  -4.978  24.271  0.00  0.00    -0.375 OA
BRANCH   2   3
ATOM      3  C   UNL     1       9.543  -5.188  25.632  0.00  0.00    +0.187 C 
BRANCH   3   4
ATOM      4  C   UNL     1       8.391  -4.771  26.537  0.00  0.00    +0.184 C 
BRANCH   4   5
ATOM      5  O   UNL     1       8.052  -5.832  27.422  0.00  0.00    -0.393 OA
ATOM      6  H   UNL     1       8.138  -5.480  28.325  0.00  0.00    +0.209 HD
ENDBRANCH   4   5
ENDBRANCH   3   4
ENDBRANCH   2   3
ENDBRANCH   1   2
BRANCH   1   7
ATOM      7  C   UNL     1       7.500  -3.990  22.828  0.00  0.00    +0.188 C 
BRANCH   7   8
ATOM      8  O   UNL     1       7.568  -2.754  22.103  0.00  0.00    -0.375 OA
BRANCH   8   9
ATOM      9  C   UNL     1       8.262  -1.749  22.851  0.00  0.00    +0.187 C 
BRANCH   9  10
ATOM     10  C   UNL     1       9.118  -0.940  21.883  0.00  0.00    +0.184 C 
BRANCH  10  11
ATOM     11  O   UNL     1      10.325  -1.643  21.599  0.00  0.00    -0.393 OA
ATOM     12  H   UNL     1      10.177  -2.050  20.721  0.00  0.00    +0.209 HD
ENDBRANCH  10  11
ENDBRANCH   9  10
ENDBRANCH   8   9
ENDBRANCH   7   8
ENDBRANCH   1   7
TORSDOF 9
ENDMDL
MODEL 8
REMARK VINA RESULT:      -3.5      4.523      6.705
REMARK  Name = 
REMARK  9 active torsions:
REMARK  status: ('A' for Active; 'I' for Inactive)
REMARK    1  A    between atoms: O_1  and  C_2
REMARK    2  A    between atoms: C_2  and  C_3
REMARK    3  A    between atoms: C_3  and  O_4
REMARK    4  A    between atoms: O_4  and  C_5
REMARK    5  A    between atoms: C_5  and  C_6
REMARK    6  A    between atoms: C_6  and  O_7
REMARK    7  A    between atoms: O_7  and  C_8
REMARK    8  A    between atoms: C_8  and  C_9
REMARK    9  A    between atoms: C_9  and  O_10
REMARK                            x       y       z     vdW  Elec       q    Type
REMARK                         _______ _______ _______ _____ _____    ______ ____
ROOT
ATOM      1  C   UNL     1       8.071  -4.702  24.959  0.00  0.00    +0.188 C 
ENDROOT
BRANCH   1   2
ATOM      2  O   UNL     1       8.282  -5.343  23.697  0.00  0.00    -0.375 OA
BRANCH   2   3
ATOM      3  C   UNL     1       7.307  -4.942  22.736  0.00  0.00    +0.187 C 
BRANCH   3   4
ATOM      4  C   UNL     1       7.061  -6.087  21.762  0.00  0.00    +0.184 C 
BRANCH   4   5
ATOM      5  O   UNL     1       5.666  -6.255  21.541  0.00  0.00    -0.393 OA
ATOM      6  H   UNL     1       5.570  -6.995  20.917  0.00  0.00    +0.209 HD
ENDBRANCH   4   5
ENDBRANCH   3   4
ENDBRANCH   2   3
ENDBRANCH   1   2
BRANCH   1   7
ATOM      7  C   UNL     1       6.613  -4.878  25.384  0.00  0.00    +0.188 C 
BRANCH   7   8
ATOM      8  O   UNL     1       6.468  -6.106  26.111  0.00  0.00    -0.375 OA
BRANCH   8   9
ATOM      9  C   UNL     1       5.096  -6.514  26.175  0.00  0.00    +0.187 C 
BRANCH   9  10
ATOM     10  C   UNL     1       4.465  -6.283  24.806  0.00  0.00    +0.184 C 
BRANCH  10  11
ATOM     11  O   UNL     1       4.579  -7.463  24.014  0.00  0.00    -0.393 OA
ATOM     12  H   UNL     1       4.556  -8.200  24.658  0.00  0.00    +0.209 HD
ENDBRANCH  10  11
ENDBRANCH   9  10
ENDBRANCH   8   9
ENDBRANCH   7   8
ENDBRANCH   1   7
TORSDOF 9
ENDMDL
MODEL 9
REMARK VINA RESULT:      -3.5      4.302      6.477
REMARK  Name = 
REMARK  9 active torsions:
REMARK  status: ('A' for Active; 'I' for Inactive)
REMARK    1  A    between atoms: O_1  and  C_2
REMARK    2  A    between atoms: C_2  and  C_3
REMARK    3  A    between atoms: C_3  and  O_4
REMARK    4  A    between atoms: O_4  and  C_5
REMARK    5  A    between atoms: C_5  and  C_6
REMARK    6  A    between atoms: C_6  and  O_7
REMARK    7  A    between atoms: O_7  and  C_8
REMARK    8  A    between atoms: C_8  and  C_9
REMARK    9  A    between atoms: C_9  and  O_10
REMARK                            x       y       z     vdW  Elec       q    Type
REMARK                         _______ _______ _______ _____ _____    ______ ____
ROOT
ATOM      1  C   UNL     1       9.162   4.225  23.752  0.00  0.00    +0.188 C 
ENDROOT
BRANCH   1   2
ATOM      2  O   UNL     1       9.419   3.052  24.530  0.00  0.00    -0.375 OA
BRANCH   2   3
ATOM      3  C   UNL     1       9.773   1.943  23.706  0.00  0.00    +0.187 C 
BRANCH   3   4
ATOM      4  C   UNL     1      10.538   0.922  24.540  0.00  0.00    +0.184 C 
BRANCH   4   5
ATOM      5  O   UNL     1       9.760   0.520  25.661  0.00  0.00    -0.393 OA
ATOM      6  H   UNL     1      10.157   0.944  26.442  0.00  0.00    +0.209 HD
ENDBRANCH   4   5
ENDBRANCH   3   4
ENDBRANCH   2   3
ENDBRANCH   1   2
BRANCH   1   7
ATOM      7  C   UNL     1       9.712   5.452  24.479  0.00  0.00    +0.188 C 
BRANCH   7   8
ATOM      8  O   UNL     1      10.641   6.139  23.630  0.00  0.00    -0.375 OA
BRANCH   8   9
ATOM      9  C   UNL     1      11.994   5.893  24.031  0.00  0.00    +0.187 C 
BRANCH   9  10
ATOM     10  C   UNL     1      12.735   5.268  22.854  0.00  0.00    +0.184 C 
BRANCH  10  11
ATOM     11  O   UNL     1      14.115   5.112  23.179  0.00  0.00    -0.393 OA
ATOM     12  H   UNL     1      14.118   4.696  24.064  0.00  0.00    +0.209 HD
ENDBRANCH  10  11
ENDBRANCH   9  10
ENDBRANCH   8   9
ENDBRANCH   7   8
ENDBRANCH   1   7
TORSDOF 9
ENDMDL
