MODEL 1
REMARK VINA RESULT:      -6.5      0.000      0.000
REMARK  Name = 
REMARK  13 active torsions:
REMARK  status: ('A' for Active; 'I' for Inactive)
REMARK    1  A    between atoms: C_1  and  C_2
REMARK    2  A    between atoms: C_2  and  C_3
REMARK    3  A    between atoms: C_5  and  C_13
REMARK    4  A    between atoms: C_8  and  C_10
REMARK    5  A    between atoms: C_13  and  N_15
REMARK    6  A    between atoms: C_13  and  C_25
REMARK    7  A    between atoms: C_16  and  C_18
REMARK    8  A    between atoms: C_18  and  C_19
REMARK    9  A    between atoms: C_25  and  O_27
REMARK   10  A    between atoms: O_27  and  C_28
REMARK   11  A    between atoms: C_28  and  C_29
REMARK   12  A    between atoms: C_29  and  N_31
REMARK   13  A    between atoms: C_29  and  C_32
REMARK                            x       y       z     vdW  Elec       q    Type
REMARK                         _______ _______ _______ _____ _____    ______ ____
ROOT
ATOM      1  C   UNK A   0       8.596  -3.416  25.969  0.00  0.00    +0.209 C 
ENDROOT
BRANCH   1   7
ATOM      2  C   UNK A   1       6.861   0.710  23.372  0.00  0.00    +0.024 C 
ATOM      3  C   UNK A   1       7.967   0.240  24.324  0.00  0.00    +0.033 C 
ATOM      4  C   UNK A   1       9.196  -0.429  23.672  0.00  0.00    +0.116 C 
ATOM      5  N   UNK A   1       9.598  -1.713  24.353  0.00  0.00    -0.294 NA
ATOM      6  H   UNK A   1       9.348  -2.432  23.654  0.00  0.00    +0.124 HD
ATOM      7  C   UNK A   0       8.839  -1.927  25.582  0.00  0.00    +0.144 C 
ATOM      8  S   UNK A   0       7.262  -1.033  25.421  0.00  0.00    -0.131 S 
ATOM      9  C   UNK A   1       8.401   1.414  25.218  0.00  0.00    +0.024 C 
BRANCH   4  10
ATOM     10  C   UNK A   1       8.973  -0.743  22.149  0.00  0.00    +0.060 C 
ATOM     11  O   UNK A   1       8.342  -1.811  21.897  0.00  0.00    -0.548 OA
ATOM     12  O   UNK A   1       9.468   0.119  21.358  0.00  0.00    -0.548 OA
ENDBRANCH   4  10
ENDBRANCH   1   7
BRANCH   1  13
ATOM     13  N   UNK A   0       7.185  -3.704  26.293  0.00  0.00    -0.300 N 
ATOM     14  H   UNK A   0       6.475  -3.083  25.913  0.00  0.00    +0.150 HD
ATOM     15  C   UNK A   0       6.852  -4.781  27.082  0.00  0.00    +0.218 C 
ATOM     16  O   UNK A   0       7.699  -5.565  27.513  0.00  0.00    -0.275 OA
BRANCH  15  17
ATOM     17  C   UNK A   0       5.370  -4.938  27.394  0.00  0.00    +0.130 C 
BRANCH  17  18
ATOM     18  C   UNK A   0       4.527  -5.411  26.222  0.00  0.00    -0.039 A 
ATOM     19  C   UNK A   0       3.539  -4.589  25.656  0.00  0.00    +0.004 A 
ATOM     20  C   UNK A   0       2.761  -5.036  24.583  0.00  0.00    +0.000 A 
ATOM     21  C   UNK A   0       2.945  -6.318  24.075  0.00  0.00    +0.000 A 
ATOM     22  C   UNK A   0       3.905  -7.155  24.641  0.00  0.00    +0.000 A 
ATOM     23  C   UNK A   0       4.690  -6.705  25.707  0.00  0.00    +0.004 A 
ENDBRANCH  17  18
ENDBRANCH  15  17
ENDBRANCH   1  13
BRANCH   1  24
ATOM     24  C   UNK A   1       9.233  -4.311  24.890  0.00  0.00    +0.330 C 
ATOM     25  O   UNK A   1      10.237  -4.987  25.103  0.00  0.00    -0.249 OA
BRANCH  24  26
ATOM     26  O   UNK A   1       8.583  -4.236  23.695  0.00  0.00    -0.461 OA
BRANCH  26  27
ATOM     27  C   UNK A   1       7.682  -5.329  23.376  0.00  0.00    +0.256 C 
BRANCH  27  28
ATOM     28  C   UNK A   1       6.306  -4.844  22.926  0.00  0.00    +0.135 C 
BRANCH  28  29
ATOM     29  C   UNK A   1       6.126  -4.945  21.366  0.00  0.00    +0.062 C 
ATOM     30  O   UNK A   1       5.680  -3.878  20.833  0.00  0.00    -0.548 OA
ATOM     31  O   UNK A   1       6.421  -6.042  20.814  0.00  0.00    -0.548 OA
ENDBRANCH  28  29
BRANCH  28  32
ATOM     32  N   UNK A   1       6.032  -3.427  23.350  0.00  0.00    -0.320 NA
ATOM     33  H   UNK A   1       5.229  -3.152  22.769  0.00  0.00    +0.119 HD
ATOM     34  H   UNK A   1       5.715  -3.456  24.314  0.00  0.00    +0.119 HD
ENDBRANCH  28  32
ENDBRANCH  27  28
ENDBRANCH  26  27
ENDBRANCH  24  26
ENDBRANCH   1  24
TORSDOF 11
ENDMDL
MODEL 2
REMARK VINA RESULT:      -6.3      2.255      7.058
REMARK  Name = 
REMARK  13 active torsions:
REMARK  status: ('A' for Active; 'I' for Inactive)
REMARK    1  A    between atoms: C_1  and  C_2
REMARK    2  A    between atoms: C_2  and  C_3
REMARK    3  A    between atoms: C_5  and  C_13
REMARK    4  A    between atoms: C_8  and  C_10
REMARK    5  A    between atoms: C_13  and  N_15
REMARK    6  A    between atoms: C_13  and  C_25
REMARK    7  A    between atoms: C_16  and  C_18
REMARK    8  A    between atoms: C_18  and  C_19
REMARK    9  A    between atoms: C_25  and  O_27
REMARK   10  A    between atoms: O_27  and  C_28
REMARK   11  A    between atoms: C_28  and  C_29
REMARK   12  A    between atoms: C_29  and  N_31
REMARK   13  A    between atoms: C_29  and  C_32
REMARK                            x       y       z     vdW  Elec       q    Type
REMARK                         _______ _______ _______ _____ _____    ______ ____
ROOT
ATOM      1  C   UNK A   0       5.477  -3.460  23.078  0.00  0.00    +0.209 C 
ENDROOT
BRANCH   1   7
ATOM      2  C   UNK A   1       2.401  -5.881  26.462  0.00  0.00    +0.024 C 
ATOM      3  C   UNK A   1       2.402  -5.157  25.111  0.00  0.00    +0.033 C 
ATOM      4  C   UNK A   1       2.754  -6.011  23.874  0.00  0.00    +0.116 C 
ATOM      5  N   UNK A   1       3.768  -5.352  22.973  0.00  0.00    -0.294 NA
ATOM      6  H   UNK A   1       4.608  -5.938  23.107  0.00  0.00    +0.124 HD
ATOM      7  C   UNK A   0       4.042  -3.980  23.390  0.00  0.00    +0.144 C 
ATOM      8  S   UNK A   0       3.681  -3.860  25.169  0.00  0.00    -0.131 S 
ATOM      9  C   UNK A   1       1.051  -4.449  24.912  0.00  0.00    +0.024 C 
BRANCH   4  10
ATOM     10  C   UNK A   1       3.305  -7.431  24.260  0.00  0.00    +0.060 C 
ATOM     11  O   UNK A   1       4.532  -7.476  24.567  0.00  0.00    -0.548 OA
ATOM     12  O   UNK A   1       2.441  -8.361  24.204  0.00  0.00    -0.548 OA
ENDBRANCH   4  10
ENDBRANCH   1   7
BRANCH   1  13
ATOM     13  N   UNK A   0       6.020  -2.594  24.144  0.00  0.00    -0.300 N 
ATOM     14  H   UNK A   0       5.920  -2.907  25.106  0.00  0.00    +0.150 HD
ATOM     15  C   UNK A   0       6.639  -1.405  23.834  0.00  0.00    +0.218 C 
ATOM     16  O   UNK A   0       6.804  -1.036  22.670  0.00  0.00    -0.275 OA
BRANCH  15  17
ATOM     17  C   UNK A   0       7.103  -0.572  25.021  0.00  0.00    +0.130 C 
BRANCH  17  18
ATOM     18  C   UNK A   0       8.348   0.257  24.760  0.00  0.00    -0.039 A 
ATOM     19  C   UNK A   0       8.263   1.630  24.474  0.00  0.00    +0.004 A 
ATOM     20  C   UNK A   0       9.414   2.384  24.226  0.00  0.00    +0.000 A 
ATOM     21  C   UNK A   0      10.664   1.774  24.238  0.00  0.00    +0.000 A 
ATOM     22  C   UNK A   0      10.764   0.407  24.496  0.00  0.00    +0.000 A 
ATOM     23  C   UNK A   0       9.614  -0.345  24.754  0.00  0.00    +0.004 A 
ENDBRANCH  17  18
ENDBRANCH  15  17
ENDBRANCH   1  13
BRANCH   1  24
ATOM     24  C   UNK A   1       6.355  -4.660  22.677  0.00  0.00    +0.330 C 
ATOM     25  O   UNK A   1       6.495  -5.013  21.509  0.00  0.00    -0.249 OA
BRANCH  24  26
ATOM     26  O   UNK A   1       6.914  -5.284  23.752  0.00  0.00    -0.461 OA
BRANCH  26  27
ATOM     27  C   UNK A   1       8.316  -5.006  24.006  0.00  0.00    +0.256 C 
BRANCH  27  28
ATOM     28  C   UNK A   1       8.791  -5.561  25.347  0.00  0.00    +0.135 C 
BRANCH  28  29
ATOM     29  C   UNK A   1       8.101  -4.838  26.563  0.00  0.00    +0.062 C 
ATOM     30  O   UNK A   1       7.728  -5.632  27.486  0.00  0.00    -0.548 OA
ATOM     31  O   UNK A   1       7.979  -3.583  26.502  0.00  0.00    -0.548 OA
ENDBRANCH  28  29
BRANCH  28  32
ATOM     32  N   UNK A   1      10.283  -5.461  25.512  0.00  0.00    -0.320 NA
ATOM     33  H   UNK A   1      10.608  -6.424  25.354  0.00  0.00    +0.119 HD
ATOM     34  H   UNK A   1      10.634  -4.893  24.748  0.00  0.00    +0.119 HD
ENDBRANCH  28  32
ENDBRANCH  27  28
ENDBRANCH  26  27
ENDBRANCH  24  26
ENDBRANCH   1  24
TORSDOF 11
ENDMDL
MODEL 3
REMARK VINA RESULT:      -6.2      2.804      6.863
REMARK  Name = 
REMARK  13 active torsions:
REMARK  status: ('A' for Active; 'I' for Inactive)
REMARK    1  A    between atoms: C_1  and  C_2
REMARK    2  A    between atoms: C_2  and  C_3
REMARK    3  A    between atoms: C_5  and  C_13
REMARK    4  A    between atoms: C_8  and  C_10
REMARK    5  A    between atoms: C_13  and  N_15
REMARK    6  A    between atoms: C_13  and  C_25
REMARK    7  A    between atoms: C_16  and  C_18
REMARK    8  A    between atoms: C_18  and  C_19
REMARK    9  A    between atoms: C_25  and  O_27
REMARK   10  A    between atoms: O_27  and  C_28
REMARK   11  A    between atoms: C_28  and  C_29
REMARK   12  A    between atoms: C_29  and  N_31
REMARK   13  A    between atoms: C_29  and  C_32
REMARK                            x       y       z     vdW  Elec       q    Type
REMARK                         _______ _______ _______ _____ _____    ______ ____
ROOT
ATOM      1  C   UNK A   0       6.352  -1.533  25.409  0.00  0.00    +0.209 C 
ENDROOT
BRANCH   1   7
ATOM      2  C   UNK A   1       5.180  -6.228  23.578  0.00  0.00    +0.024 C 
ATOM      3  C   UNK A   1       4.649  -4.796  23.699  0.00  0.00    +0.033 C 
ATOM      4  C   UNK A   1       5.101  -3.801  22.608  0.00  0.00    +0.116 C 
ATOM      5  N   UNK A   1       5.581  -2.487  23.171  0.00  0.00    -0.294 NA
ATOM      6  H   UNK A   1       6.598  -2.517  22.987  0.00  0.00    +0.124 HD
ATOM      7  C   UNK A   0       5.336  -2.399  24.608  0.00  0.00    +0.144 C 
ATOM      8  S   UNK A   0       5.271  -4.095  25.263  0.00  0.00    -0.131 S 
ATOM      9  C   UNK A   1       3.115  -4.828  23.799  0.00  0.00    +0.024 C 
BRANCH   4  10
ATOM     10  C   UNK A   1       6.244  -4.382  21.701  0.00  0.00    +0.060 C 
ATOM     11  O   UNK A   1       7.422  -4.228  22.139  0.00  0.00    -0.548 OA
ATOM     12  O   UNK A   1       5.837  -4.928  20.628  0.00  0.00    -0.548 OA
ENDBRANCH   4  10
ENDBRANCH   1   7
BRANCH   1  13
ATOM     13  N   UNK A   0       7.620  -1.315  24.684  0.00  0.00    -0.300 N 
ATOM     14  H   UNK A   0       7.652  -0.565  24.000  0.00  0.00    +0.150 HD
ATOM     15  C   UNK A   0       8.716  -2.108  24.936  0.00  0.00    +0.218 C 
ATOM     16  O   UNK A   0       8.702  -2.993  25.794  0.00  0.00    -0.275 OA
BRANCH  15  17
ATOM     17  C   UNK A   0       9.946  -1.826  24.084  0.00  0.00    +0.130 C 
BRANCH  17  18
ATOM     18  C   UNK A   0      10.065  -0.388  23.608  0.00  0.00    -0.039 A 
ATOM     19  C   UNK A   0      10.355   0.655  24.502  0.00  0.00    +0.004 A 
ATOM     20  C   UNK A   0      10.454   1.976  24.058  0.00  0.00    +0.000 A 
ATOM     21  C   UNK A   0      10.243   2.278  22.715  0.00  0.00    +0.000 A 
ATOM     22  C   UNK A   0       9.930   1.257  21.819  0.00  0.00    +0.000 A 
ATOM     23  C   UNK A   0       9.841  -0.066  22.262  0.00  0.00    +0.004 A 
ENDBRANCH  17  18
ENDBRANCH  15  17
ENDBRANCH   1  13
BRANCH   1  24
ATOM     24  C   UNK A   1       5.632  -0.262  25.897  0.00  0.00    +0.330 C 
ATOM     25  O   UNK A   1       5.551   0.034  27.087  0.00  0.00    -0.249 OA
BRANCH  24  26
ATOM     26  O   UNK A   1       5.083   0.455  24.877  0.00  0.00    -0.461 OA
BRANCH  26  27
ATOM     27  C   UNK A   1       5.618   1.787  24.658  0.00  0.00    +0.256 C 
BRANCH  27  28
ATOM     28  C   UNK A   1       6.468   1.878  23.393  0.00  0.00    +0.135 C 
BRANCH  28  29
ATOM     29  C   UNK A   1       6.073   3.115  22.504  0.00  0.00    +0.062 C 
ATOM     30  O   UNK A   1       7.073   3.737  22.021  0.00  0.00    -0.548 OA
ATOM     31  O   UNK A   1       4.843   3.369  22.371  0.00  0.00    -0.548 OA
ENDBRANCH  28  29
BRANCH  28  32
ATOM     32  N   UNK A   1       6.377   0.634  22.552  0.00  0.00    -0.320 NA
ATOM     33  H   UNK A   1       6.367  -0.126  23.246  0.00  0.00    +0.119 HD
ATOM     34  H   UNK A   1       5.469   0.642  22.097  0.00  0.00    +0.119 HD
ENDBRANCH  28  32
ENDBRANCH  27  28
ENDBRANCH  26  27
ENDBRANCH  24  26
ENDBRANCH   1  24
TORSDOF 11
ENDMDL
MODEL 4
REMARK VINA RESULT:      -6.2      2.595      7.146
REMARK  Name = 
REMARK  13 active torsions:
REMARK  status: ('A' for Active; 'I' for Inactive)
REMARK    1  A    between atoms: C_1  and  C_2
REMARK    2  A    between atoms: C_2  and  C_3
REMARK    3  A    between atoms: C_5  and  C_13
REMARK    4  A    between atoms: C_8  and  C_10
REMARK    5  A    between atoms: C_13  and  N_15
REMARK    6  A    between atoms: C_13  and  C_25
REMARK    7  A    between atoms: C_16  and  C_18
REMARK    8  A    between atoms: C_18  and  C_19
REMARK    9  A    between atoms: C_25  and  O_27
REMARK   10  A    between atoms: O_27  and  C_28
REMARK   11  A    between atoms: C_28  and  C_29
REMARK   12  A    between atoms: C_29  and  N_31
REMARK   13  A    between atoms: C_29  and  C_32
REMARK                            x       y       z     vdW  Elec       q    Type
REMARK                         _______ _______ _______ _____ _____    ______ ____
ROOT
ATOM      1  C   UNK A   0       8.736  -2.667  24.138  0.00  0.00    +0.209 C 
ENDROOT
BRANCH   1   7
ATOM      2  C   UNK A   1       4.192  -4.860  22.991  0.00  0.00    +0.024 C 
ATOM      3  C   UNK A   1       5.708  -5.068  22.900  0.00  0.00    +0.033 C 
ATOM      4  C   UNK A   1       6.394  -5.678  24.141  0.00  0.00    +0.116 C 
ATOM      5  N   UNK A   1       7.639  -4.934  24.552  0.00  0.00    -0.294 NA
ATOM      6  H   UNK A   1       7.355  -4.483  25.438  0.00  0.00    +0.124 HD
ATOM      7  C   UNK A   0       8.003  -3.917  23.569  0.00  0.00    +0.144 C 
ATOM      8  S   UNK A   0       6.488  -3.435  22.685  0.00  0.00    -0.131 S 
ATOM      9  C   UNK A   1       6.034  -5.892  21.643  0.00  0.00    +0.024 C 
BRANCH   4  10
ATOM     10  C   UNK A   1       5.438  -5.740  25.387  0.00  0.00    +0.060 C 
ATOM     11  O   UNK A   1       4.844  -6.844  25.566  0.00  0.00    -0.548 OA
ATOM     12  O   UNK A   1       5.374  -4.661  26.054  0.00  0.00    -0.548 OA
ENDBRANCH   4  10
ENDBRANCH   1   7
BRANCH   1  13
ATOM     13  N   UNK A   0       8.582  -1.471  23.285  0.00  0.00    -0.300 N 
ATOM     14  H   UNK A   0       7.745  -0.908  23.405  0.00  0.00    +0.150 HD
ATOM     15  C   UNK A   0       9.548  -1.140  22.363  0.00  0.00    +0.218 C 
ATOM     16  O   UNK A   0      10.587  -1.790  22.238  0.00  0.00    -0.275 OA
BRANCH  15  17
ATOM     17  C   UNK A   0       9.248   0.079  21.502  0.00  0.00    +0.130 C 
BRANCH  17  18
ATOM     18  C   UNK A   0       9.370   1.408  22.228  0.00  0.00    -0.039 A 
ATOM     19  C   UNK A   0      10.512   1.725  22.981  0.00  0.00    +0.004 A 
ATOM     20  C   UNK A   0      10.612   2.946  23.654  0.00  0.00    +0.000 A 
ATOM     21  C   UNK A   0       9.563   3.860  23.601  0.00  0.00    +0.000 A 
ATOM     22  C   UNK A   0       8.413   3.551  22.877  0.00  0.00    +0.000 A 
ATOM     23  C   UNK A   0       8.317   2.333  22.196  0.00  0.00    +0.004 A 
ENDBRANCH  17  18
ENDBRANCH  15  17
ENDBRANCH   1  13
BRANCH   1  24
ATOM     24  C   UNK A   1       8.331  -2.494  25.614  0.00  0.00    +0.330 C 
ATOM     25  O   UNK A   1       9.038  -2.882  26.541  0.00  0.00    -0.249 OA
BRANCH  24  26
ATOM     26  O   UNK A   1       7.112  -1.903  25.759  0.00  0.00    -0.461 OA
BRANCH  26  27
ATOM     27  C   UNK A   1       7.007  -0.869  26.773  0.00  0.00    +0.256 C 
BRANCH  27  28
ATOM     28  C   UNK A   1       6.907   0.532  26.174  0.00  0.00    +0.135 C 
BRANCH  28  29
ATOM     29  C   UNK A   1       5.861   0.599  25.001  0.00  0.00    +0.062 C 
ATOM     30  O   UNK A   1       4.678   0.876  25.385  0.00  0.00    -0.548 OA
ATOM     31  O   UNK A   1       6.278   0.367  23.832  0.00  0.00    -0.548 OA
ENDBRANCH  28  29
BRANCH  28  32
ATOM     32  N   UNK A   1       8.231   1.034  25.666  0.00  0.00    -0.320 NA
ATOM     33  H   UNK A   1       8.343   1.941  26.138  0.00  0.00    +0.119 HD
ATOM     34  H   UNK A   1       8.949   0.413  26.028  0.00  0.00    +0.119 HD
ENDBRANCH  28  32
ENDBRANCH  27  28
ENDBRANCH  26  27
ENDBRANCH  24  26
ENDBRANCH   1  24
TORSDOF 11
ENDMDL
MODEL 5
REMARK VINA RESULT:      -6.2      2.321      6.842
REMARK  Name = 
REMARK  13 active torsions:
REMARK  status: ('A' for Active; 'I' for Inactive)
REMARK    1  A    between atoms: C_1  and  C_2
REMARK    2  A    between atoms: C_2  and  C_3
REMARK    3  A    between atoms: C_5  and  C_13
REMARK    4  A    between atoms: C_8  and  C_10
REMARK    5  A    between atoms: C_13  and  N_15
REMARK    6  A    between atoms: C_13  and  C_25
REMARK    7  A    between atoms: C_16  and  C_18
REMARK    8  A    between atoms: C_18  and  C_19
REMARK    9  A    between atoms: C_25  and  O_27
REMARK   10  A    between atoms: O_27  and  C_28
REMARK   11  A    between atoms: C_28  and  C_29
REMARK   12  A    between atoms: C_29  and  N_31
REMARK   13  A    between atoms: C_29  and  C_32
REMARK                            x       y       z     vdW  Elec       q    Type
REMARK                         _______ _______ _______ _____ _____    ______ ____
ROOT
ATOM      1  C   UNK A   0       5.415  -2.411  23.980  0.00  0.00    +0.209 C 
ENDROOT
BRANCH   1   7
ATOM      2  C   UNK A   1       4.958  -6.625  26.948  0.00  0.00    +0.024 C 
ATOM      3  C   UNK A   1       4.182  -5.417  26.412  0.00  0.00    +0.033 C 
ATOM      4  C   UNK A   1       3.548  -5.574  25.013  0.00  0.00    +0.116 C 
ATOM      5  N   UNK A   1       3.819  -4.398  24.108  0.00  0.00    -0.294 NA
ATOM      6  H   UNK A   1       4.469  -4.792  23.408  0.00  0.00    +0.124 HD
ATOM      7  C   UNK A   0       4.465  -3.305  24.830  0.00  0.00    +0.144 C 
ATOM      8  S   UNK A   0       5.348  -4.026  26.248  0.00  0.00    -0.131 S 
ATOM      9  C   UNK A   1       3.120  -4.996  27.441  0.00  0.00    +0.024 C 
BRANCH   4  10
ATOM     10  C   UNK A   1       4.037  -6.871  24.273  0.00  0.00    +0.060 C 
ATOM     11  O   UNK A   1       5.066  -6.733  23.549  0.00  0.00    -0.548 OA
ATOM     12  O   UNK A   1       3.322  -7.899  24.490  0.00  0.00    -0.548 OA
ENDBRANCH   4  10
ENDBRANCH   1   7
BRANCH   1  13
ATOM     13  N   UNK A   0       6.426  -1.708  24.796  0.00  0.00    -0.300 N 
ATOM     14  H   UNK A   0       7.262  -2.221  25.061  0.00  0.00    +0.150 HD
ATOM     15  C   UNK A   0       6.232  -0.400  25.178  0.00  0.00    +0.218 C 
ATOM     16  O   UNK A   0       5.243   0.246  24.827  0.00  0.00    -0.275 OA
BRANCH  15  17
ATOM     17  C   UNK A   0       7.315   0.196  26.066  0.00  0.00    +0.130 C 
BRANCH  17  18
ATOM     18  C   UNK A   0       8.496   0.782  25.311  0.00  0.00    -0.039 A 
ATOM     19  C   UNK A   0       9.717   0.094  25.220  0.00  0.00    +0.004 A 
ATOM     20  C   UNK A   0      10.802   0.644  24.532  0.00  0.00    +0.000 A 
ATOM     21  C   UNK A   0      10.689   1.900  23.942  0.00  0.00    +0.000 A 
ATOM     22  C   UNK A   0       9.492   2.606  24.043  0.00  0.00    +0.000 A 
ATOM     23  C   UNK A   0       8.404   2.051  24.723  0.00  0.00    +0.004 A 
ENDBRANCH  17  18
ENDBRANCH  15  17
ENDBRANCH   1  13
BRANCH   1  24
ATOM     24  C   UNK A   1       5.963  -3.252  22.812  0.00  0.00    +0.330 C 
ATOM     25  O   UNK A   1       5.246  -3.664  21.904  0.00  0.00    -0.249 OA
BRANCH  24  26
ATOM     26  O   UNK A   1       7.298  -3.502  22.926  0.00  0.00    -0.461 OA
BRANCH  26  27
ATOM     27  C   UNK A   1       7.678  -4.871  23.225  0.00  0.00    +0.256 C 
BRANCH  27  28
ATOM     28  C   UNK A   1       8.506  -4.985  24.504  0.00  0.00    +0.135 C 
BRANCH  28  29
ATOM     29  C   UNK A   1       9.251  -3.642  24.845  0.00  0.00    +0.062 C 
ATOM     30  O   UNK A   1       8.808  -3.062  25.888  0.00  0.00    -0.548 OA
ATOM     31  O   UNK A   1      10.178  -3.275  24.069  0.00  0.00    -0.548 OA
ENDBRANCH  28  29
BRANCH  28  32
ATOM     32  N   UNK A   1       9.521  -6.093  24.431  0.00  0.00    -0.320 NA
ATOM     33  H   UNK A   1       9.186  -6.676  23.653  0.00  0.00    +0.119 HD
ATOM     34  H   UNK A   1      10.401  -5.678  24.143  0.00  0.00    +0.119 HD
ENDBRANCH  28  32
ENDBRANCH  27  28
ENDBRANCH  26  27
ENDBRANCH  24  26
ENDBRANCH   1  24
TORSDOF 11
ENDMDL
MODEL 6
REMARK VINA RESULT:      -6.1      2.015      6.553
REMARK  Name = 
REMARK  13 active torsions:
REMARK  status: ('A' for Active; 'I' for Inactive)
REMARK    1  A    between atoms: C_1  and  C_2
REMARK    2  A    between atoms: C_2  and  C_3
REMARK    3  A    between atoms: C_5  and  C_13
REMARK    4  A    between atoms: C_8  and  C_10
REMARK    5  A    between atoms: C_13  and  N_15
REMARK    6  A    between atoms: C_13  and  C_25
REMARK    7  A    between atoms: C_16  and  C_18
REMARK    8  A    between atoms: C_18  and  C_19
REMARK    9  A    between atoms: C_25  and  O_27
REMARK   10  A    between atoms: O_27  and  C_28
REMARK   11  A    between atoms: C_28  and  C_29
REMARK   12  A    between atoms: C_29  and  N_31
REMARK   13  A    between atoms: C_29  and  C_32
REMARK                            x       y       z     vdW  Elec       q    Type
REMARK                         _______ _______ _______ _____ _____    ______ ____
ROOT
ATOM      1  C   UNK A   0       7.539  -3.608  24.794  0.00  0.00    +0.209 C 
ENDROOT
BRANCH   1   7
ATOM      2  C   UNK A   1       4.796  -4.161  29.147  0.00  0.00    +0.024 C 
ATOM      3  C   UNK A   1       4.717  -4.315  27.624  0.00  0.00    +0.033 C 
ATOM      4  C   UNK A   1       5.229  -5.650  27.041  0.00  0.00    +0.116 C 
ATOM      5  N   UNK A   1       6.149  -5.464  25.861  0.00  0.00    -0.294 NA
ATOM      6  H   UNK A   1       7.068  -5.749  26.239  0.00  0.00    +0.124 HD
ATOM      7  C   UNK A   0       6.196  -4.068  25.435  0.00  0.00    +0.144 C 
ATOM      8  S   UNK A   0       5.776  -3.035  26.873  0.00  0.00    -0.131 S 
ATOM      9  C   UNK A   1       3.278  -4.039  27.158  0.00  0.00    +0.024 C 
BRANCH   4  10
ATOM     10  C   UNK A   1       5.985  -6.521  28.108  0.00  0.00    +0.060 C 
ATOM     11  O   UNK A   1       7.190  -6.198  28.322  0.00  0.00    -0.548 OA
ATOM     12  O   UNK A   1       5.286  -7.454  28.614  0.00  0.00    -0.548 OA
ENDBRANCH   4  10
ENDBRANCH   1   7
BRANCH   1  13
ATOM     13  N   UNK A   0       8.153  -2.466  25.501  0.00  0.00    -0.300 N 
ATOM     14  H   UNK A   0       7.984  -2.381  26.500  0.00  0.00    +0.150 HD
ATOM     15  C   UNK A   0       8.927  -1.554  24.821  0.00  0.00    +0.218 C 
ATOM     16  O   UNK A   0       9.174  -1.671  23.619  0.00  0.00    -0.275 OA
BRANCH  15  17
ATOM     17  C   UNK A   0       9.455  -0.389  25.647  0.00  0.00    +0.130 C 
BRANCH  17  18
ATOM     18  C   UNK A   0       9.487   0.940  24.912  0.00  0.00    -0.039 A 
ATOM     19  C   UNK A   0      10.624   1.350  24.197  0.00  0.00    +0.004 A 
ATOM     20  C   UNK A   0      10.650   2.579  23.531  0.00  0.00    +0.000 A 
ATOM     21  C   UNK A   0       9.546   3.425  23.588  0.00  0.00    +0.000 A 
ATOM     22  C   UNK A   0       8.419   3.044  24.313  0.00  0.00    +0.000 A 
ATOM     23  C   UNK A   0       8.390   1.810  24.971  0.00  0.00    +0.004 A 
ENDBRANCH  17  18
ENDBRANCH  15  17
ENDBRANCH   1  13
BRANCH   1  24
ATOM     24  C   UNK A   1       8.439  -4.843  24.606  0.00  0.00    +0.330 C 
ATOM     25  O   UNK A   1       9.281  -5.177  25.435  0.00  0.00    -0.249 OA
BRANCH  24  26
ATOM     26  O   UNK A   1       8.213  -5.482  23.423  0.00  0.00    -0.461 OA
BRANCH  26  27
ATOM     27  C   UNK A   1       7.721  -4.665  22.328  0.00  0.00    +0.256 C 
BRANCH  27  28
ATOM     28  C   UNK A   1       6.441  -5.222  21.710  0.00  0.00    +0.135 C 
BRANCH  28  29
ATOM     29  C   UNK A   1       5.183  -4.348  22.073  0.00  0.00    +0.062 C 
ATOM     30  O   UNK A   1       5.323  -3.112  21.799  0.00  0.00    -0.548 OA
ATOM     31  O   UNK A   1       4.194  -4.936  22.594  0.00  0.00    -0.548 OA
ENDBRANCH  28  29
BRANCH  28  32
ATOM     32  N   UNK A   1       6.175  -6.643  22.127  0.00  0.00    -0.320 NA
ATOM     33  H   UNK A   1       7.103  -7.084  22.085  0.00  0.00    +0.119 HD
ATOM     34  H   UNK A   1       5.892  -6.624  23.102  0.00  0.00    +0.119 HD
ENDBRANCH  28  32
ENDBRANCH  27  28
ENDBRANCH  26  27
ENDBRANCH  24  26
ENDBRANCH   1  24
TORSDOF 11
ENDMDL
MODEL 7
REMARK VINA RESULT:      -6.0      2.690      5.556
REMARK  Name = 
REMARK  13 active torsions:
REMARK  status: ('A' for Active; 'I' for Inactive)
REMARK    1  A    between atoms: C_1  and  C_2
REMARK    2  A    between atoms: C_2  and  C_3
REMARK    3  A    between atoms: C_5  and  C_13
REMARK    4  A    between atoms: C_8  and  C_10
REMARK    5  A    between atoms: C_13  and  N_15
REMARK    6  A    between atoms: C_13  and  C_25
REMARK    7  A    between atoms: C_16  and  C_18
REMARK    8  A    between atoms: C_18  and  C_19
REMARK    9  A    between atoms: C_25  and  O_27
REMARK   10  A    between atoms: O_27  and  C_28
REMARK   11  A    between atoms: C_28  and  C_29
REMARK   12  A    between atoms: C_29  and  N_31
REMARK   13  A    between atoms: C_29  and  C_32
REMARK                            x       y       z     vdW  Elec       q    Type
REMARK                         _______ _______ _______ _____ _____    ______ ____
ROOT
ATOM      1  C   UNK A   0       7.434  -3.230  25.614  0.00  0.00    +0.209 C 
ENDROOT
BRANCH   1   7
ATOM      2  C   UNK A   1       4.398   0.877  26.440  0.00  0.00    +0.024 C 
ATOM      3  C   UNK A   1       5.268  -0.163  27.153  0.00  0.00    +0.033 C 
ATOM      4  C   UNK A   1       6.777   0.153  27.249  0.00  0.00    +0.116 C 
ATOM      5  N   UNK A   1       7.649  -1.013  26.860  0.00  0.00    -0.294 NA
ATOM      6  H   UNK A   1       8.059  -0.704  25.963  0.00  0.00    +0.124 HD
ATOM      7  C   UNK A   0       6.861  -2.226  26.657  0.00  0.00    +0.144 C 
ATOM      8  S   UNK A   0       5.171  -1.720  26.211  0.00  0.00    -0.131 S 
ATOM      9  C   UNK A   1       4.686  -0.444  28.548  0.00  0.00    +0.024 C 
BRANCH   4  10
ATOM     10  C   UNK A   1       7.191   1.381  26.361  0.00  0.00    +0.060 C 
ATOM     11  O   UNK A   1       7.415   1.123  25.141  0.00  0.00    -0.548 OA
ATOM     12  O   UNK A   1       7.261   2.484  26.989  0.00  0.00    -0.548 OA
ENDBRANCH   4  10
ENDBRANCH   1   7
BRANCH   1  13
ATOM     13  N   UNK A   0       8.680  -2.755  24.981  0.00  0.00    -0.300 N 
ATOM     14  H   UNK A   0       9.484  -2.591  25.581  0.00  0.00    +0.150 HD
ATOM     15  C   UNK A   0       8.740  -2.544  23.622  0.00  0.00    +0.218 C 
ATOM     16  O   UNK A   0       7.786  -2.780  22.879  0.00  0.00    -0.275 OA
BRANCH  15  17
ATOM     17  C   UNK A   0      10.060  -1.996  23.097  0.00  0.00    +0.130 C 
BRANCH  17  18
ATOM     18  C   UNK A   0      10.136  -0.480  23.043  0.00  0.00    -0.039 A 
ATOM     19  C   UNK A   0       9.748   0.229  21.894  0.00  0.00    +0.004 A 
ATOM     20  C   UNK A   0       9.830   1.624  21.850  0.00  0.00    +0.000 A 
ATOM     21  C   UNK A   0      10.319   2.329  22.945  0.00  0.00    +0.000 A 
ATOM     22  C   UNK A   0      10.730   1.639  24.084  0.00  0.00    +0.000 A 
ATOM     23  C   UNK A   0      10.640   0.245  24.132  0.00  0.00    +0.004 A 
ENDBRANCH  17  18
ENDBRANCH  15  17
ENDBRANCH   1  13
BRANCH   1  24
ATOM     24  C   UNK A   1       7.502  -4.625  26.264  0.00  0.00    +0.330 C 
ATOM     25  O   UNK A   1       8.352  -4.922  27.100  0.00  0.00    -0.249 OA
BRANCH  24  26
ATOM     26  O   UNK A   1       6.549  -5.474  25.785  0.00  0.00    -0.461 OA
BRANCH  26  27
ATOM     27  C   UNK A   1       5.800  -5.022  24.627  0.00  0.00    +0.256 C 
BRANCH  27  28
ATOM     28  C   UNK A   1       5.763  -6.062  23.509  0.00  0.00    +0.135 C 
BRANCH  28  29
ATOM     29  C   UNK A   1       5.527  -5.405  22.099  0.00  0.00    +0.062 C 
ATOM     30  O   UNK A   1       4.864  -4.318  22.146  0.00  0.00    -0.548 OA
ATOM     31  O   UNK A   1       5.993  -6.004  21.090  0.00  0.00    -0.548 OA
ENDBRANCH  28  29
BRANCH  28  32
ATOM     32  N   UNK A   1       4.704  -7.107  23.735  0.00  0.00    -0.320 NA
ATOM     33  H   UNK A   1       3.962  -6.594  24.230  0.00  0.00    +0.119 HD
ATOM     34  H   UNK A   1       4.337  -7.367  22.825  0.00  0.00    +0.119 HD
ENDBRANCH  28  32
ENDBRANCH  27  28
ENDBRANCH  26  27
ENDBRANCH  24  26
ENDBRANCH   1  24
TORSDOF 11
ENDMDL
MODEL 8
REMARK VINA RESULT:      -5.9      1.800      2.349
REMARK  Name = 
REMARK  13 active torsions:
REMARK  status: ('A' for Active; 'I' for Inactive)
REMARK    1  A    between atoms: C_1  and  C_2
REMARK    2  A    between atoms: C_2  and  C_3
REMARK    3  A    between atoms: C_5  and  C_13
REMARK    4  A    between atoms: C_8  and  C_10
REMARK    5  A    between atoms: C_13  and  N_15
REMARK    6  A    between atoms: C_13  and  C_25
REMARK    7  A    between atoms: C_16  and  C_18
REMARK    8  A    between atoms: C_18  and  C_19
REMARK    9  A    between atoms: C_25  and  O_27
REMARK   10  A    between atoms: O_27  and  C_28
REMARK   11  A    between atoms: C_28  and  C_29
REMARK   12  A    between atoms: C_29  and  N_31
REMARK   13  A    between atoms: C_29  and  C_32
REMARK                            x       y       z     vdW  Elec       q    Type
REMARK                         _______ _______ _______ _____ _____    ______ ____
ROOT
ATOM      1  C   UNK A   0       8.176  -1.405  25.321  0.00  0.00    +0.209 C 
ENDROOT
BRANCH   1   7
ATOM      2  C   UNK A   1       7.688   3.105  22.832  0.00  0.00    +0.024 C 
ATOM      3  C   UNK A   1       7.920   2.492  24.217  0.00  0.00    +0.033 C 
ATOM      4  C   UNK A   1       9.380   2.138  24.576  0.00  0.00    +0.116 C 
ATOM      5  N   UNK A   1       9.524   0.757  25.164  0.00  0.00    -0.294 NA
ATOM      6  H   UNK A   1      10.013   0.238  24.416  0.00  0.00    +0.124 HD
ATOM      7  C   UNK A   0       8.222   0.148  25.424  0.00  0.00    +0.144 C 
ATOM      8  S   UNK A   0       7.019   0.909  24.291  0.00  0.00    -0.131 S 
ATOM      9  C   UNK A   1       7.308   3.409  25.289  0.00  0.00    +0.024 C 
BRANCH   4  10
ATOM     10  C   UNK A   1      10.343   2.236  23.338  0.00  0.00    +0.060 C 
ATOM     11  O   UNK A   1      10.288   1.268  22.524  0.00  0.00    -0.548 OA
ATOM     12  O   UNK A   1      11.069   3.278  23.320  0.00  0.00    -0.548 OA
ENDBRANCH   4  10
ENDBRANCH   1   7
BRANCH   1  13
ATOM     13  N   UNK A   0       6.847  -1.964  25.637  0.00  0.00    -0.300 N 
ATOM     14  H   UNK A   0       6.029  -1.456  25.311  0.00  0.00    +0.150 HD
ATOM     15  C   UNK A   0       6.730  -3.136  26.349  0.00  0.00    +0.218 C 
ATOM     16  O   UNK A   0       7.714  -3.784  26.712  0.00  0.00    -0.275 OA
BRANCH  15  17
ATOM     17  C   UNK A   0       5.308  -3.579  26.664  0.00  0.00    +0.130 C 
BRANCH  17  18
ATOM     18  C   UNK A   0       4.697  -4.514  25.634  0.00  0.00    -0.039 A 
ATOM     19  C   UNK A   0       5.160  -5.831  25.480  0.00  0.00    +0.004 A 
ATOM     20  C   UNK A   0       4.599  -6.682  24.523  0.00  0.00    +0.000 A 
ATOM     21  C   UNK A   0       3.581  -6.223  23.693  0.00  0.00    +0.000 A 
ATOM     22  C   UNK A   0       3.126  -4.911  23.817  0.00  0.00    +0.000 A 
ATOM     23  C   UNK A   0       3.681  -4.063  24.781  0.00  0.00    +0.004 A 
ENDBRANCH  17  18
ENDBRANCH  15  17
ENDBRANCH   1  13
BRANCH   1  24
ATOM     24  C   UNK A   1       8.774  -1.822  23.964  0.00  0.00    +0.330 C 
ATOM     25  O   UNK A   1       9.979  -1.772  23.732  0.00  0.00    -0.249 OA
BRANCH  24  26
ATOM     26  O   UNK A   1       7.822  -2.211  23.069  0.00  0.00    -0.461 OA
BRANCH  26  27
ATOM     27  C   UNK A   1       7.874  -3.593  22.626  0.00  0.00    +0.256 C 
BRANCH  27  28
ATOM     28  C   UNK A   1       6.487  -4.178  22.368  0.00  0.00    +0.135 C 
BRANCH  28  29
ATOM     29  C   UNK A   1       6.554  -5.500  21.517  0.00  0.00    +0.062 C 
ATOM     30  O   UNK A   1       5.924  -5.429  20.412  0.00  0.00    -0.548 OA
ATOM     31  O   UNK A   1       7.195  -6.474  22.000  0.00  0.00    -0.548 OA
ENDBRANCH  28  29
BRANCH  28  32
ATOM     32  N   UNK A   1       5.575  -3.204  21.673  0.00  0.00    -0.320 NA
ATOM     33  H   UNK A   1       4.831  -3.037  22.363  0.00  0.00    +0.119 HD
ATOM     34  H   UNK A   1       6.089  -2.335  21.562  0.00  0.00    +0.119 HD
ENDBRANCH  28  32
ENDBRANCH  27  28
ENDBRANCH  26  27
ENDBRANCH  24  26
ENDBRANCH   1  24
TORSDOF 11
ENDMDL
MODEL 9
REMARK VINA RESULT:      -5.8      2.721      6.231
REMARK  Name = 
REMARK  13 active torsions:
REMARK  status: ('A' for Active; 'I' for Inactive)
REMARK    1  A    between atoms: C_1  and  C_2
REMARK    2  A    between atoms: C_2  and  C_3
REMARK    3  A    between atoms: C_5  and  C_13
REMARK    4  A    between atoms: C_8  and  C_10
REMARK    5  A    between atoms: C_13  and  N_15
REMARK    6  A    between atoms: C_13  and  C_25
REMARK    7  A    between atoms: C_16  and  C_18
REMARK    8  A    between atoms: C_18  and  C_19
REMARK    9  A    between atoms: C_25  and  O_27
REMARK   10  A    between atoms: O_27  and  C_28
REMARK   11  A    between atoms: C_28  and  C_29
REMARK   12  A    between atoms: C_29  and  N_31
REMARK   13  A    between atoms: C_29  and  C_32
REMARK                            x       y       z     vdW  Elec       q    Type
REMARK                         _______ _______ _______ _____ _____    ______ ____
ROOT
ATOM      1  C   UNK A   0       6.853  -3.489  24.623  0.00  0.00    +0.209 C 
ENDROOT
BRANCH   1   7
ATOM      2  C   UNK A   1       3.521  -3.259  28.575  0.00  0.00    +0.024 C 
ATOM      3  C   UNK A   1       4.245  -2.398  27.534  0.00  0.00    +0.033 C 
ATOM      4  C   UNK A   1       3.571  -2.283  26.150  0.00  0.00    +0.116 C 
ATOM      5  N   UNK A   1       4.531  -2.502  25.007  0.00  0.00    -0.294 NA
ATOM      6  H   UNK A   1       4.228  -3.412  24.624  0.00  0.00    +0.124 HD
ATOM      7  C   UNK A   0       5.910  -2.591  25.478  0.00  0.00    +0.144 C 
ATOM      8  S   UNK A   0       5.869  -3.156  27.207  0.00  0.00    -0.131 S 
ATOM      9  C   UNK A   1       4.509  -1.002  28.123  0.00  0.00    +0.024 C 
BRANCH   4  10
ATOM     10  C   UNK A   1       2.379  -3.292  25.975  0.00  0.00    +0.060 C 
ATOM     11  O   UNK A   1       1.229  -2.829  26.235  0.00  0.00    -0.548 OA
ATOM     12  O   UNK A   1       2.727  -4.456  25.604  0.00  0.00    -0.548 OA
ENDBRANCH   4  10
ENDBRANCH   1   7
BRANCH   1  13
ATOM     13  N   UNK A   0       8.220  -2.945  24.509  0.00  0.00    -0.300 N 
ATOM     14  H   UNK A   0       8.764  -2.848  25.363  0.00  0.00    +0.150 HD
ATOM     15  C   UNK A   0       8.732  -2.585  23.284  0.00  0.00    +0.218 C 
ATOM     16  O   UNK A   0       8.099  -2.738  22.238  0.00  0.00    -0.275 OA
BRANCH  15  17
ATOM     17  C   UNK A   0      10.130  -1.980  23.304  0.00  0.00    +0.130 C 
BRANCH  17  18
ATOM     18  C   UNK A   0      10.164  -0.468  23.165  0.00  0.00    -0.039 A 
ATOM     19  C   UNK A   0       9.827   0.161  21.955  0.00  0.00    +0.004 A 
ATOM     20  C   UNK A   0       9.869   1.552  21.832  0.00  0.00    +0.000 A 
ATOM     21  C   UNK A   0      10.270   2.335  22.911  0.00  0.00    +0.000 A 
ATOM     22  C   UNK A   0      10.631   1.726  24.111  0.00  0.00    +0.000 A 
ATOM     23  C   UNK A   0      10.579   0.334  24.237  0.00  0.00    +0.004 A 
ENDBRANCH  17  18
ENDBRANCH  15  17
ENDBRANCH   1  13
BRANCH   1  24
ATOM     24  C   UNK A   1       6.747  -4.937  25.137  0.00  0.00    +0.330 C 
ATOM     25  O   UNK A   1       7.699  -5.528  25.640  0.00  0.00    -0.249 OA
BRANCH  24  26
ATOM     26  O   UNK A   1       5.511  -5.475  24.940  0.00  0.00    -0.461 OA
BRANCH  26  27
ATOM     27  C   UNK A   1       5.392  -6.456  23.876  0.00  0.00    +0.256 C 
BRANCH  27  28
ATOM     28  C   UNK A   1       4.882  -5.848  22.572  0.00  0.00    +0.135 C 
BRANCH  28  29
ATOM     29  C   UNK A   1       6.059  -5.477  21.594  0.00  0.00    +0.062 C 
ATOM     30  O   UNK A   1       5.749  -4.589  20.735  0.00  0.00    -0.548 OA
ATOM     31  O   UNK A   1       7.156  -6.084  21.744  0.00  0.00    -0.548 OA
ENDBRANCH  28  29
BRANCH  28  32
ATOM     32  N   UNK A   1       4.044  -4.620  22.802  0.00  0.00    -0.320 NA
ATOM     33  H   UNK A   1       3.594  -4.802  23.709  0.00  0.00    +0.119 HD
ATOM     34  H   UNK A   1       4.680  -3.839  22.930  0.00  0.00    +0.119 HD
ENDBRANCH  28  32
ENDBRANCH  27  28
ENDBRANCH  26  27
ENDBRANCH  24  26
ENDBRANCH   1  24
TORSDOF 11
ENDMDL
