MODEL 1
REMARK VINA RESULT:      -4.9      0.000      0.000
REMARK  Name = 
REMARK  9 active torsions:
REMARK  status: ('A' for Active; 'I' for Inactive)
REMARK    1  A    between atoms: O_1  and  C_2
REMARK    2  A    between atoms: C_2  and  C_3
REMARK    3  A    between atoms: C_2  and  P_9
REMARK    4  A    between atoms: C_2  and  P_13
REMARK    5  A    between atoms: C_3  and  N_4
REMARK    6  A    between atoms: P_9  and  O_10
REMARK    7  A    between atoms: P_9  and  O_11
REMARK    8  A    between atoms: P_13  and  O_14
REMARK    9  A    between atoms: P_13  and  O_15
REMARK                            x       y       z     vdW  Elec       q    Type
REMARK                         _______ _______ _______ _____ _____    ______ ____
ROOT
ATOM      1  C   UNL     1       7.620  -4.361  24.813  0.00  0.00    +0.285 C 
ENDROOT
BRANCH   1   2
ATOM      2  O   UNL     1       8.413  -5.274  23.937  0.00  0.00    -0.366 OA
ATOM      3  H   UNL     1       8.162  -6.170  24.261  0.00  0.00    +0.212 HD
ENDBRANCH   1   2
BRANCH   1   4
ATOM      4  P   UNL     1       8.592  -2.811  24.831  0.00  0.00    +0.373 P 
ATOM      5  O   UNL     1       9.415  -1.500  24.847  0.00  0.00    -0.255 OA
BRANCH   4   6
ATOM      6  O   UNL     1       9.914  -3.667  24.409  0.00  0.00    -0.322 OA
ATOM      7  H   UNL     1       9.870  -4.511  24.916  0.00  0.00    +0.220 HD
ENDBRANCH   4   6
BRANCH   4   8
ATOM      8  O   UNL     1       8.711  -3.020  26.467  0.00  0.00    -0.322 OA
ATOM      9  H   UNL     1       7.822  -2.968  26.884  0.00  0.00    +0.220 HD
ENDBRANCH   4   8
ENDBRANCH   1   4
BRANCH   1  10
ATOM     10  P   UNL     1       7.593  -5.085  26.494  0.00  0.00    +0.373 P 
ATOM     11  O   UNL     1       7.570  -5.696  27.916  0.00  0.00    -0.255 OA
BRANCH  10  12
ATOM     12  O   UNL     1       8.888  -6.012  26.085  0.00  0.00    -0.322 OA
ATOM     13  H   UNL     1       8.797  -6.257  25.137  0.00  0.00    +0.220 HD
ENDBRANCH  10  12
BRANCH  10  14
ATOM     14  O   UNL     1       6.461  -6.172  25.969  0.00  0.00    -0.322 OA
ATOM     15  H   UNL     1       6.076  -5.802  25.142  0.00  0.00    +0.220 HD
ENDBRANCH  10  14
ENDBRANCH   1  10
BRANCH   1  16
ATOM     16  C   UNL     1       6.227  -4.375  24.139  0.00  0.00    +0.183 C 
BRANCH  16  17
ATOM     17  N   UNL     1       6.099  -4.760  22.756  0.00  0.00    -0.333 N 
ATOM     18  C   UNL     1       6.047  -3.884  21.704  0.00  0.00    +0.199 A 
ATOM     19  N   UNL     1       6.017  -4.516  20.554  0.00  0.00    -0.244 NA
ATOM     20  C   UNL     1       6.066  -5.842  20.873  0.00  0.00    +0.130 A 
ATOM     21  C   UNL     1       6.141  -6.022  22.237  0.00  0.00    +0.107 A 
ENDBRANCH  16  17
ENDBRANCH   1  16
TORSDOF 9
ENDMDL
MODEL 2
REMARK VINA RESULT:      -4.9      2.869      4.109
REMARK  Name = 
REMARK  9 active torsions:
REMARK  status: ('A' for Active; 'I' for Inactive)
REMARK    1  A    between atoms: O_1  and  C_2
REMARK    2  A    between atoms: C_2  and  C_3
REMARK    3  A    between atoms: C_2  and  P_9
REMARK    4  A    between atoms: C_2  and  P_13
REMARK    5  A    between atoms: C_3  and  N_4
REMARK    6  A    between atoms: P_9  and  O_10
REMARK    7  A    between atoms: P_9  and  O_11
REMARK    8  A    between atoms: P_13  and  O_14
REMARK    9  A    between atoms: P_13  and  O_15
REMARK                            x       y       z     vdW  Elec       q    Type
REMARK                         _______ _______ _______ _____ _____    ______ ____
ROOT
ATOM      1  C   UNL     1       8.501  -4.073  24.842  0.00  0.00    +0.285 C 
ENDROOT
BRANCH   1   2
ATOM      2  O   UNL     1       9.819  -4.686  24.502  0.00  0.00    -0.366 OA
ATOM      3  H   UNL     1      10.466  -3.999  24.786  0.00  0.00    +0.212 HD
ENDBRANCH   1   2
BRANCH   1   4
ATOM      4  P   UNL     1       7.980  -4.959  26.357  0.00  0.00    +0.373 P 
ATOM      5  O   UNL     1       7.540  -5.708  27.638  0.00  0.00    -0.255 OA
BRANCH   4   6
ATOM      6  O   UNL     1       9.085  -4.108  27.202  0.00  0.00    -0.322 OA
ATOM      7  H   UNL     1       9.172  -4.558  28.074  0.00  0.00    +0.220 HD
ENDBRANCH   4   6
BRANCH   4   8
ATOM      8  O   UNL     1       8.978  -6.183  25.866  0.00  0.00    -0.322 OA
ATOM      9  H   UNL     1       9.159  -6.110  24.902  0.00  0.00    +0.220 HD
ENDBRANCH   4   8
ENDBRANCH   1   4
BRANCH   1  10
ATOM     10  P   UNL     1       7.338  -4.456  23.481  0.00  0.00    +0.373 P 
ATOM     11  O   UNL     1       6.355  -4.779  22.330  0.00  0.00    -0.255 OA
BRANCH  10  12
ATOM     12  O   UNL     1       6.412  -5.298  24.548  0.00  0.00    -0.322 OA
ATOM     13  H   UNL     1       7.011  -5.702  25.215  0.00  0.00    +0.220 HD
ENDBRANCH  10  12
BRANCH  10  14
ATOM     14  O   UNL     1       8.297  -5.740  23.071  0.00  0.00    -0.322 OA
ATOM     15  H   UNL     1       9.092  -5.369  22.625  0.00  0.00    +0.220 HD
ENDBRANCH  10  14
ENDBRANCH   1  10
BRANCH   1  16
ATOM     16  C   UNL     1       8.842  -2.567  24.925  0.00  0.00    +0.183 C 
BRANCH  16  17
ATOM     17  N   UNL     1       9.020  -1.801  23.716  0.00  0.00    -0.333 N 
ATOM     18  C   UNL     1       8.149  -0.845  23.264  0.00  0.00    +0.199 A 
ATOM     19  N   UNL     1       8.606  -0.248  22.187  0.00  0.00    -0.244 NA
ATOM     20  C   UNL     1       9.818  -0.829  21.945  0.00  0.00    +0.130 A 
ATOM     21  C   UNL     1      10.110  -1.783  22.895  0.00  0.00    +0.107 A 
ENDBRANCH  16  17
ENDBRANCH   1  16
TORSDOF 9
ENDMDL
MODEL 3
REMARK VINA RESULT:      -4.8      3.115      4.621
REMARK  Name = 
REMARK  9 active torsions:
REMARK  status: ('A' for Active; 'I' for Inactive)
REMARK    1  A    between atoms: O_1  and  C_2
REMARK    2  A    between atoms: C_2  and  C_3
REMARK    3  A    between atoms: C_2  and  P_9
REMARK    4  A    between atoms: C_2  and  P_13
REMARK    5  A    between atoms: C_3  and  N_4
REMARK    6  A    between atoms: P_9  and  O_10
REMARK    7  A    between atoms: P_9  and  O_11
REMARK    8  A    between atoms: P_13  and  O_14
REMARK    9  A    between atoms: P_13  and  O_15
REMARK                            x       y       z     vdW  Elec       q    Type
REMARK                         _______ _______ _______ _____ _____    ______ ____
ROOT
ATOM      1  C   UNL     1       6.952  -4.819  23.505  0.00  0.00    +0.285 C 
ENDROOT
BRANCH   1   2
ATOM      2  O   UNL     1       8.327  -5.372  23.683  0.00  0.00    -0.366 OA
ATOM      3  H   UNL     1       8.826  -4.612  24.066  0.00  0.00    +0.212 HD
ENDBRANCH   1   2
BRANCH   1   4
ATOM      4  P   UNL     1       5.940  -5.760  24.706  0.00  0.00    +0.373 P 
ATOM      5  O   UNL     1       5.084  -6.555  25.722  0.00  0.00    -0.255 OA
BRANCH   4   6
ATOM      6  O   UNL     1       4.900  -4.506  24.772  0.00  0.00    -0.322 OA
ATOM      7  H   UNL     1       4.175  -4.714  24.139  0.00  0.00    +0.220 HD
ENDBRANCH   4   6
BRANCH   4   8
ATOM      8  O   UNL     1       6.995  -5.228  25.863  0.00  0.00    -0.322 OA
ATOM      9  H   UNL     1       7.859  -5.690  25.776  0.00  0.00    +0.220 HD
ENDBRANCH   4   8
ENDBRANCH   1   4
BRANCH   1  10
ATOM     10  P   UNL     1       6.405  -5.216  21.804  0.00  0.00    +0.373 P 
ATOM     11  O   UNL     1       5.944  -5.552  20.365  0.00  0.00    -0.255 OA
BRANCH  10  12
ATOM     12  O   UNL     1       5.332  -3.973  21.889  0.00  0.00    -0.322 OA
ATOM     13  H   UNL     1       5.731  -3.266  22.445  0.00  0.00    +0.220 HD
ENDBRANCH  10  12
BRANCH  10  14
ATOM     14  O   UNL     1       5.374  -6.345  22.437  0.00  0.00    -0.322 OA
ATOM     15  H   UNL     1       5.933  -7.090  22.756  0.00  0.00    +0.220 HD
ENDBRANCH  10  14
ENDBRANCH   1  10
BRANCH   1  16
ATOM     16  C   UNL     1       7.167  -3.303  23.720  0.00  0.00    +0.183 C 
BRANCH  16  17
ATOM     17  N   UNL     1       8.377  -2.674  23.253  0.00  0.00    -0.333 N 
ATOM     18  C   UNL     1       8.508  -2.032  22.049  0.00  0.00    +0.199 A 
ATOM     19  N   UNL     1       9.692  -1.479  21.925  0.00  0.00    -0.244 NA
ATOM     20  C   UNL     1      10.341  -1.761  23.092  0.00  0.00    +0.130 A 
ATOM     21  C   UNL     1       9.538  -2.484  23.947  0.00  0.00    +0.107 A 
ENDBRANCH  16  17
ENDBRANCH   1  16
TORSDOF 9
ENDMDL
MODEL 4
REMARK VINA RESULT:      -4.8      3.005      4.134
REMARK  Name = 
REMARK  9 active torsions:
REMARK  status: ('A' for Active; 'I' for Inactive)
REMARK    1  A    between atoms: O_1  and  C_2
REMARK    2  A    between atoms: C_2  and  C_3
REMARK    3  A    between atoms: C_2  and  P_9
REMARK    4  A    between atoms: C_2  and  P_13
REMARK    5  A    between atoms: C_3  and  N_4
REMARK    6  A    between atoms: P_9  and  O_10
REMARK    7  A    between atoms: P_9  and  O_11
REMARK    8  A    between atoms: P_13  and  O_14
REMARK    9  A    between atoms: P_13  and  O_15
REMARK                            x       y       z     vdW  Elec       q    Type
REMARK                         _______ _______ _______ _____ _____    ______ ____
ROOT
ATOM      1  C   UNL     1       7.823  -3.860  24.725  0.00  0.00    +0.285 C 
ENDROOT
BRANCH   1   2
ATOM      2  O   UNL     1       7.139  -2.558  24.983  0.00  0.00    -0.366 OA
ATOM      3  H   UNL     1       7.327  -2.041  24.165  0.00  0.00    +0.212 HD
ENDBRANCH   1   2
BRANCH   1   4
ATOM      4  P   UNL     1       6.789  -4.656  23.441  0.00  0.00    +0.373 P 
ATOM      5  O   UNL     1       5.915  -5.329  22.356  0.00  0.00    -0.255 OA
BRANCH   4   6
ATOM      6  O   UNL     1       6.196  -5.660  24.581  0.00  0.00    -0.322 OA
ATOM      7  H   UNL     1       6.894  -5.737  25.272  0.00  0.00    +0.220 HD
ENDBRANCH   4   6
BRANCH   4   8
ATOM      8  O   UNL     1       8.130  -5.541  23.049  0.00  0.00    -0.322 OA
ATOM      9  H   UNL     1       8.254  -5.559  22.074  0.00  0.00    +0.220 HD
ENDBRANCH   4   8
ENDBRANCH   1   4
BRANCH   1  10
ATOM     10  P   UNL     1       7.748  -4.846  26.266  0.00  0.00    +0.373 P 
ATOM     11  O   UNL     1       7.685  -5.679  27.569  0.00  0.00    -0.255 OA
BRANCH  10  12
ATOM     12  O   UNL     1       8.689  -3.714  27.001  0.00  0.00    -0.322 OA
ATOM     13  H   UNL     1       9.013  -4.094  27.849  0.00  0.00    +0.220 HD
ENDBRANCH  10  12
BRANCH  10  14
ATOM     14  O   UNL     1       9.016  -5.750  25.707  0.00  0.00    -0.322 OA
ATOM     15  H   UNL     1       9.514  -5.180  25.077  0.00  0.00    +0.220 HD
ENDBRANCH  10  14
ENDBRANCH   1  10
BRANCH   1  16
ATOM     16  C   UNL     1       9.263  -3.419  24.373  0.00  0.00    +0.183 C 
BRANCH  16  17
ATOM     17  N   UNL     1       9.486  -2.190  23.655  0.00  0.00    -0.333 N 
ATOM     18  C   UNL     1      10.012  -1.050  24.204  0.00  0.00    +0.199 A 
ATOM     19  N   UNL     1      10.182  -0.114  23.299  0.00  0.00    -0.244 NA
ATOM     20  C   UNL     1       9.766  -0.673  22.125  0.00  0.00    +0.130 A 
ATOM     21  C   UNL     1       9.348  -1.973  22.314  0.00  0.00    +0.107 A 
ENDBRANCH  16  17
ENDBRANCH   1  16
TORSDOF 9
ENDMDL
MODEL 5
REMARK VINA RESULT:      -4.8      3.392      4.442
REMARK  Name = 
REMARK  9 active torsions:
REMARK  status: ('A' for Active; 'I' for Inactive)
REMARK    1  A    between atoms: O_1  and  C_2
REMARK    2  A    between atoms: C_2  and  C_3
REMARK    3  A    between atoms: C_2  and  P_9
REMARK    4  A    between atoms: C_2  and  P_13
REMARK    5  A    between atoms: C_3  and  N_4
REMARK    6  A    between atoms: P_9  and  O_10
REMARK    7  A    between atoms: P_9  and  O_11
REMARK    8  A    between atoms: P_13  and  O_14
REMARK    9  A    between atoms: P_13  and  O_15
REMARK                            x       y       z     vdW  Elec       q    Type
REMARK                         _______ _______ _______ _____ _____    ______ ____
ROOT
ATOM      1  C   UNL     1       6.862  -3.722  23.519  0.00  0.00    +0.285 C 
ENDROOT
BRANCH   1   2
ATOM      2  O   UNL     1       5.684  -3.898  24.419  0.00  0.00    -0.366 OA
ATOM      3  H   UNL     1       5.090  -3.156  24.157  0.00  0.00    +0.212 HD
ENDBRANCH   1   2
BRANCH   1   4
ATOM      4  P   UNL     1       6.361  -4.554  21.968  0.00  0.00    +0.373 P 
ATOM      5  O   UNL     1       5.936  -5.258  20.656  0.00  0.00    -0.255 OA
BRANCH   4   6
ATOM      6  O   UNL     1       5.403  -3.280  21.626  0.00  0.00    -0.322 OA
ATOM      7  H   UNL     1       6.005  -2.511  21.490  0.00  0.00    +0.220 HD
ENDBRANCH   4   6
BRANCH   4   8
ATOM      8  O   UNL     1       5.277  -5.399  22.887  0.00  0.00    -0.322 OA
ATOM      9  H   UNL     1       5.126  -4.942  23.744  0.00  0.00    +0.220 HD
ENDBRANCH   4   8
ENDBRANCH   1   4
BRANCH   1  10
ATOM     10  P   UNL     1       8.273  -4.620  24.265  0.00  0.00    +0.373 P 
ATOM     11  O   UNL     1       9.465  -5.379  24.895  0.00  0.00    -0.255 OA
BRANCH  10  12
ATOM     12  O   UNL     1       8.174  -5.725  23.050  0.00  0.00    -0.322 OA
ATOM     13  H   UNL     1       7.591  -5.354  22.350  0.00  0.00    +0.220 HD
ENDBRANCH  10  12
BRANCH  10  14
ATOM     14  O   UNL     1       7.205  -5.399  25.260  0.00  0.00    -0.322 OA
ATOM     15  H   UNL     1       7.697  -5.624  26.082  0.00  0.00    +0.220 HD
ENDBRANCH  10  14
ENDBRANCH   1  10
BRANCH   1  16
ATOM     16  C   UNL     1       7.066  -2.189  23.526  0.00  0.00    +0.183 C 
BRANCH  16  17
ATOM     17  N   UNL     1       8.359  -1.632  23.218  0.00  0.00    -0.333 N 
ATOM     18  C   UNL     1       8.916  -1.601  21.967  0.00  0.00    +0.199 A 
ATOM     19  N   UNL     1      10.061  -0.958  21.967  0.00  0.00    -0.244 NA
ATOM     20  C   UNL     1      10.241  -0.549  23.257  0.00  0.00    +0.130 A 
ATOM     21  C   UNL     1       9.185  -0.936  24.053  0.00  0.00    +0.107 A 
ENDBRANCH  16  17
ENDBRANCH   1  16
TORSDOF 9
ENDMDL
MODEL 6
REMARK VINA RESULT:      -4.7      5.248      6.708
REMARK  Name = 
REMARK  9 active torsions:
REMARK  status: ('A' for Active; 'I' for Inactive)
REMARK    1  A    between atoms: O_1  and  C_2
REMARK    2  A    between atoms: C_2  and  C_3
REMARK    3  A    between atoms: C_2  and  P_9
REMARK    4  A    between atoms: C_2  and  P_13
REMARK    5  A    between atoms: C_3  and  N_4
REMARK    6  A    between atoms: P_9  and  O_10
REMARK    7  A    between atoms: P_9  and  O_11
REMARK    8  A    between atoms: P_13  and  O_14
REMARK    9  A    between atoms: P_13  and  O_15
REMARK                            x       y       z     vdW  Elec       q    Type
REMARK                         _______ _______ _______ _____ _____    ______ ____
ROOT
ATOM      1  C   UNL     1       8.573   1.297  23.181  0.00  0.00    +0.285 C 
ENDROOT
BRANCH   1   2
ATOM      2  O   UNL     1       8.499   0.711  24.553  0.00  0.00    -0.366 OA
ATOM      3  H   UNL     1       8.487   1.506  25.136  0.00  0.00    +0.212 HD
ENDBRANCH   1   2
BRANCH   1   4
ATOM      4  P   UNL     1      10.010   2.428  23.262  0.00  0.00    +0.373 P 
ATOM      5  O   UNL     1      11.225   3.385  23.330  0.00  0.00    -0.255 OA
BRANCH   4   6
ATOM      6  O   UNL     1       8.991   3.691  23.099  0.00  0.00    -0.322 OA
ATOM      7  H   UNL     1       9.398   4.441  23.591  0.00  0.00    +0.220 HD
ENDBRANCH   4   6
BRANCH   4   8
ATOM      8  O   UNL     1      10.224   2.113  21.653  0.00  0.00    -0.322 OA
ATOM      9  H   UNL     1      11.045   1.589  21.514  0.00  0.00    +0.220 HD
ENDBRANCH   4   8
ENDBRANCH   1   4
BRANCH   1  10
ATOM     10  P   UNL     1       7.046   2.269  22.906  0.00  0.00    +0.373 P 
ATOM     11  O   UNL     1       5.755   3.091  22.674  0.00  0.00    -0.255 OA
BRANCH  10  12
ATOM     12  O   UNL     1       6.183   0.870  22.946  0.00  0.00    -0.322 OA
ATOM     13  H   UNL     1       5.485   0.964  23.633  0.00  0.00    +0.220 HD
ENDBRANCH  10  12
BRANCH  10  14
ATOM     14  O   UNL     1       7.346   2.212  21.280  0.00  0.00    -0.322 OA
ATOM     15  H   UNL     1       7.927   2.979  21.073  0.00  0.00    +0.220 HD
ENDBRANCH  10  14
ENDBRANCH   1  10
BRANCH   1  16
ATOM     16  C   UNL     1       8.647   0.042  22.282  0.00  0.00    +0.183 C 
BRANCH  16  17
ATOM     17  N   UNL     1       8.913  -1.249  22.865  0.00  0.00    -0.333 N 
ATOM     18  C   UNL     1      10.158  -1.710  23.203  0.00  0.00    +0.199 A 
ATOM     19  N   UNL     1      10.093  -2.880  23.794  0.00  0.00    -0.244 NA
ATOM     20  C   UNL     1       8.762  -3.177  23.853  0.00  0.00    +0.130 A 
ATOM     21  C   UNL     1       8.003  -2.168  23.302  0.00  0.00    +0.107 A 
ENDBRANCH  16  17
ENDBRANCH   1  16
TORSDOF 9
ENDMDL
MODEL 7
REMARK VINA RESULT:      -4.7      3.912      4.806
REMARK  Name = 
REMARK  9 active torsions:
REMARK  status: ('A' for Active; 'I' for Inactive)
REMARK    1  A    between atoms: O_1  and  C_2
REMARK    2  A    between atoms: C_2  and  C_3
REMARK    3  A    between atoms: C_2  and  P_9
REMARK    4  A    between atoms: C_2  and  P_13
REMARK    5  A    between atoms: C_3  and  N_4
REMARK    6  A    between atoms: P_9  and  O_10
REMARK    7  A    between atoms: P_9  and  O_11
REMARK    8  A    between atoms: P_13  and  O_14
REMARK    9  A    between atoms: P_13  and  O_15
REMARK                            x       y       z     vdW  Elec       q    Type
REMARK                         _______ _______ _______ _____ _____    ______ ____
ROOT
ATOM      1  C   UNL     1       8.119  -2.779  23.598  0.00  0.00    +0.285 C 
ENDROOT
BRANCH   1   2
ATOM      2  O   UNL     1       7.679  -1.645  24.464  0.00  0.00    -0.366 OA
ATOM      3  H   UNL     1       8.531  -1.243  24.755  0.00  0.00    +0.212 HD
ENDBRANCH   1   2
BRANCH   1   4
ATOM      4  P   UNL     1       6.689  -3.069  22.492  0.00  0.00    +0.373 P 
ATOM      5  O   UNL     1       5.480  -3.314  21.557  0.00  0.00    -0.255 OA
BRANCH   4   6
ATOM      6  O   UNL     1       6.207  -1.534  22.758  0.00  0.00    -0.322 OA
ATOM      7  H   UNL     1       7.028  -0.992  22.810  0.00  0.00    +0.220 HD
ENDBRANCH   4   6
BRANCH   4   8
ATOM      8  O   UNL     1       5.945  -3.760  23.796  0.00  0.00    -0.322 OA
ATOM      9  H   UNL     1       5.057  -4.100  23.543  0.00  0.00    +0.220 HD
ENDBRANCH   4   8
ENDBRANCH   1   4
BRANCH   1  10
ATOM     10  P   UNL     1       8.364  -4.241  24.672  0.00  0.00    +0.373 P 
ATOM     11  O   UNL     1       8.572  -5.476  25.581  0.00  0.00    -0.255 OA
BRANCH  10  12
ATOM     12  O   UNL     1       9.990  -4.031  24.537  0.00  0.00    -0.322 OA
ATOM     13  H   UNL     1      10.175  -3.670  23.641  0.00  0.00    +0.220 HD
ENDBRANCH  10  12
BRANCH  10  14
ATOM     14  O   UNL     1       8.228  -5.203  23.334  0.00  0.00    -0.322 OA
ATOM     15  H   UNL     1       7.463  -4.862  22.817  0.00  0.00    +0.220 HD
ENDBRANCH  10  14
ENDBRANCH   1  10
BRANCH   1  16
ATOM     16  C   UNL     1       9.445  -2.253  23.001  0.00  0.00    +0.183 C 
BRANCH  16  17
ATOM     17  N   UNL     1       9.616  -0.843  22.757  0.00  0.00    -0.333 N 
ATOM     18  C   UNL     1      10.289   0.015  23.587  0.00  0.00    +0.199 A 
ATOM     19  N   UNL     1      10.362   1.221  23.073  0.00  0.00    -0.244 NA
ATOM     20  C   UNL     1       9.729   1.135  21.867  0.00  0.00    +0.130 A 
ATOM     21  C   UNL     1       9.274  -0.145  21.635  0.00  0.00    +0.107 A 
ENDBRANCH  16  17
ENDBRANCH   1  16
TORSDOF 9
ENDMDL
MODEL 8
REMARK VINA RESULT:      -4.6      7.022      8.595
REMARK  Name = 
REMARK  9 active torsions:
REMARK  status: ('A' for Active; 'I' for Inactive)
REMARK    1  A    between atoms: O_1  and  C_2
REMARK    2  A    between atoms: C_2  and  C_3
REMARK    3  A    between atoms: C_2  and  P_9
REMARK    4  A    between atoms: C_2  and  P_13
REMARK    5  A    between atoms: C_3  and  N_4
REMARK    6  A    between atoms: P_9  and  O_10
REMARK    7  A    between atoms: P_9  and  O_11
REMARK    8  A    between atoms: P_13  and  O_14
REMARK    9  A    between atoms: P_13  and  O_15
REMARK                            x       y       z     vdW  Elec       q    Type
REMARK                         _______ _______ _______ _____ _____    ______ ____
ROOT
ATOM      1  C   UNL     1       9.313   1.609  22.846  0.00  0.00    +0.285 C 
ENDROOT
BRANCH   1   2
ATOM      2  O   UNL     1      10.118   1.977  21.643  0.00  0.00    -0.366 OA
ATOM      3  H   UNL     1       9.496   2.536  21.121  0.00  0.00    +0.212 HD
ENDBRANCH   1   2
BRANCH   1   4
ATOM      4  P   UNL     1       9.403  -0.219  22.894  0.00  0.00    +0.373 P 
ATOM      5  O   UNL     1       9.480  -1.764  22.934  0.00  0.00    -0.255 OA
BRANCH   4   6
ATOM      6  O   UNL     1      10.918  -0.101  23.487  0.00  0.00    -0.322 OA
ATOM      7  H   UNL     1      11.460   0.316  22.778  0.00  0.00    +0.220 HD
ENDBRANCH   4   6
BRANCH   4   8
ATOM      8  O   UNL     1       9.792  -0.144  21.289  0.00  0.00    -0.322 OA
ATOM      9  H   UNL     1      10.224  -0.980  21.002  0.00  0.00    +0.220 HD
ENDBRANCH   4   8
ENDBRANCH   1   4
BRANCH   1  10
ATOM     10  P   UNL     1       7.583   2.126  22.541  0.00  0.00    +0.373 P 
ATOM     11  O   UNL     1       6.121   2.564  22.283  0.00  0.00    -0.255 OA
BRANCH  10  12
ATOM     12  O   UNL     1       7.122   0.552  22.660  0.00  0.00    -0.322 OA
ATOM     13  H   UNL     1       7.360   0.234  23.560  0.00  0.00    +0.220 HD
ENDBRANCH  10  12
BRANCH  10  14
ATOM     14  O   UNL     1       7.890   2.067  20.916  0.00  0.00    -0.322 OA
ATOM     15  H   UNL     1       7.627   2.941  20.546  0.00  0.00    +0.220 HD
ENDBRANCH  10  14
ENDBRANCH   1  10
BRANCH   1  16
ATOM     16  C   UNL     1       9.988   2.431  23.968  0.00  0.00    +0.183 C 
BRANCH  16  17
ATOM     17  N   UNL     1      10.477   3.759  23.695  0.00  0.00    -0.333 N 
ATOM     18  C   UNL     1       9.744   4.906  23.849  0.00  0.00    +0.199 A 
ATOM     19  N   UNL     1      10.468   5.975  23.610  0.00  0.00    -0.244 NA
ATOM     20  C   UNL     1      11.712   5.503  23.306  0.00  0.00    +0.130 A 
ATOM     21  C   UNL     1      11.751   4.127  23.373  0.00  0.00    +0.107 A 
ENDBRANCH  16  17
ENDBRANCH   1  16
TORSDOF 9
ENDMDL
MODEL 9
REMARK VINA RESULT:      -4.6      2.792      3.611
REMARK  Name = 
REMARK  9 active torsions:
REMARK  status: ('A' for Active; 'I' for Inactive)
REMARK    1  A    between atoms: O_1  and  C_2
REMARK    2  A    between atoms: C_2  and  C_3
REMARK    3  A    between atoms: C_2  and  P_9
REMARK    4  A    between atoms: C_2  and  P_13
REMARK    5  A    between atoms: C_3  and  N_4
REMARK    6  A    between atoms: P_9  and  O_10
REMARK    7  A    between atoms: P_9  and  O_11
REMARK    8  A    between atoms: P_13  and  O_14
REMARK    9  A    between atoms: P_13  and  O_15
REMARK                            x       y       z     vdW  Elec       q    Type
REMARK                         _______ _______ _______ _____ _____    ______ ____
ROOT
ATOM      1  C   UNL     1       7.512  -3.499  25.676  0.00  0.00    +0.285 C 
ENDROOT
BRANCH   1   2
ATOM      2  O   UNL     1       8.338  -2.402  26.264  0.00  0.00    -0.366 OA
ATOM      3  H   UNL     1       7.822  -2.136  27.061  0.00  0.00    +0.212 HD
ENDBRANCH   1   2
BRANCH   1   4
ATOM      4  P   UNL     1       5.865  -2.736  25.446  0.00  0.00    +0.373 P 
ATOM      5  O   UNL     1       4.471  -2.092  25.250  0.00  0.00    -0.255 OA
BRANCH   4   6
ATOM      6  O   UNL     1       5.313  -3.611  26.706  0.00  0.00    -0.322 OA
ATOM      7  H   UNL     1       5.955  -3.473  27.440  0.00  0.00    +0.220 HD
ENDBRANCH   4   6
BRANCH   4   8
ATOM      8  O   UNL     1       5.613  -3.869  24.268  0.00  0.00    -0.322 OA
ATOM      9  H   UNL     1       6.012  -4.729  24.530  0.00  0.00    +0.220 HD
ENDBRANCH   4   8
ENDBRANCH   1   4
BRANCH   1  10
ATOM     10  P   UNL     1       7.396  -4.837  26.920  0.00  0.00    +0.373 P 
ATOM     11  O   UNL     1       7.298  -5.969  27.971  0.00  0.00    -0.255 OA
BRANCH  10  12
ATOM     12  O   UNL     1       9.002  -5.127  26.715  0.00  0.00    -0.322 OA
ATOM     13  H   UNL     1       9.096  -5.962  26.203  0.00  0.00    +0.220 HD
ENDBRANCH  10  12
BRANCH  10  14
ATOM     14  O   UNL     1       6.907  -5.863  25.717  0.00  0.00    -0.322 OA
ATOM     15  H   UNL     1       5.933  -5.748  25.626  0.00  0.00    +0.220 HD
ENDBRANCH  10  14
ENDBRANCH   1  10
BRANCH   1  16
ATOM     16  C   UNL     1       8.337  -3.913  24.435  0.00  0.00    +0.183 C 
BRANCH  16  17
ATOM     17  N   UNL     1       8.848  -2.905  23.540  0.00  0.00    -0.333 N 
ATOM     18  C   UNL     1      10.113  -2.384  23.594  0.00  0.00    +0.199 A 
ATOM     19  N   UNL     1      10.332  -1.549  22.605  0.00  0.00    -0.244 NA
ATOM     20  C   UNL     1       9.175  -1.542  21.881  0.00  0.00    +0.130 A 
ATOM     21  C   UNL     1       8.241  -2.395  22.428  0.00  0.00    +0.107 A 
ENDBRANCH  16  17
ENDBRANCH   1  16
TORSDOF 9
ENDMDL
