MODEL 1
REMARK VINA RESULT:      -6.6      0.000      0.000
REMARK  Name = 
REMARK  3 active torsions:
REMARK  status: ('A' for Active; 'I' for Inactive)
REMARK    1  A    between atoms: O_1  and  C_2
REMARK    2  A    between atoms: C_5  and  N_8
REMARK    3  A    between atoms: C_13  and  O_14
REMARK                            x       y       z     vdW  Elec       q    Type
REMARK                         _______ _______ _______ _____ _____    ______ ____
ROOT
ATOM      1  N   UNL     1       8.266  -2.258  24.070  0.00  0.00    -0.220 N 
ATOM      2  C   UNL     1       7.128  -3.010  23.827  0.00  0.00    +0.141 A 
ATOM      3 CL   UNL     1       5.970  -2.634  22.629  0.00  0.00    -0.061 Cl
ATOM      4  C   UNL     1       7.074  -3.963  24.804  0.00  0.00    +0.042 A 
ATOM      5  C   UNL     1       8.224  -3.755  25.637  0.00  0.00    +0.095 A 
ATOM      6  C   UNL     1       8.465  -4.586  26.747  0.00  0.00    +0.034 A 
ATOM      7  C   UNL     1       7.476  -5.574  26.952  0.00  0.00    +0.047 A 
ATOM      8  C   UNL     1       6.336  -5.714  26.107  0.00  0.00    +0.118 A 
ATOM      9  C   UNL     1       6.074  -4.916  24.981  0.00  0.00    +0.058 A 
ATOM     10  N   UNL     1       8.919  -2.698  25.194  0.00  0.00    -0.165 NA
ENDROOT
BRANCH   1  14
ATOM     11  C   UNL     1       9.746   1.166  22.083  0.00  0.00    +0.117 A 
ATOM     12  C   UNL     1       9.580   1.174  23.461  0.00  0.00    +0.047 A 
ATOM     13  C   UNL     1       9.125   0.024  24.111  0.00  0.00    +0.031 A 
ATOM     14  C   UNL     1       8.803  -1.130  23.375  0.00  0.00    +0.067 A 
ATOM     15  C   UNL     1       9.017  -1.132  21.990  0.00  0.00    +0.031 A 
ATOM     16  C   UNL     1       9.485   0.018  21.345  0.00  0.00    +0.047 A 
BRANCH  11  17
ATOM     17  O   UNL     1      10.173   2.314  21.486  0.00  0.00    -0.507 OA
ATOM     18  H   UNL     1      10.956   2.641  21.961  0.00  0.00    +0.292 HD
ENDBRANCH  11  17
ENDBRANCH   1  14
BRANCH   8  19
ATOM     19  O   UNL     1       5.401  -6.681  26.383  0.00  0.00    -0.507 OA
ATOM     20  H   UNL     1       5.136  -6.608  27.315  0.00  0.00    +0.292 HD
ENDBRANCH   8  19
TORSDOF 3
ENDMDL
MODEL 2
REMARK VINA RESULT:      -6.5      2.095      6.532
REMARK  Name = 
REMARK  3 active torsions:
REMARK  status: ('A' for Active; 'I' for Inactive)
REMARK    1  A    between atoms: O_1  and  C_2
REMARK    2  A    between atoms: C_5  and  N_8
REMARK    3  A    between atoms: C_13  and  O_14
REMARK                            x       y       z     vdW  Elec       q    Type
REMARK                         _______ _______ _______ _____ _____    ______ ____
ROOT
ATOM      1  N   UNL     1       7.808  -2.945  23.352  0.00  0.00    -0.220 N 
ATOM      2  C   UNL     1       8.581  -2.387  24.359  0.00  0.00    +0.141 A 
ATOM      3 CL   UNL     1       8.565  -2.918  25.982  0.00  0.00    -0.061 Cl
ATOM      4  C   UNL     1       9.193  -1.293  23.819  0.00  0.00    +0.042 A 
ATOM      5  C   UNL     1       8.763  -1.220  22.452  0.00  0.00    +0.095 A 
ATOM      6  C   UNL     1       9.224  -0.192  21.609  0.00  0.00    +0.034 A 
ATOM      7  C   UNL     1      10.089   0.730  22.244  0.00  0.00    +0.047 A 
ATOM      8  C   UNL     1      10.459   0.622  23.617  0.00  0.00    +0.118 A 
ATOM      9  C   UNL     1      10.033  -0.400  24.481  0.00  0.00    +0.058 A 
ATOM     10  N   UNL     1       7.900  -2.212  22.195  0.00  0.00    -0.165 NA
ENDROOT
BRANCH   1  14
ATOM     11  C   UNL     1       5.303  -6.344  23.531  0.00  0.00    +0.117 A 
ATOM     12  C   UNL     1       5.126  -5.297  24.424  0.00  0.00    +0.047 A 
ATOM     13  C   UNL     1       5.936  -4.163  24.332  0.00  0.00    +0.031 A 
ATOM     14  C   UNL     1       6.951  -4.090  23.361  0.00  0.00    +0.067 A 
ATOM     15  C   UNL     1       7.087  -5.138  22.442  0.00  0.00    +0.031 A 
ATOM     16  C   UNL     1       6.265  -6.267  22.530  0.00  0.00    +0.047 A 
BRANCH  11  17
ATOM     17  O   UNL     1       4.506  -7.441  23.667  0.00  0.00    -0.507 OA
ATOM     18  H   UNL     1       5.062  -8.237  23.638  0.00  0.00    +0.292 HD
ENDBRANCH  11  17
ENDBRANCH   1  14
BRANCH   8  19
ATOM     19  O   UNL     1      11.282   1.570  24.174  0.00  0.00    -0.507 OA
ATOM     20  H   UNL     1      10.737   2.279  24.554  0.00  0.00    +0.292 HD
ENDBRANCH   8  19
TORSDOF 3
ENDMDL
MODEL 3
REMARK VINA RESULT:      -6.4      1.592      6.805
REMARK  Name = 
REMARK  3 active torsions:
REMARK  status: ('A' for Active; 'I' for Inactive)
REMARK    1  A    between atoms: O_1  and  C_2
REMARK    2  A    between atoms: C_5  and  N_8
REMARK    3  A    between atoms: C_13  and  O_14
REMARK                            x       y       z     vdW  Elec       q    Type
REMARK                         _______ _______ _______ _____ _____    ______ ____
ROOT
ATOM      1  N   UNL     1       8.561  -1.888  24.521  0.00  0.00    -0.220 N 
ATOM      2  C   UNL     1       9.070  -0.763  25.149  0.00  0.00    +0.141 A 
ATOM      3 CL   UNL     1       9.028  -0.508  26.838  0.00  0.00    -0.061 Cl
ATOM      4  C   UNL     1       9.444   0.100  24.160  0.00  0.00    +0.042 A 
ATOM      5  C   UNL     1       9.145  -0.552  22.917  0.00  0.00    +0.095 A 
ATOM      6  C   UNL     1       9.418   0.081  21.691  0.00  0.00    +0.034 A 
ATOM      7  C   UNL     1       9.964   1.379  21.821  0.00  0.00    +0.047 A 
ATOM      8  C   UNL     1      10.213   1.989  23.086  0.00  0.00    +0.118 A 
ATOM      9  C   UNL     1       9.970   1.379  24.327  0.00  0.00    +0.058 A 
ATOM     10  N   UNL     1       8.581  -1.744  23.156  0.00  0.00    -0.165 NA
ENDROOT
BRANCH   1  14
ATOM     11  C   UNL     1       6.826  -5.365  26.184  0.00  0.00    +0.117 A 
ATOM     12  C   UNL     1       6.081  -4.541  25.352  0.00  0.00    +0.047 A 
ATOM     13  C   UNL     1       6.676  -3.414  24.779  0.00  0.00    +0.031 A 
ATOM     14  C   UNL     1       8.015  -3.092  25.065  0.00  0.00    +0.067 A 
ATOM     15  C   UNL     1       8.762  -3.959  25.873  0.00  0.00    +0.031 A 
ATOM     16  C   UNL     1       8.166  -5.093  26.435  0.00  0.00    +0.047 A 
BRANCH  11  17
ATOM     17  O   UNL     1       6.203  -6.442  26.738  0.00  0.00    -0.507 OA
ATOM     18  H   UNL     1       5.801  -6.171  27.580  0.00  0.00    +0.292 HD
ENDBRANCH  11  17
ENDBRANCH   1  14
BRANCH   8  19
ATOM     19  O   UNL     1      10.720   3.264  23.135  0.00  0.00    -0.507 OA
ATOM     20  H   UNL     1      11.680   3.230  22.985  0.00  0.00    +0.292 HD
ENDBRANCH   8  19
TORSDOF 3
ENDMDL
MODEL 4
REMARK VINA RESULT:      -6.4      1.599      1.864
REMARK  Name = 
REMARK  3 active torsions:
REMARK  status: ('A' for Active; 'I' for Inactive)
REMARK    1  A    between atoms: O_1  and  C_2
REMARK    2  A    between atoms: C_5  and  N_8
REMARK    3  A    between atoms: C_13  and  O_14
REMARK                            x       y       z     vdW  Elec       q    Type
REMARK                         _______ _______ _______ _____ _____    ______ ____
ROOT
ATOM      1  N   UNL     1       7.154  -2.889  23.232  0.00  0.00    -0.220 N 
ATOM      2  C   UNL     1       6.411  -3.838  22.548  0.00  0.00    +0.141 A 
ATOM      3 CL   UNL     1       5.987  -3.713  20.898  0.00  0.00    -0.061 Cl
ATOM      4  C   UNL     1       5.995  -4.750  23.475  0.00  0.00    +0.042 A 
ATOM      5  C   UNL     1       6.520  -4.315  24.737  0.00  0.00    +0.095 A 
ATOM      6  C   UNL     1       6.270  -5.051  25.910  0.00  0.00    +0.034 A 
ATOM      7  C   UNL     1       5.456  -6.190  25.713  0.00  0.00    +0.047 A 
ATOM      8  C   UNL     1       4.937  -6.558  24.436  0.00  0.00    +0.118 A 
ATOM      9  C   UNL     1       5.182  -5.857  23.244  0.00  0.00    +0.058 A 
ATOM     10  N   UNL     1       7.195  -3.169  24.576  0.00  0.00    -0.165 NA
ENDROOT
BRANCH   1  14
ATOM     11  C   UNL     1       8.971   0.646  21.795  0.00  0.00    +0.117 A 
ATOM     12  C   UNL     1       7.807   0.714  22.548  0.00  0.00    +0.047 A 
ATOM     13  C   UNL     1       7.235  -0.459  23.048  0.00  0.00    +0.031 A 
ATOM     14  C   UNL     1       7.814  -1.709  22.767  0.00  0.00    +0.067 A 
ATOM     15  C   UNL     1       9.011  -1.754  22.042  0.00  0.00    +0.031 A 
ATOM     16  C   UNL     1       9.588  -0.576  21.553  0.00  0.00    +0.047 A 
BRANCH  11  17
ATOM     17  O   UNL     1       9.484   1.810  21.309  0.00  0.00    -0.507 OA
ATOM     18  H   UNL     1       9.819   1.653  20.410  0.00  0.00    +0.292 HD
ENDBRANCH  11  17
ENDBRANCH   1  14
BRANCH   8  19
ATOM     19  O   UNL     1       4.131  -7.663  24.325  0.00  0.00    -0.507 OA
ATOM     20  H   UNL     1       4.574  -8.422  24.740  0.00  0.00    +0.292 HD
ENDBRANCH   8  19
TORSDOF 3
ENDMDL
MODEL 5
REMARK VINA RESULT:      -6.3      0.871      6.529
REMARK  Name = 
REMARK  3 active torsions:
REMARK  status: ('A' for Active; 'I' for Inactive)
REMARK    1  A    between atoms: O_1  and  C_2
REMARK    2  A    between atoms: C_5  and  N_8
REMARK    3  A    between atoms: C_13  and  O_14
REMARK                            x       y       z     vdW  Elec       q    Type
REMARK                         _______ _______ _______ _____ _____    ______ ____
ROOT
ATOM      1  N   UNL     1       8.249  -2.261  24.687  0.00  0.00    -0.220 N 
ATOM      2  C   UNL     1       8.152  -1.779  23.392  0.00  0.00    +0.141 A 
ATOM      3 CL   UNL     1       7.387  -2.615  22.114  0.00  0.00    -0.061 Cl
ATOM      4  C   UNL     1       8.895  -0.634  23.345  0.00  0.00    +0.042 A 
ATOM      5  C   UNL     1       9.436  -0.447  24.661  0.00  0.00    +0.095 A 
ATOM      6  C   UNL     1      10.255   0.660  24.949  0.00  0.00    +0.034 A 
ATOM      7  C   UNL     1      10.497   1.502  23.840  0.00  0.00    +0.047 A 
ATOM      8  C   UNL     1       9.955   1.249  22.545  0.00  0.00    +0.118 A 
ATOM      9  C   UNL     1       9.119   0.166  22.227  0.00  0.00    +0.058 A 
ATOM     10  N   UNL     1       9.058  -1.460  25.453  0.00  0.00    -0.165 NA
ENDROOT
BRANCH   1  14
ATOM     11  C   UNL     1       6.460  -5.631  26.505  0.00  0.00    +0.117 A 
ATOM     12  C   UNL     1       5.777  -4.916  25.531  0.00  0.00    +0.047 A 
ATOM     13  C   UNL     1       6.393  -3.827  24.911  0.00  0.00    +0.031 A 
ATOM     14  C   UNL     1       7.687  -3.429  25.291  0.00  0.00    +0.067 A 
ATOM     15  C   UNL     1       8.376  -4.188  26.246  0.00  0.00    +0.031 A 
ATOM     16  C   UNL     1       7.760  -5.286  26.856  0.00  0.00    +0.047 A 
BRANCH  11  17
ATOM     17  O   UNL     1       5.816  -6.674  27.100  0.00  0.00    -0.507 OA
ATOM     18  H   UNL     1       6.416  -7.438  27.126  0.00  0.00    +0.292 HD
ENDBRANCH  11  17
ENDBRANCH   1  14
BRANCH   8  19
ATOM     19  O   UNL     1      10.254   2.098  21.507  0.00  0.00    -0.507 OA
ATOM     20  H   UNL     1       9.571   2.013  20.822  0.00  0.00    +0.292 HD
ENDBRANCH   8  19
TORSDOF 3
ENDMDL
MODEL 6
REMARK VINA RESULT:      -6.3      1.628      6.715
REMARK  Name = 
REMARK  3 active torsions:
REMARK  status: ('A' for Active; 'I' for Inactive)
REMARK    1  A    between atoms: O_1  and  C_2
REMARK    2  A    between atoms: C_5  and  N_8
REMARK    3  A    between atoms: C_13  and  O_14
REMARK                            x       y       z     vdW  Elec       q    Type
REMARK                         _______ _______ _______ _____ _____    ______ ____
ROOT
ATOM      1  N   UNL     1       7.481  -2.049  23.944  0.00  0.00    -0.220 N 
ATOM      2  C   UNL     1       8.763  -1.732  23.524  0.00  0.00    +0.141 A 
ATOM      3 CL   UNL     1      10.141  -2.688  23.853  0.00  0.00    -0.061 Cl
ATOM      4  C   UNL     1       8.694  -0.489  22.965  0.00  0.00    +0.042 A 
ATOM      5  C   UNL     1       7.324  -0.075  23.060  0.00  0.00    +0.095 A 
ATOM      6  C   UNL     1       6.915   1.176  22.563  0.00  0.00    +0.034 A 
ATOM      7  C   UNL     1       7.966   1.950  22.018  0.00  0.00    +0.047 A 
ATOM      8  C   UNL     1       9.318   1.498  21.977  0.00  0.00    +0.118 A 
ATOM      9  C   UNL     1       9.756   0.249  22.446  0.00  0.00    +0.058 A 
ATOM     10  N   UNL     1       6.608  -1.021  23.684  0.00  0.00    -0.165 NA
ENDROOT
BRANCH   1  14
ATOM     11  C   UNL     1       6.128  -5.503  25.969  0.00  0.00    +0.117 A 
ATOM     12  C   UNL     1       6.685  -4.448  26.679  0.00  0.00    +0.047 A 
ATOM     13  C   UNL     1       7.095  -3.297  26.003  0.00  0.00    +0.031 A 
ATOM     14  C   UNL     1       6.977  -3.212  24.604  0.00  0.00    +0.067 A 
ATOM     15  C   UNL     1       6.375  -4.269  23.910  0.00  0.00    +0.031 A 
ATOM     16  C   UNL     1       5.954  -5.416  24.593  0.00  0.00    +0.047 A 
BRANCH  11  17
ATOM     17  O   UNL     1       5.760  -6.616  26.664  0.00  0.00    -0.507 OA
ATOM     18  H   UNL     1       6.064  -7.401  26.179  0.00  0.00    +0.292 HD
ENDBRANCH  11  17
ENDBRANCH   1  14
BRANCH   8  19
ATOM     19  O   UNL     1      10.290   2.316  21.457  0.00  0.00    -0.507 OA
ATOM     20  H   UNL     1      10.747   1.847  20.738  0.00  0.00    +0.292 HD
ENDBRANCH   8  19
TORSDOF 3
ENDMDL
MODEL 7
REMARK VINA RESULT:      -6.3      1.556      2.366
REMARK  Name = 
REMARK  3 active torsions:
REMARK  status: ('A' for Active; 'I' for Inactive)
REMARK    1  A    between atoms: O_1  and  C_2
REMARK    2  A    between atoms: C_5  and  N_8
REMARK    3  A    between atoms: C_13  and  O_14
REMARK                            x       y       z     vdW  Elec       q    Type
REMARK                         _______ _______ _______ _____ _____    ______ ____
ROOT
ATOM      1  N   UNL     1       7.392  -2.226  23.569  0.00  0.00    -0.220 N 
ATOM      2  C   UNL     1       7.430  -2.720  24.863  0.00  0.00    +0.141 A 
ATOM      3 CL   UNL     1       8.382  -2.050  26.114  0.00  0.00    -0.061 Cl
ATOM      4  C   UNL     1       6.704  -3.875  24.862  0.00  0.00    +0.042 A 
ATOM      5  C   UNL     1       6.226  -4.053  23.521  0.00  0.00    +0.095 A 
ATOM      6  C   UNL     1       5.431  -5.164  23.184  0.00  0.00    +0.034 A 
ATOM      7  C   UNL     1       5.201  -6.054  24.258  0.00  0.00    +0.047 A 
ATOM      8  C   UNL     1       5.728  -5.841  25.566  0.00  0.00    +0.118 A 
ATOM      9  C   UNL     1       6.507  -4.735  25.941  0.00  0.00    +0.058 A 
ATOM     10  N   UNL     1       6.678  -3.059  22.744  0.00  0.00    -0.165 NA
ENDROOT
BRANCH   1  14
ATOM     11  C   UNL     1       9.294   1.167  21.917  0.00  0.00    +0.117 A 
ATOM     12  C   UNL     1       9.669  -0.108  21.519  0.00  0.00    +0.047 A 
ATOM     13  C   UNL     1       9.008  -1.221  22.044  0.00  0.00    +0.031 A 
ATOM     14  C   UNL     1       7.988  -1.059  22.999  0.00  0.00    +0.067 A 
ATOM     15  C   UNL     1       7.595   0.237  23.356  0.00  0.00    +0.031 A 
ATOM     16  C   UNL     1       8.251   1.350  22.818  0.00  0.00    +0.047 A 
BRANCH  11  17
ATOM     17  O   UNL     1       9.977   2.225  21.396  0.00  0.00    -0.507 OA
ATOM     18  H   UNL     1       9.557   2.487  20.560  0.00  0.00    +0.292 HD
ENDBRANCH  11  17
ENDBRANCH   1  14
BRANCH   8  19
ATOM     19  O   UNL     1       5.484  -6.763  26.554  0.00  0.00    -0.507 OA
ATOM     20  H   UNL     1       4.557  -7.049  26.499  0.00  0.00    +0.292 HD
ENDBRANCH   8  19
TORSDOF 3
ENDMDL
MODEL 8
REMARK VINA RESULT:      -6.2      2.373      2.793
REMARK  Name = 
REMARK  3 active torsions:
REMARK  status: ('A' for Active; 'I' for Inactive)
REMARK    1  A    between atoms: O_1  and  C_2
REMARK    2  A    between atoms: C_5  and  N_8
REMARK    3  A    between atoms: C_13  and  O_14
REMARK                            x       y       z     vdW  Elec       q    Type
REMARK                         _______ _______ _______ _____ _____    ______ ____
ROOT
ATOM      1  N   UNL     1       8.609  -0.553  24.129  0.00  0.00    -0.220 N 
ATOM      2  C   UNL     1       9.440  -1.597  23.754  0.00  0.00    +0.141 A 
ATOM      3 CL   UNL     1      10.429  -1.580  22.362  0.00  0.00    -0.061 Cl
ATOM      4  C   UNL     1       9.181  -2.628  24.611  0.00  0.00    +0.042 A 
ATOM      5  C   UNL     1       8.169  -2.161  25.514  0.00  0.00    +0.095 A 
ATOM      6  C   UNL     1       7.677  -2.996  26.535  0.00  0.00    +0.034 A 
ATOM      7  C   UNL     1       8.245  -4.291  26.543  0.00  0.00    +0.047 A 
ATOM      8  C   UNL     1       9.229  -4.709  25.599  0.00  0.00    +0.118 A 
ATOM      9  C   UNL     1       9.754  -3.897  24.581  0.00  0.00    +0.058 A 
ATOM     10  N   UNL     1       7.812  -0.911  25.188  0.00  0.00    -0.165 NA
ENDROOT
BRANCH   1  14
ATOM     11  C   UNL     1       8.084   3.364  22.630  0.00  0.00    +0.117 A 
ATOM     12  C   UNL     1       8.798   3.152  23.801  0.00  0.00    +0.047 A 
ATOM     13  C   UNL     1       8.996   1.851  24.267  0.00  0.00    +0.031 A 
ATOM     14  C   UNL     1       8.449   0.755  23.575  0.00  0.00    +0.067 A 
ATOM     15  C   UNL     1       7.769   0.985  22.373  0.00  0.00    +0.031 A 
ATOM     16  C   UNL     1       7.583   2.290  21.902  0.00  0.00    +0.047 A 
BRANCH  11  17
ATOM     17  O   UNL     1       7.896   4.650  22.220  0.00  0.00    -0.507 OA
ATOM     18  H   UNL     1       7.018   4.945  22.511  0.00  0.00    +0.292 HD
ENDBRANCH  11  17
ENDBRANCH   1  14
BRANCH   8  19
ATOM     19  O   UNL     1       9.717  -5.992  25.652  0.00  0.00    -0.507 OA
ATOM     20  H   UNL     1      10.223  -6.172  24.843  0.00  0.00    +0.292 HD
ENDBRANCH   8  19
TORSDOF 3
ENDMDL
MODEL 9
REMARK VINA RESULT:      -6.2      2.475      2.731
REMARK  Name = 
REMARK  3 active torsions:
REMARK  status: ('A' for Active; 'I' for Inactive)
REMARK    1  A    between atoms: O_1  and  C_2
REMARK    2  A    between atoms: C_5  and  N_8
REMARK    3  A    between atoms: C_13  and  O_14
REMARK                            x       y       z     vdW  Elec       q    Type
REMARK                         _______ _______ _______ _____ _____    ______ ____
ROOT
ATOM      1  N   UNL     1       7.761  -2.063  22.988  0.00  0.00    -0.220 N 
ATOM      2  C   UNL     1       6.478  -2.284  23.463  0.00  0.00    +0.141 A 
ATOM      3 CL   UNL     1       5.650  -1.220  24.512  0.00  0.00    -0.061 Cl
ATOM      4  C   UNL     1       6.119  -3.535  23.050  0.00  0.00    +0.042 A 
ATOM      5  C   UNL     1       7.231  -4.053  22.307  0.00  0.00    +0.095 A 
ATOM      6  C   UNL     1       7.178  -5.337  21.736  0.00  0.00    +0.034 A 
ATOM      7  C   UNL     1       5.974  -6.033  21.996  0.00  0.00    +0.047 A 
ATOM      8  C   UNL     1       4.911  -5.477  22.767  0.00  0.00    +0.118 A 
ATOM      9  C   UNL     1       4.924  -4.193  23.335  0.00  0.00    +0.058 A 
ATOM     10  N   UNL     1       8.230  -3.159  22.306  0.00  0.00    -0.165 NA
ENDROOT
BRANCH   1  14
ATOM     11  C   UNL     1      10.239   1.315  23.541  0.00  0.00    +0.117 A 
ATOM     12  C   UNL     1       9.996   0.446  24.595  0.00  0.00    +0.047 A 
ATOM     13  C   UNL     1       9.205  -0.687  24.391  0.00  0.00    +0.031 A 
ATOM     14  C   UNL     1       8.627  -0.935  23.133  0.00  0.00    +0.067 A 
ATOM     15  C   UNL     1       8.918  -0.070  22.071  0.00  0.00    +0.031 A 
ATOM     16  C   UNL     1       9.722   1.058  22.277  0.00  0.00    +0.047 A 
BRANCH  11  17
ATOM     17  O   UNL     1      10.999   2.419  23.787  0.00  0.00    -0.507 OA
ATOM     18  H   UNL     1      11.140   2.494  24.745  0.00  0.00    +0.292 HD
ENDBRANCH  11  17
ENDBRANCH   1  14
BRANCH   8  19
ATOM     19  O   UNL     1       3.782  -6.222  23.001  0.00  0.00    -0.507 OA
ATOM     20  H   UNL     1       3.652  -6.840  22.262  0.00  0.00    +0.292 HD
ENDBRANCH   8  19
TORSDOF 3
ENDMDL
