MODEL 1
REMARK VINA RESULT:      -7.1      0.000      0.000
REMARK  Name = 
REMARK  1 active torsions:
REMARK  status: ('A' for Active; 'I' for Inactive)
REMARK    1  A    between atoms: N_3  and  C_4
REMARK                            x       y       z     vdW  Elec       q    Type
REMARK                         _______ _______ _______ _____ _____    ______ ____
ROOT
ATOM      1  O   UNL     1       8.820  -1.478  26.583  0.00  0.00    -0.270 OA
ATOM      2  C   UNL     1       8.669  -1.862  25.440  0.00  0.00    +0.254 C 
ATOM      3  C   UNL     1       9.164  -1.141  24.259  0.00  0.00    +0.049 A 
ATOM      4  C   UNL     1       8.821  -1.885  23.146  0.00  0.00    +0.049 A 
ATOM      5  C   UNL     1       9.134  -1.487  21.861  0.00  0.00    +0.014 A 
ATOM      6  C   UNL     1       9.818  -0.275  21.720  0.00  0.00    +0.001 A 
ATOM      7  C   UNL     1      10.165   0.492  22.852  0.00  0.00    +0.001 A 
ATOM      8  C   UNL     1       8.098  -3.061  23.609  0.00  0.00    +0.254 C 
ATOM      9  O   UNL     1       7.654  -3.923  22.877  0.00  0.00    -0.270 OA
ATOM     10  C   UNL     1       9.838   0.060  24.143  0.00  0.00    +0.014 A 
ATOM     11  N   UNL     1       8.018  -2.969  24.975  0.00  0.00    -0.222 N 
ENDROOT
BRANCH  11  12
ATOM     12  C   UNL     1       7.407  -4.034  25.752  0.00  0.00    +0.171 C 
ATOM     13  C   UNL     1       8.461  -4.984  26.324  0.00  0.00    +0.240 C 
ATOM     14  O   UNL     1       9.669  -4.892  26.125  0.00  0.00    -0.273 OA
ATOM     15  N   UNL     1       7.943  -5.992  27.110  0.00  0.00    -0.255 N 
ATOM     16  H   UNL     1       8.615  -6.663  27.459  0.00  0.00    +0.158 HD
ATOM     17  C   UNL     1       6.774  -5.925  27.828  0.00  0.00    +0.219 C 
ATOM     18  O   UNL     1       6.539  -6.729  28.725  0.00  0.00    -0.275 OA
ATOM     19  C   UNL     1       5.792  -4.839  27.437  0.00  0.00    +0.098 C 
ATOM     20  C   UNL     1       6.506  -3.601  26.904  0.00  0.00    +0.041 C 
ENDBRANCH  11  12
TORSDOF 1
ENDMDL
MODEL 2
REMARK VINA RESULT:      -7.1      0.909      2.220
REMARK  Name = 
REMARK  1 active torsions:
REMARK  status: ('A' for Active; 'I' for Inactive)
REMARK    1  A    between atoms: N_3  and  C_4
REMARK                            x       y       z     vdW  Elec       q    Type
REMARK                         _______ _______ _______ _____ _____    ______ ____
ROOT
ATOM      1  O   UNL     1       7.821  -2.900  22.313  0.00  0.00    -0.270 OA
ATOM      2  C   UNL     1       8.280  -2.166  23.165  0.00  0.00    +0.254 C 
ATOM      3  C   UNL     1       8.933  -0.881  22.878  0.00  0.00    +0.049 A 
ATOM      4  C   UNL     1       9.309  -0.327  24.087  0.00  0.00    +0.049 A 
ATOM      5  C   UNL     1       9.959   0.888  24.177  0.00  0.00    +0.014 A 
ATOM      6  C   UNL     1      10.237   1.550  22.977  0.00  0.00    +0.001 A 
ATOM      7  C   UNL     1       9.864   0.986  21.740  0.00  0.00    +0.001 A 
ATOM      8  C   UNL     1       8.915  -1.256  25.137  0.00  0.00    +0.254 C 
ATOM      9  O   UNL     1       9.102  -1.067  26.323  0.00  0.00    -0.270 OA
ATOM     10  C   UNL     1       9.201  -0.246  21.680  0.00  0.00    +0.014 A 
ATOM     11  N   UNL     1       8.338  -2.336  24.520  0.00  0.00    -0.222 N 
ENDROOT
BRANCH  11  12
ATOM     12  C   UNL     1       7.774  -3.421  25.305  0.00  0.00    +0.171 C 
ATOM     13  C   UNL     1       8.798  -4.533  25.537  0.00  0.00    +0.240 C 
ATOM     14  O   UNL     1       9.940  -4.538  25.088  0.00  0.00    -0.273 OA
ATOM     15  N   UNL     1       8.333  -5.573  26.315  0.00  0.00    -0.255 N 
ATOM     16  H   UNL     1       8.976  -6.345  26.442  0.00  0.00    +0.158 HD
ATOM     17  C   UNL     1       7.356  -5.477  27.275  0.00  0.00    +0.219 C 
ATOM     18  O   UNL     1       7.213  -6.357  28.118  0.00  0.00    -0.275 OA
ATOM     19  C   UNL     1       6.455  -4.260  27.215  0.00  0.00    +0.098 C 
ATOM     20  C   UNL     1       7.190  -3.044  26.662  0.00  0.00    +0.041 C 
ENDBRANCH  11  12
TORSDOF 1
ENDMDL
MODEL 3
REMARK VINA RESULT:      -6.7      1.991      2.383
REMARK  Name = 
REMARK  1 active torsions:
REMARK  status: ('A' for Active; 'I' for Inactive)
REMARK    1  A    between atoms: N_3  and  C_4
REMARK                            x       y       z     vdW  Elec       q    Type
REMARK                         _______ _______ _______ _____ _____    ______ ____
ROOT
ATOM      1  O   UNL     1       5.921  -1.038  24.281  0.00  0.00    -0.270 OA
ATOM      2  C   UNL     1       7.042  -1.047  23.812  0.00  0.00    +0.254 C 
ATOM      3  C   UNL     1       7.600   0.039  22.996  0.00  0.00    +0.049 A 
ATOM      4  C   UNL     1       8.892  -0.316  22.660  0.00  0.00    +0.049 A 
ATOM      5  C   UNL     1       9.707   0.487  21.886  0.00  0.00    +0.014 A 
ATOM      6  C   UNL     1       9.164   1.695  21.435  0.00  0.00    +0.001 A 
ATOM      7  C   UNL     1       7.843   2.060  21.768  0.00  0.00    +0.001 A 
ATOM      8  C   UNL     1       9.154  -1.625  23.243  0.00  0.00    +0.254 C 
ATOM      9  O   UNL     1      10.205  -2.224  23.134  0.00  0.00    -0.270 OA
ATOM     10  C   UNL     1       7.042   1.226  22.559  0.00  0.00    +0.014 A 
ATOM     11  N   UNL     1       8.006  -2.012  23.887  0.00  0.00    -0.222 N 
ENDROOT
BRANCH  11  12
ATOM     12  C   UNL     1       7.963  -3.257  24.633  0.00  0.00    +0.171 C 
ATOM     13  C   UNL     1       8.330  -3.041  26.103  0.00  0.00    +0.240 C 
ATOM     14  O   UNL     1       8.660  -1.964  26.591  0.00  0.00    -0.273 OA
ATOM     15  N   UNL     1       8.264  -4.182  26.874  0.00  0.00    -0.255 N 
ATOM     16  H   UNL     1       8.551  -4.075  27.839  0.00  0.00    +0.158 HD
ATOM     17  C   UNL     1       7.450  -5.262  26.635  0.00  0.00    +0.219 C 
ATOM     18  O   UNL     1       7.228  -6.090  27.512  0.00  0.00    -0.275 OA
ATOM     19  C   UNL     1       6.875  -5.390  25.238  0.00  0.00    +0.098 C 
ATOM     20  C   UNL     1       6.645  -4.024  24.598  0.00  0.00    +0.041 C 
ENDBRANCH  11  12
TORSDOF 1
ENDMDL
MODEL 4
REMARK VINA RESULT:      -6.6      3.292      6.307
REMARK  Name = 
REMARK  1 active torsions:
REMARK  status: ('A' for Active; 'I' for Inactive)
REMARK    1  A    between atoms: N_3  and  C_4
REMARK                            x       y       z     vdW  Elec       q    Type
REMARK                         _______ _______ _______ _____ _____    ______ ____
ROOT
ATOM      1  O   UNL     1       6.272  -0.519  22.843  0.00  0.00    -0.270 OA
ATOM      2  C   UNL     1       7.023  -1.454  23.038  0.00  0.00    +0.254 C 
ATOM      3  C   UNL     1       6.619  -2.864  22.953  0.00  0.00    +0.049 A 
ATOM      4  C   UNL     1       7.736  -3.632  23.220  0.00  0.00    +0.049 A 
ATOM      5  C   UNL     1       7.704  -5.013  23.228  0.00  0.00    +0.014 A 
ATOM      6  C   UNL     1       6.474  -5.621  22.958  0.00  0.00    +0.001 A 
ATOM      7  C   UNL     1       5.328  -4.842  22.693  0.00  0.00    +0.001 A 
ATOM      8  C   UNL     1       8.841  -2.722  23.489  0.00  0.00    +0.254 C 
ATOM      9  O   UNL     1       9.970  -3.079  23.760  0.00  0.00    -0.270 OA
ATOM     10  C   UNL     1       5.393  -3.443  22.687  0.00  0.00    +0.014 A 
ATOM     11  N   UNL     1       8.342  -1.448  23.393  0.00  0.00    -0.222 N 
ENDROOT
BRANCH  11  12
ATOM     12  C   UNL     1       9.218  -0.299  23.545  0.00  0.00    +0.171 C 
ATOM     13  C   UNL     1       9.598   0.296  22.188  0.00  0.00    +0.240 C 
ATOM     14  O   UNL     1       9.247  -0.156  21.102  0.00  0.00    -0.273 OA
ATOM     15  N   UNL     1      10.395   1.419  22.268  0.00  0.00    -0.255 N 
ATOM     16  H   UNL     1      10.702   1.802  21.383  0.00  0.00    +0.158 HD
ATOM     17  C   UNL     1      10.421   2.306  23.316  0.00  0.00    +0.219 C 
ATOM     18  O   UNL     1      10.919   3.420  23.186  0.00  0.00    -0.275 OA
ATOM     19  C   UNL     1       9.840   1.829  24.632  0.00  0.00    +0.098 C 
ATOM     20  C   UNL     1       8.698   0.840  24.416  0.00  0.00    +0.041 C 
ENDBRANCH  11  12
TORSDOF 1
ENDMDL
MODEL 5
REMARK VINA RESULT:      -6.6      2.868      6.333
REMARK  Name = 
REMARK  1 active torsions:
REMARK  status: ('A' for Active; 'I' for Inactive)
REMARK    1  A    between atoms: N_3  and  C_4
REMARK                            x       y       z     vdW  Elec       q    Type
REMARK                         _______ _______ _______ _____ _____    ______ ____
ROOT
ATOM      1  O   UNL     1       7.945  -3.285  25.214  0.00  0.00    -0.270 OA
ATOM      2  C   UNL     1       7.191  -3.637  24.329  0.00  0.00    +0.254 C 
ATOM      3  C   UNL     1       6.215  -4.727  24.467  0.00  0.00    +0.049 A 
ATOM      4  C   UNL     1       5.532  -4.825  23.269  0.00  0.00    +0.049 A 
ATOM      5  C   UNL     1       4.539  -5.761  23.055  0.00  0.00    +0.014 A 
ATOM      6  C   UNL     1       4.247  -6.630  24.110  0.00  0.00    +0.001 A 
ATOM      7  C   UNL     1       4.946  -6.540  25.332  0.00  0.00    +0.001 A 
ATOM      8  C   UNL     1       6.077  -3.819  22.369  0.00  0.00    +0.254 C 
ATOM      9  O   UNL     1       5.693  -3.641  21.230  0.00  0.00    -0.270 OA
ATOM     10  C   UNL     1       5.945  -5.578  25.522  0.00  0.00    +0.014 A 
ATOM     11  N   UNL     1       7.075  -3.171  23.050  0.00  0.00    -0.222 N 
ENDROOT
BRANCH  11  12
ATOM     12  C   UNL     1       7.780  -2.055  22.443  0.00  0.00    +0.171 C 
ATOM     13  C   UNL     1       7.254  -0.715  22.961  0.00  0.00    +0.240 C 
ATOM     14  O   UNL     1       6.328  -0.586  23.756  0.00  0.00    -0.273 OA
ATOM     15  N   UNL     1       7.915   0.384  22.452  0.00  0.00    -0.255 N 
ATOM     16  H   UNL     1       7.553   1.284  22.741  0.00  0.00    +0.158 HD
ATOM     17  C   UNL     1       9.218   0.402  22.020  0.00  0.00    +0.219 C 
ATOM     18  O   UNL     1       9.818   1.463  21.870  0.00  0.00    -0.275 OA
ATOM     19  C   UNL     1       9.856  -0.937  21.712  0.00  0.00    +0.098 C 
ATOM     20  C   UNL     1       9.297  -2.044  22.600  0.00  0.00    +0.041 C 
ENDBRANCH  11  12
TORSDOF 1
ENDMDL
MODEL 6
REMARK VINA RESULT:      -6.4      2.500      3.371
REMARK  Name = 
REMARK  1 active torsions:
REMARK  status: ('A' for Active; 'I' for Inactive)
REMARK    1  A    between atoms: N_3  and  C_4
REMARK                            x       y       z     vdW  Elec       q    Type
REMARK                         _______ _______ _______ _____ _____    ______ ____
ROOT
ATOM      1  O   UNL     1       6.299  -0.754  23.180  0.00  0.00    -0.270 OA
ATOM      2  C   UNL     1       7.478  -0.978  23.368  0.00  0.00    +0.254 C 
ATOM      3  C   UNL     1       8.482   0.065  23.621  0.00  0.00    +0.049 A 
ATOM      4  C   UNL     1       9.698  -0.565  23.803  0.00  0.00    +0.049 A 
ATOM      5  C   UNL     1      10.865   0.129  24.057  0.00  0.00    +0.014 A 
ATOM      6  C   UNL     1      10.773   1.523  24.117  0.00  0.00    +0.001 A 
ATOM      7  C   UNL     1       9.537   2.173  23.925  0.00  0.00    +0.001 A 
ATOM      8  C   UNL     1       9.477  -1.997  23.651  0.00  0.00    +0.254 C 
ATOM      9  O   UNL     1      10.349  -2.838  23.751  0.00  0.00    -0.270 OA
ATOM     10  C   UNL     1       8.369   1.442  23.674  0.00  0.00    +0.014 A 
ATOM     11  N   UNL     1       8.147  -2.169  23.366  0.00  0.00    -0.222 N 
ENDROOT
BRANCH  11  12
ATOM     12  C   UNL     1       7.589  -3.502  23.222  0.00  0.00    +0.171 C 
ATOM     13  C   UNL     1       6.910  -3.967  24.511  0.00  0.00    +0.240 C 
ATOM     14  O   UNL     1       6.872  -3.320  25.554  0.00  0.00    -0.273 OA
ATOM     15  N   UNL     1       6.322  -5.211  24.422  0.00  0.00    -0.255 N 
ATOM     16  H   UNL     1       5.910  -5.562  25.277  0.00  0.00    +0.158 HD
ATOM     17  C   UNL     1       5.832  -5.782  23.273  0.00  0.00    +0.219 C 
ATOM     18  O   UNL     1       5.065  -6.739  23.322  0.00  0.00    -0.275 OA
ATOM     19  C   UNL     1       6.309  -5.195  21.960  0.00  0.00    +0.098 C 
ATOM     20  C   UNL     1       6.594  -3.701  22.083  0.00  0.00    +0.041 C 
ENDBRANCH  11  12
TORSDOF 1
ENDMDL
MODEL 7
REMARK VINA RESULT:      -6.4      1.879      2.295
REMARK  Name = 
REMARK  1 active torsions:
REMARK  status: ('A' for Active; 'I' for Inactive)
REMARK    1  A    between atoms: N_3  and  C_4
REMARK                            x       y       z     vdW  Elec       q    Type
REMARK                         _______ _______ _______ _____ _____    ______ ____
ROOT
ATOM      1  O   UNL     1      10.349  -2.611  23.338  0.00  0.00    -0.270 OA
ATOM      2  C   UNL     1       9.307  -1.986  23.353  0.00  0.00    +0.254 C 
ATOM      3  C   UNL     1       9.144  -0.647  22.770  0.00  0.00    +0.049 A 
ATOM      4  C   UNL     1       7.830  -0.268  22.963  0.00  0.00    +0.049 A 
ATOM      5  C   UNL     1       7.337   0.950  22.536  0.00  0.00    +0.014 A 
ATOM      6  C   UNL     1       8.235   1.809  21.896  0.00  0.00    +0.001 A 
ATOM      7  C   UNL     1       9.580   1.432  21.703  0.00  0.00    +0.001 A 
ATOM      8  C   UNL     1       7.161  -1.347  23.676  0.00  0.00    +0.254 C 
ATOM      9  O   UNL     1       5.991  -1.329  24.003  0.00  0.00    -0.270 OA
ATOM     10  C   UNL     1      10.050   0.188  22.143  0.00  0.00    +0.014 A 
ATOM     11  N   UNL     1       8.101  -2.320  23.901  0.00  0.00    -0.222 N 
ENDROOT
BRANCH  11  12
ATOM     12  C   UNL     1       7.731  -3.570  24.541  0.00  0.00    +0.171 C 
ATOM     13  C   UNL     1       7.850  -3.475  26.063  0.00  0.00    +0.240 C 
ATOM     14  O   UNL     1       8.246  -2.487  26.674  0.00  0.00    -0.273 OA
ATOM     15  N   UNL     1       7.470  -4.621  26.731  0.00  0.00    -0.255 N 
ATOM     16  H   UNL     1       7.587  -4.601  27.736  0.00  0.00    +0.158 HD
ATOM     17  C   UNL     1       6.558  -5.543  26.279  0.00  0.00    +0.219 C 
ATOM     18  O   UNL     1       6.054  -6.358  27.045  0.00  0.00    -0.275 OA
ATOM     19  C   UNL     1       6.237  -5.520  24.798  0.00  0.00    +0.098 C 
ATOM     20  C   UNL     1       6.341  -4.110  24.223  0.00  0.00    +0.041 C 
ENDBRANCH  11  12
TORSDOF 1
ENDMDL
MODEL 8
REMARK VINA RESULT:      -6.4      2.868      3.697
REMARK  Name = 
REMARK  1 active torsions:
REMARK  status: ('A' for Active; 'I' for Inactive)
REMARK    1  A    between atoms: N_3  and  C_4
REMARK                            x       y       z     vdW  Elec       q    Type
REMARK                         _______ _______ _______ _____ _____    ______ ____
ROOT
ATOM      1  O   UNL     1       6.337  -0.847  24.177  0.00  0.00    -0.270 OA
ATOM      2  C   UNL     1       7.446  -0.722  23.696  0.00  0.00    +0.254 C 
ATOM      3  C   UNL     1       8.287   0.471  23.870  0.00  0.00    +0.049 A 
ATOM      4  C   UNL     1       9.473   0.244  23.199  0.00  0.00    +0.049 A 
ATOM      5  C   UNL     1      10.493   1.174  23.156  0.00  0.00    +0.014 A 
ATOM      6  C   UNL     1      10.276   2.384  23.822  0.00  0.00    +0.001 A 
ATOM      7  C   UNL     1       9.065   2.626  24.503  0.00  0.00    +0.001 A 
ATOM      8  C   UNL     1       9.386  -1.075  22.587  0.00  0.00    +0.254 C 
ATOM      9  O   UNL     1      10.268  -1.580  21.921  0.00  0.00    -0.270 OA
ATOM     10  C   UNL     1       8.051   1.660  24.533  0.00  0.00    +0.014 A 
ATOM     11  N   UNL     1       8.148  -1.579  22.897  0.00  0.00    -0.222 N 
ENDROOT
BRANCH  11  12
ATOM     12  C   UNL     1       7.773  -2.920  22.485  0.00  0.00    +0.171 C 
ATOM     13  C   UNL     1       8.076  -3.946  23.578  0.00  0.00    +0.240 C 
ATOM     14  O   UNL     1       8.607  -3.687  24.654  0.00  0.00    -0.273 OA
ATOM     15  N   UNL     1       7.700  -5.235  23.261  0.00  0.00    -0.255 N 
ATOM     16  H   UNL     1       7.936  -5.940  23.948  0.00  0.00    +0.158 HD
ATOM     17  C   UNL     1       6.681  -5.583  22.409  0.00  0.00    +0.219 C 
ATOM     18  O   UNL     1       6.217  -6.719  22.413  0.00  0.00    -0.275 OA
ATOM     19  C   UNL     1       6.191  -4.512  21.455  0.00  0.00    +0.098 C 
ATOM     20  C   UNL     1       6.321  -3.118  22.061  0.00  0.00    +0.041 C 
ENDBRANCH  11  12
TORSDOF 1
ENDMDL
MODEL 9
REMARK VINA RESULT:      -6.3      4.078      6.371
REMARK  Name = 
REMARK  1 active torsions:
REMARK  status: ('A' for Active; 'I' for Inactive)
REMARK    1  A    between atoms: N_3  and  C_4
REMARK                            x       y       z     vdW  Elec       q    Type
REMARK                         _______ _______ _______ _____ _____    ______ ____
ROOT
ATOM      1  O   UNL     1       6.944   1.742  22.223  0.00  0.00    -0.270 OA
ATOM      2  C   UNL     1       7.843   2.453  22.625  0.00  0.00    +0.254 C 
ATOM      3  C   UNL     1       7.755   3.917  22.712  0.00  0.00    +0.049 A 
ATOM      4  C   UNL     1       8.954   4.375  23.225  0.00  0.00    +0.049 A 
ATOM      5  C   UNL     1       9.210   5.716  23.432  0.00  0.00    +0.014 A 
ATOM      6  C   UNL     1       8.197   6.616  23.089  0.00  0.00    +0.001 A 
ATOM      7  C   UNL     1       6.974   6.157  22.557  0.00  0.00    +0.001 A 
ATOM      8  C   UNL     1       9.807   3.216  23.450  0.00  0.00    +0.254 C 
ATOM      9  O   UNL     1      10.935   3.273  23.898  0.00  0.00    -0.270 OA
ATOM     10  C   UNL     1       6.742   4.789  22.363  0.00  0.00    +0.014 A 
ATOM     11  N   UNL     1       9.098   2.113  23.046  0.00  0.00    -0.222 N 
ENDROOT
BRANCH  11  12
ATOM     12  C   UNL     1       9.652   0.780  23.204  0.00  0.00    +0.171 C 
ATOM     13  C   UNL     1       9.149   0.114  24.486  0.00  0.00    +0.240 C 
ATOM     14  O   UNL     1       8.404   0.644  25.305  0.00  0.00    -0.273 OA
ATOM     15  N   UNL     1       9.608  -1.174  24.669  0.00  0.00    -0.255 N 
ATOM     16  H   UNL     1       9.329  -1.618  25.535  0.00  0.00    +0.158 HD
ATOM     17  C   UNL     1       9.968  -2.043  23.669  0.00  0.00    +0.219 C 
ATOM     18  O   UNL     1      10.073  -3.246  23.887  0.00  0.00    -0.275 OA
ATOM     19  C   UNL     1      10.256  -1.440  22.309  0.00  0.00    +0.098 C 
ATOM     20  C   UNL     1       9.412  -0.195  22.056  0.00  0.00    +0.041 C 
ENDBRANCH  11  12
TORSDOF 1
ENDMDL
