MODEL 1
REMARK VINA RESULT:      -6.9      0.000      0.000
REMARK  Name = 
REMARK  3 active torsions:
REMARK  status: ('A' for Active; 'I' for Inactive)
REMARK    1  A    between atoms: C_1  and  C_2
REMARK    2  A    between atoms: C_2  and  C_7
REMARK    3  A    between atoms: C_13  and  C_14
REMARK                            x       y       z     vdW  Elec       q    Type
REMARK                         _______ _______ _______ _____ _____    ______ ____
ROOT
ATOM      1  C   UNL     1       8.707  -1.209  23.245  0.00  0.00    +0.128 A 
ATOM      2  N   UNL     1       9.080  -2.311  23.984  0.00  0.00    -0.340 N 
ATOM      3  H   UNL     1       9.809  -2.338  24.686  0.00  0.00    +0.167 HD
ATOM      4  C   UNL     1       8.283  -3.373  23.619  0.00  0.00    +0.078 A 
ATOM      5  C   UNL     1       7.471  -2.853  22.621  0.00  0.00    +0.090 A 
ATOM      6  C   UNL     1       6.532  -3.681  21.991  0.00  0.00    +0.030 A 
ATOM      7  C   UNL     1       6.439  -5.016  22.392  0.00  0.00    +0.003 A 
ATOM      8  C   UNL     1       7.258  -5.519  23.410  0.00  0.00    +0.015 A 
ATOM      9  C   UNL     1       8.204  -4.705  24.060  0.00  0.00    +0.062 A 
ATOM     10  N   UNL     1       7.738  -1.524  22.405  0.00  0.00    -0.231 NA
ENDROOT
BRANCH   1  12
ATOM     11  C   UNL     1      10.419   0.061  24.514  0.00  0.00    +0.036 C 
ATOM     12  C   UNL     1       9.368   0.140  23.393  0.00  0.00    +0.075 C 
ATOM     13  N   UNL     1       8.377   1.204  23.693  0.00  0.00    -0.305 NA
ATOM     14  H   UNL     1       7.517   0.973  23.190  0.00  0.00    +0.123 HD
ATOM     15  C   UNL     1       8.874   2.456  23.090  0.00  0.00    +0.082 C 
ATOM     16  C   UNL     1      10.083   2.114  22.239  0.00  0.00    +0.017 C 
ATOM     17  C   UNL     1       9.994   0.610  22.075  0.00  0.00    +0.031 C 
ENDBRANCH   1  12
BRANCH   9  18
ATOM     18  C   UNL     1       9.088  -5.180  25.157  0.00  0.00    +0.244 C 
ATOM     19  O   UNL     1      10.303  -5.016  25.106  0.00  0.00    -0.270 OA
ATOM     20  N   UNL     1       8.516  -5.793  26.236  0.00  0.00    -0.325 N 
ATOM     21  H   UNL     1       9.134  -6.085  26.983  0.00  0.00    +0.145 HD
ATOM     22  H   UNL     1       7.527  -5.917  26.380  0.00  0.00    +0.145 HD
ENDBRANCH   9  18
TORSDOF 2
ENDMDL
MODEL 2
REMARK VINA RESULT:      -6.4      2.091      3.035
REMARK  Name = 
REMARK  3 active torsions:
REMARK  status: ('A' for Active; 'I' for Inactive)
REMARK    1  A    between atoms: C_1  and  C_2
REMARK    2  A    between atoms: C_2  and  C_7
REMARK    3  A    between atoms: C_13  and  C_14
REMARK                            x       y       z     vdW  Elec       q    Type
REMARK                         _______ _______ _______ _____ _____    ______ ____
ROOT
ATOM      1  C   UNL     1       8.613  -0.919  23.266  0.00  0.00    +0.128 A 
ATOM      2  N   UNL     1       7.733  -1.755  22.613  0.00  0.00    -0.340 N 
ATOM      3  H   UNL     1       7.083  -1.485  21.886  0.00  0.00    +0.167 HD
ATOM      4  C   UNL     1       7.896  -3.031  23.105  0.00  0.00    +0.078 A 
ATOM      5  C   UNL     1       8.868  -2.888  24.086  0.00  0.00    +0.090 A 
ATOM      6  C   UNL     1       9.272  -4.007  24.826  0.00  0.00    +0.030 A 
ATOM      7  C   UNL     1       8.683  -5.244  24.550  0.00  0.00    +0.003 A 
ATOM      8  C   UNL     1       7.715  -5.370  23.547  0.00  0.00    +0.015 A 
ATOM      9  C   UNL     1       7.296  -4.262  22.788  0.00  0.00    +0.062 A 
ATOM     10  N   UNL     1       9.301  -1.590  24.170  0.00  0.00    -0.231 NA
ENDROOT
BRANCH   1  12
ATOM     11  C   UNL     1       7.324   1.079  22.555  0.00  0.00    +0.036 C 
ATOM     12  C   UNL     1       8.712   0.559  22.970  0.00  0.00    +0.075 C 
ATOM     13  N   UNL     1       9.704   0.836  21.901  0.00  0.00    -0.305 NA
ATOM     14  H   UNL     1      10.464   0.159  22.005  0.00  0.00    +0.123 HD
ATOM     15  C   UNL     1      10.299   2.158  22.180  0.00  0.00    +0.082 C 
ATOM     16  C   UNL     1       9.812   2.607  23.546  0.00  0.00    +0.017 C 
ATOM     17  C   UNL     1       9.264   1.339  24.168  0.00  0.00    +0.031 C 
ENDBRANCH   1  12
BRANCH   9  18
ATOM     18  C   UNL     1       6.285  -4.340  21.702  0.00  0.00    +0.244 C 
ATOM     19  O   UNL     1       5.525  -3.403  21.477  0.00  0.00    -0.270 OA
ATOM     20  N   UNL     1       6.228  -5.476  20.944  0.00  0.00    -0.325 N 
ATOM     21  H   UNL     1       5.548  -5.497  20.193  0.00  0.00    +0.145 HD
ATOM     22  H   UNL     1       6.848  -6.265  21.027  0.00  0.00    +0.145 HD
ENDBRANCH   9  18
TORSDOF 2
ENDMDL
MODEL 3
REMARK VINA RESULT:      -6.4      1.495      1.806
REMARK  Name = 
REMARK  3 active torsions:
REMARK  status: ('A' for Active; 'I' for Inactive)
REMARK    1  A    between atoms: C_1  and  C_2
REMARK    2  A    between atoms: C_2  and  C_7
REMARK    3  A    between atoms: C_13  and  C_14
REMARK                            x       y       z     vdW  Elec       q    Type
REMARK                         _______ _______ _______ _____ _____    ______ ____
ROOT
ATOM      1  C   UNL     1       8.579  -1.601  23.155  0.00  0.00    +0.128 A 
ATOM      2  N   UNL     1       8.441  -2.350  24.303  0.00  0.00    -0.340 N 
ATOM      3  H   UNL     1       8.799  -2.109  25.218  0.00  0.00    +0.167 HD
ATOM      4  C   UNL     1       7.714  -3.481  24.003  0.00  0.00    +0.078 A 
ATOM      5  C   UNL     1       7.478  -3.373  22.639  0.00  0.00    +0.090 A 
ATOM      6  C   UNL     1       6.769  -4.385  21.978  0.00  0.00    +0.030 A 
ATOM      7  C   UNL     1       6.316  -5.481  22.717  0.00  0.00    +0.003 A 
ATOM      8  C   UNL     1       6.552  -5.565  24.095  0.00  0.00    +0.015 A 
ATOM      9  C   UNL     1       7.257  -4.559  24.781  0.00  0.00    +0.062 A 
ATOM     10  N   UNL     1       8.009  -2.214  22.134  0.00  0.00    -0.231 NA
ENDROOT
BRANCH   1  12
ATOM     11  C   UNL     1       9.553   0.116  21.653  0.00  0.00    +0.036 C 
ATOM     12  C   UNL     1       9.318  -0.285  23.119  0.00  0.00    +0.075 C 
ATOM     13  N   UNL     1      10.613  -0.366  23.843  0.00  0.00    -0.305 NA
ATOM     14  H   UNL     1      10.481  -0.996  24.637  0.00  0.00    +0.123 HD
ATOM     15  C   UNL     1      10.880   0.965  24.422  0.00  0.00    +0.082 C 
ATOM     16  C   UNL     1       9.640   1.817  24.223  0.00  0.00    +0.017 C 
ATOM     17  C   UNL     1       8.562   0.808  23.881  0.00  0.00    +0.031 C 
ENDBRANCH   1  12
BRANCH   9  18
ATOM     18  C   UNL     1       7.523  -4.588  26.243  0.00  0.00    +0.244 C 
ATOM     19  O   UNL     1       7.269  -3.619  26.951  0.00  0.00    -0.270 OA
ATOM     20  N   UNL     1       8.045  -5.727  26.788  0.00  0.00    -0.325 N 
ATOM     21  H   UNL     1       8.195  -5.734  27.789  0.00  0.00    +0.145 HD
ATOM     22  H   UNL     1       8.231  -6.581  26.288  0.00  0.00    +0.145 HD
ENDBRANCH   9  18
TORSDOF 2
ENDMDL
MODEL 4
REMARK VINA RESULT:      -6.2      2.339      6.092
REMARK  Name = 
REMARK  3 active torsions:
REMARK  status: ('A' for Active; 'I' for Inactive)
REMARK    1  A    between atoms: C_1  and  C_2
REMARK    2  A    between atoms: C_2  and  C_7
REMARK    3  A    between atoms: C_13  and  C_14
REMARK                            x       y       z     vdW  Elec       q    Type
REMARK                         _______ _______ _______ _____ _____    ______ ____
ROOT
ATOM      1  C   UNL     1       7.417  -2.843  23.267  0.00  0.00    +0.128 A 
ATOM      2  N   UNL     1       7.988  -1.846  22.506  0.00  0.00    -0.340 N 
ATOM      3  H   UNL     1       7.899  -1.736  21.504  0.00  0.00    +0.167 HD
ATOM      4  C   UNL     1       8.692  -1.008  23.342  0.00  0.00    +0.078 A 
ATOM      5  C   UNL     1       8.538  -1.582  24.597  0.00  0.00    +0.090 A 
ATOM      6  C   UNL     1       9.156  -0.992  25.707  0.00  0.00    +0.030 A 
ATOM      7  C   UNL     1       9.913   0.167  25.518  0.00  0.00    +0.003 A 
ATOM      8  C   UNL     1      10.046   0.739  24.246  0.00  0.00    +0.015 A 
ATOM      9  C   UNL     1       9.430   0.167  23.117  0.00  0.00    +0.062 A 
ATOM     10  N   UNL     1       7.750  -2.703  24.536  0.00  0.00    -0.231 NA
ENDROOT
BRANCH   1  12
ATOM     11  C   UNL     1       5.722  -3.351  21.527  0.00  0.00    +0.036 C 
ATOM     12  C   UNL     1       6.563  -3.938  22.674  0.00  0.00    +0.075 C 
ATOM     13  N   UNL     1       5.678  -4.554  23.696  0.00  0.00    -0.305 NA
ATOM     14  H   UNL     1       6.190  -4.560  24.581  0.00  0.00    +0.123 HD
ATOM     15  C   UNL     1       5.493  -5.971  23.326  0.00  0.00    +0.082 C 
ATOM     16  C   UNL     1       6.437  -6.279  22.178  0.00  0.00    +0.017 C 
ATOM     17  C   UNL     1       7.413  -5.119  22.193  0.00  0.00    +0.031 C 
ENDBRANCH   1  12
BRANCH   9  18
ATOM     18  C   UNL     1       9.524   0.738  21.749  0.00  0.00    +0.244 C 
ATOM     19  O   UNL     1       9.197   0.080  20.766  0.00  0.00    -0.270 OA
ATOM     20  N   UNL     1       9.969   2.023  21.607  0.00  0.00    -0.325 N 
ATOM     21  H   UNL     1      10.001   2.399  20.667  0.00  0.00    +0.145 HD
ATOM     22  H   UNL     1      10.204   2.645  22.362  0.00  0.00    +0.145 HD
ENDBRANCH   9  18
TORSDOF 2
ENDMDL
MODEL 5
REMARK VINA RESULT:      -6.1      2.653      6.436
REMARK  Name = 
REMARK  3 active torsions:
REMARK  status: ('A' for Active; 'I' for Inactive)
REMARK    1  A    between atoms: C_1  and  C_2
REMARK    2  A    between atoms: C_2  and  C_7
REMARK    3  A    between atoms: C_13  and  C_14
REMARK                            x       y       z     vdW  Elec       q    Type
REMARK                         _______ _______ _______ _____ _____    ______ ____
ROOT
ATOM      1  C   UNL     1       7.283  -1.916  22.717  0.00  0.00    +0.128 A 
ATOM      2  N   UNL     1       6.633  -0.704  22.800  0.00  0.00    -0.340 N 
ATOM      3  H   UNL     1       5.652  -0.567  23.008  0.00  0.00    +0.167 HD
ATOM      4  C   UNL     1       7.548   0.299  22.568  0.00  0.00    +0.078 A 
ATOM      5  C   UNL     1       8.730  -0.381  22.310  0.00  0.00    +0.090 A 
ATOM      6  C   UNL     1       9.891   0.341  22.004  0.00  0.00    +0.030 A 
ATOM      7  C   UNL     1       9.824   1.737  21.969  0.00  0.00    +0.003 A 
ATOM      8  C   UNL     1       8.625   2.405  22.245  0.00  0.00    +0.015 A 
ATOM      9  C   UNL     1       7.448   1.701  22.560  0.00  0.00    +0.062 A 
ATOM     10  N   UNL     1       8.554  -1.738  22.410  0.00  0.00    -0.231 NA
ENDROOT
BRANCH   1  12
ATOM     11  C   UNL     1       5.455  -3.048  23.956  0.00  0.00    +0.036 C 
ATOM     12  C   UNL     1       6.582  -3.238  22.925  0.00  0.00    +0.075 C 
ATOM     13  N   UNL     1       7.525  -4.289  23.384  0.00  0.00    -0.305 NA
ATOM     14  H   UNL     1       8.424  -4.115  22.929  0.00  0.00    +0.123 HD
ATOM     15  C   UNL     1       7.045  -5.579  22.851  0.00  0.00    +0.082 C 
ATOM     16  C   UNL     1       5.908  -5.289  21.887  0.00  0.00    +0.017 C 
ATOM     17  C   UNL     1       6.043  -3.805  21.608  0.00  0.00    +0.031 C 
ENDBRANCH   1  12
BRANCH   9  18
ATOM     18  C   UNL     1       6.153   2.358  22.877  0.00  0.00    +0.244 C 
ATOM     19  O   UNL     1       5.462   1.974  23.816  0.00  0.00    -0.270 OA
ATOM     20  N   UNL     1       5.752   3.414  22.108  0.00  0.00    -0.325 N 
ATOM     21  H   UNL     1       4.879   3.862  22.357  0.00  0.00    +0.145 HD
ATOM     22  H   UNL     1       6.283   3.824  21.357  0.00  0.00    +0.145 HD
ENDBRANCH   9  18
TORSDOF 2
ENDMDL
MODEL 6
REMARK VINA RESULT:      -6.1      3.908      7.851
REMARK  Name = 
REMARK  3 active torsions:
REMARK  status: ('A' for Active; 'I' for Inactive)
REMARK    1  A    between atoms: C_1  and  C_2
REMARK    2  A    between atoms: C_2  and  C_7
REMARK    3  A    between atoms: C_13  and  C_14
REMARK                            x       y       z     vdW  Elec       q    Type
REMARK                         _______ _______ _______ _____ _____    ______ ____
ROOT
ATOM      1  C   UNL     1       9.273   2.100  23.690  0.00  0.00    +0.128 A 
ATOM      2  N   UNL     1      10.344   2.966  23.683  0.00  0.00    -0.340 N 
ATOM      3  H   UNL     1      11.319   2.708  23.595  0.00  0.00    +0.167 HD
ATOM      4  C   UNL     1       9.867   4.253  23.802  0.00  0.00    +0.078 A 
ATOM      5  C   UNL     1       8.493   4.089  23.917  0.00  0.00    +0.090 A 
ATOM      6  C   UNL     1       7.675   5.214  24.081  0.00  0.00    +0.030 A 
ATOM      7  C   UNL     1       8.270   6.478  24.121  0.00  0.00    +0.003 A 
ATOM      8  C   UNL     1       9.656   6.624  23.990  0.00  0.00    +0.015 A 
ATOM      9  C   UNL     1      10.498   5.509  23.819  0.00  0.00    +0.062 A 
ATOM     10  N   UNL     1       8.143   2.765  23.842  0.00  0.00    -0.231 NA
ENDROOT
BRANCH   1  12
ATOM     11  C   UNL     1      10.288   0.094  24.740  0.00  0.00    +0.036 C 
ATOM     12  C   UNL     1       9.429   0.603  23.570  0.00  0.00    +0.075 C 
ATOM     13  N   UNL     1      10.049   0.221  22.275  0.00  0.00    -0.305 NA
ATOM     14  H   UNL     1       9.715   0.882  21.569  0.00  0.00    +0.123 HD
ATOM     15  C   UNL     1       9.499  -1.094  21.891  0.00  0.00    +0.082 C 
ATOM     16  C   UNL     1       8.380  -1.430  22.859  0.00  0.00    +0.017 C 
ATOM     17  C   UNL     1       8.071  -0.105  23.527  0.00  0.00    +0.031 C 
ENDBRANCH   1  12
BRANCH   9  18
ATOM     18  C   UNL     1      11.972   5.605  23.659  0.00  0.00    +0.244 C 
ATOM     19  O   UNL     1      12.563   4.927  22.824  0.00  0.00    -0.270 OA
ATOM     20  N   UNL     1      12.659   6.479  24.454  0.00  0.00    -0.325 N 
ATOM     21  H   UNL     1      13.659   6.546  24.311  0.00  0.00    +0.145 HD
ATOM     22  H   UNL     1      12.245   7.108  25.123  0.00  0.00    +0.145 HD
ENDBRANCH   9  18
TORSDOF 2
ENDMDL
MODEL 7
REMARK VINA RESULT:      -6.0      1.978      5.710
REMARK  Name = 
REMARK  3 active torsions:
REMARK  status: ('A' for Active; 'I' for Inactive)
REMARK    1  A    between atoms: C_1  and  C_2
REMARK    2  A    between atoms: C_2  and  C_7
REMARK    3  A    between atoms: C_13  and  C_14
REMARK                            x       y       z     vdW  Elec       q    Type
REMARK                         _______ _______ _______ _____ _____    ______ ____
ROOT
ATOM      1  C   UNL     1       7.756  -2.935  22.939  0.00  0.00    +0.128 A 
ATOM      2  N   UNL     1       7.817  -2.035  23.980  0.00  0.00    -0.340 N 
ATOM      3  H   UNL     1       7.438  -2.172  24.908  0.00  0.00    +0.167 HD
ATOM      4  C   UNL     1       8.499  -0.917  23.553  0.00  0.00    +0.078 A 
ATOM      5  C   UNL     1       8.788  -1.192  22.223  0.00  0.00    +0.090 A 
ATOM      6  C   UNL     1       9.471  -0.240  21.454  0.00  0.00    +0.030 A 
ATOM      7  C   UNL     1       9.844   0.966  22.053  0.00  0.00    +0.003 A 
ATOM      8  C   UNL     1       9.555   1.219  23.399  0.00  0.00    +0.015 A 
ATOM      9  C   UNL     1       8.875   0.277  24.193  0.00  0.00    +0.062 A 
ATOM     10  N   UNL     1       8.332  -2.434  21.862  0.00  0.00    -0.231 NA
ENDROOT
BRANCH   1  12
ATOM     11  C   UNL     1       7.604  -4.991  24.320  0.00  0.00    +0.036 C 
ATOM     12  C   UNL     1       7.083  -4.282  23.058  0.00  0.00    +0.075 C 
ATOM     13  N   UNL     1       7.329  -5.122  21.858  0.00  0.00    -0.305 NA
ATOM     14  H   UNL     1       7.359  -4.499  21.048  0.00  0.00    +0.123 HD
ATOM     15  C   UNL     1       6.143  -5.979  21.667  0.00  0.00    +0.082 C 
ATOM     16  C   UNL     1       5.073  -5.516  22.640  0.00  0.00    +0.017 C 
ATOM     17  C   UNL     1       5.557  -4.150  23.083  0.00  0.00    +0.031 C 
ENDBRANCH   1  12
BRANCH   9  18
ATOM     18  C   UNL     1       8.556   0.484  25.629  0.00  0.00    +0.244 C 
ATOM     19  O   UNL     1       8.753  -0.401  26.456  0.00  0.00    -0.270 OA
ATOM     20  N   UNL     1       8.049   1.693  26.017  0.00  0.00    -0.325 N 
ATOM     21  H   UNL     1       7.863   1.821  27.004  0.00  0.00    +0.145 HD
ATOM     22  H   UNL     1       7.909   2.487  25.413  0.00  0.00    +0.145 HD
ENDBRANCH   9  18
TORSDOF 2
ENDMDL
MODEL 8
REMARK VINA RESULT:      -5.9      2.847      3.779
REMARK  Name = 
REMARK  3 active torsions:
REMARK  status: ('A' for Active; 'I' for Inactive)
REMARK    1  A    between atoms: C_1  and  C_2
REMARK    2  A    between atoms: C_2  and  C_7
REMARK    3  A    between atoms: C_13  and  C_14
REMARK                            x       y       z     vdW  Elec       q    Type
REMARK                         _______ _______ _______ _____ _____    ______ ____
ROOT
ATOM      1  C   UNL     1       7.025  -3.676  24.270  0.00  0.00    +0.128 A 
ATOM      2  N   UNL     1       6.959  -4.262  25.515  0.00  0.00    -0.340 N 
ATOM      3  H   UNL     1       7.509  -4.004  26.324  0.00  0.00    +0.167 HD
ATOM      4  C   UNL     1       6.003  -5.252  25.481  0.00  0.00    +0.078 A 
ATOM      5  C   UNL     1       5.555  -5.239  24.168  0.00  0.00    +0.090 A 
ATOM      6  C   UNL     1       4.574  -6.154  23.762  0.00  0.00    +0.030 A 
ATOM      7  C   UNL     1       4.070  -7.058  24.701  0.00  0.00    +0.003 A 
ATOM      8  C   UNL     1       4.524  -7.047  26.025  0.00  0.00    +0.015 A 
ATOM      9  C   UNL     1       5.504  -6.134  26.457  0.00  0.00    +0.062 A 
ATOM     10  N   UNL     1       6.187  -4.265  23.438  0.00  0.00    -0.231 NA
ENDROOT
BRANCH   1  12
ATOM     11  C   UNL     1       7.633  -1.341  24.850  0.00  0.00    +0.036 C 
ATOM     12  C   UNL     1       7.968  -2.541  23.947  0.00  0.00    +0.075 C 
ATOM     13  N   UNL     1       7.879  -2.147  22.518  0.00  0.00    -0.305 NA
ATOM     14  H   UNL     1       7.703  -2.997  21.976  0.00  0.00    +0.123 HD
ATOM     15  C   UNL     1       9.215  -1.674  22.105  0.00  0.00    +0.082 C 
ATOM     16  C   UNL     1      10.183  -1.970  23.236  0.00  0.00    +0.017 C 
ATOM     17  C   UNL     1       9.433  -2.962  24.101  0.00  0.00    +0.031 C 
ENDBRANCH   1  12
BRANCH   9  18
ATOM     18  C   UNL     1       6.012  -6.066  27.851  0.00  0.00    +0.244 C 
ATOM     19  O   UNL     1       6.552  -5.050  28.279  0.00  0.00    -0.270 OA
ATOM     20  N   UNL     1       5.852  -7.158  28.658  0.00  0.00    -0.325 N 
ATOM     21  H   UNL     1       6.183  -7.080  29.612  0.00  0.00    +0.145 HD
ATOM     22  H   UNL     1       5.374  -8.006  28.403  0.00  0.00    +0.145 HD
ENDBRANCH   9  18
TORSDOF 2
ENDMDL
MODEL 9
REMARK VINA RESULT:      -5.9      2.434      6.101
REMARK  Name = 
REMARK  3 active torsions:
REMARK  status: ('A' for Active; 'I' for Inactive)
REMARK    1  A    between atoms: C_1  and  C_2
REMARK    2  A    between atoms: C_2  and  C_7
REMARK    3  A    between atoms: C_13  and  C_14
REMARK                            x       y       z     vdW  Elec       q    Type
REMARK                         _______ _______ _______ _____ _____    ______ ____
ROOT
ATOM      1  C   UNL     1       6.921  -2.583  23.434  0.00  0.00    +0.128 A 
ATOM      2  N   UNL     1       7.797  -1.745  22.779  0.00  0.00    -0.340 N 
ATOM      3  H   UNL     1       8.537  -2.031  22.151  0.00  0.00    +0.167 HD
ATOM      4  C   UNL     1       7.489  -0.445  23.111  0.00  0.00    +0.078 A 
ATOM      5  C   UNL     1       6.435  -0.570  24.006  0.00  0.00    +0.090 A 
ATOM      6  C   UNL     1       5.874   0.579  24.578  0.00  0.00    +0.030 A 
ATOM      7  C   UNL     1       6.393   1.828  24.225  0.00  0.00    +0.003 A 
ATOM      8  C   UNL     1       7.447   1.934  23.310  0.00  0.00    +0.015 A 
ATOM      9  C   UNL     1       8.024   0.795  22.719  0.00  0.00    +0.062 A 
ATOM     10  N   UNL     1       6.095  -1.886  24.190  0.00  0.00    -0.231 NA
ENDROOT
BRANCH   1  12
ATOM     11  C   UNL     1       8.081  -4.640  24.195  0.00  0.00    +0.036 C 
ATOM     12  C   UNL     1       6.964  -4.086  23.293  0.00  0.00    +0.075 C 
ATOM     13  N   UNL     1       7.193  -4.496  21.884  0.00  0.00    -0.305 NA
ATOM     14  H   UNL     1       6.715  -3.818  21.286  0.00  0.00    +0.123 HD
ATOM     15  C   UNL     1       6.496  -5.780  21.677  0.00  0.00    +0.082 C 
ATOM     16  C   UNL     1       5.663  -6.061  22.915  0.00  0.00    +0.017 C 
ATOM     17  C   UNL     1       5.611  -4.724  23.625  0.00  0.00    +0.031 C 
ENDBRANCH   1  12
BRANCH   9  18
ATOM     18  C   UNL     1       9.133   0.849  21.731  0.00  0.00    +0.244 C 
ATOM     19  O   UNL     1       9.477  -0.153  21.111  0.00  0.00    -0.270 OA
ATOM     20  N   UNL     1       9.755   2.046  21.514  0.00  0.00    -0.325 N 
ATOM     21  H   UNL     1      10.491   2.065  20.818  0.00  0.00    +0.145 HD
ATOM     22  H   UNL     1       9.499   2.922  21.939  0.00  0.00    +0.145 HD
ENDBRANCH   9  18
TORSDOF 2
ENDMDL
