MODEL 1
REMARK VINA RESULT:      -7.2      0.000      0.000
REMARK  Name = 
REMARK  6 active torsions:
REMARK  status: ('A' for Active; 'I' for Inactive)
REMARK    1  A    between atoms: C_1  and  C_2
REMARK    2  A    between atoms: C_2  and  N_3
REMARK    3  A    between atoms: C_4  and  C_6
REMARK    4  A    between atoms: C_9  and  N_17
REMARK    5  A    between atoms: C_11  and  O_13
REMARK    6  A    between atoms: C_14  and  O_16
REMARK                            x       y       z     vdW  Elec       q    Type
REMARK                         _______ _______ _______ _____ _____    ______ ____
ROOT
ATOM      1  C   UNL     1       8.597  -4.214  26.408  0.00  0.00    +0.237 C 
ATOM      2  C   UNL     1       8.906  -5.266  25.351  0.00  0.00    +0.185 C 
ATOM      3  C   UNL     1       8.535  -4.599  24.029  0.00  0.00    +0.196 C 
ATOM      4  C   UNL     1       8.242  -3.138  24.407  0.00  0.00    +0.254 C 
ATOM      5  O   UNL     1       8.766  -2.959  25.739  0.00  0.00    -0.339 OA
ENDROOT
BRANCH   4   6
ATOM      6  N   UNL     1       8.818  -2.135  23.528  0.00  0.00    -0.285 N 
ATOM      7  C   UNL     1       8.226  -0.955  23.153  0.00  0.00    +0.167 A 
ATOM      8  N   UNL     1       6.951  -0.572  23.347  0.00  0.00    -0.216 NA
ATOM      9  C   UNL     1       6.747   0.671  22.855  0.00  0.00    +0.225 A 
ATOM     10  N   UNL     1       7.641   1.508  22.287  0.00  0.00    -0.219 NA
ATOM     11  C   UNL     1       8.920   1.089  22.157  0.00  0.00    +0.147 A 
ATOM     12  N   UNL     1       9.851   1.978  21.644  0.00  0.00    -0.341 N 
ATOM     13  H   UNL     1      10.696   1.547  21.285  0.00  0.00    +0.144 HD
ATOM     14  H   UNL     1       9.440   2.746  21.134  0.00  0.00    +0.144 HD
ATOM     15  C   UNL     1       9.240  -0.219  22.560  0.00  0.00    +0.147 A 
ATOM     16  N   UNL     1      10.410  -0.948  22.509  0.00  0.00    -0.231 NA
ATOM     17  C   UNL     1      10.123  -2.086  23.105  0.00  0.00    +0.203 A 
ENDBRANCH   4   6
BRANCH   1  20
ATOM     18  N   UNL     1       6.891  -5.764  27.255  0.00  0.00    -0.313 N 
ATOM     19  H   UNL     1       7.637  -6.448  27.222  0.00  0.00    +0.149 HD
ATOM     20  C   UNL     1       7.194  -4.437  27.013  0.00  0.00    +0.245 C 
ATOM     21  O   UNL     1       6.427  -3.511  27.252  0.00  0.00    -0.273 OA
BRANCH  18  23
ATOM     22  C   UNL     1       4.704  -6.773  26.833  0.00  0.00    +0.024 C 
ATOM     23  C   UNL     1       5.639  -6.166  27.864  0.00  0.00    +0.101 C 
ENDBRANCH  18  23
ENDBRANCH   1  20
BRANCH   2  24
ATOM     24  O   UNL     1      10.311  -5.571  25.379  0.00  0.00    -0.386 OA
ATOM     25  H   UNL     1      10.664  -5.323  26.253  0.00  0.00    +0.210 HD
ENDBRANCH   2  24
BRANCH   3  26
ATOM     26  O   UNL     1       7.381  -5.228  23.463  0.00  0.00    -0.385 OA
ATOM     27  H   UNL     1       6.678  -4.547  23.441  0.00  0.00    +0.210 HD
ENDBRANCH   3  26
TORSDOF 5
ENDMDL
MODEL 2
REMARK VINA RESULT:      -7.1      1.416      1.744
REMARK  Name = 
REMARK  6 active torsions:
REMARK  status: ('A' for Active; 'I' for Inactive)
REMARK    1  A    between atoms: C_1  and  C_2
REMARK    2  A    between atoms: C_2  and  N_3
REMARK    3  A    between atoms: C_4  and  C_6
REMARK    4  A    between atoms: C_9  and  N_17
REMARK    5  A    between atoms: C_11  and  O_13
REMARK    6  A    between atoms: C_14  and  O_16
REMARK                            x       y       z     vdW  Elec       q    Type
REMARK                         _______ _______ _______ _____ _____    ______ ____
ROOT
ATOM      1  C   UNL     1       8.523  -4.781  26.743  0.00  0.00    +0.237 C 
ATOM      2  C   UNL     1       8.958  -5.334  25.392  0.00  0.00    +0.185 C 
ATOM      3  C   UNL     1       8.694  -4.194  24.411  0.00  0.00    +0.196 C 
ATOM      4  C   UNL     1       8.329  -2.998  25.304  0.00  0.00    +0.254 C 
ATOM      5  O   UNL     1       8.721  -3.366  26.643  0.00  0.00    -0.339 OA
ENDROOT
BRANCH   4   6
ATOM      6  N   UNL     1       8.957  -1.736  24.952  0.00  0.00    -0.285 N 
ATOM      7  C   UNL     1       9.168  -1.267  23.680  0.00  0.00    +0.167 A 
ATOM      8  N   UNL     1       9.027  -1.933  22.520  0.00  0.00    -0.216 NA
ATOM      9  C   UNL     1       9.306  -1.127  21.471  0.00  0.00    +0.225 A 
ATOM     10  N   UNL     1       9.629   0.184  21.481  0.00  0.00    -0.219 NA
ATOM     11  C   UNL     1       9.714   0.816  22.673  0.00  0.00    +0.147 A 
ATOM     12  N   UNL     1       9.970   2.178  22.676  0.00  0.00    -0.341 N 
ATOM     13  H   UNL     1      10.320   2.542  23.554  0.00  0.00    +0.144 HD
ATOM     14  H   UNL     1      10.370   2.517  21.813  0.00  0.00    +0.144 HD
ATOM     15  C   UNL     1       9.523   0.064  23.844  0.00  0.00    +0.147 A 
ATOM     16  N   UNL     1       9.594   0.391  25.182  0.00  0.00    -0.231 NA
ATOM     17  C   UNL     1       9.241  -0.708  25.816  0.00  0.00    +0.203 A 
ENDBRANCH   4   6
BRANCH   1  20
ATOM     18  N   UNL     1       6.465  -5.943  26.074  0.00  0.00    -0.313 N 
ATOM     19  H   UNL     1       7.037  -6.316  25.326  0.00  0.00    +0.149 HD
ATOM     20  C   UNL     1       7.077  -5.207  27.073  0.00  0.00    +0.245 C 
ATOM     21  O   UNL     1       6.529  -4.912  28.129  0.00  0.00    -0.273 OA
BRANCH  18  23
ATOM     22  C   UNL     1       4.564  -6.912  24.881  0.00  0.00    +0.024 C 
ATOM     23  C   UNL     1       5.124  -6.471  26.222  0.00  0.00    +0.101 C 
ENDBRANCH  18  23
ENDBRANCH   1  20
BRANCH   2  24
ATOM     24  O   UNL     1      10.361  -5.643  25.433  0.00  0.00    -0.386 OA
ATOM     25  H   UNL     1      10.477  -6.498  25.886  0.00  0.00    +0.210 HD
ENDBRANCH   2  24
BRANCH   3  26
ATOM     26  O   UNL     1       7.616  -4.534  23.535  0.00  0.00    -0.385 OA
ATOM     27  H   UNL     1       7.001  -5.090  24.056  0.00  0.00    +0.210 HD
ENDBRANCH   3  26
TORSDOF 5
ENDMDL
MODEL 3
REMARK VINA RESULT:      -7.0      1.112      1.537
REMARK  Name = 
REMARK  6 active torsions:
REMARK  status: ('A' for Active; 'I' for Inactive)
REMARK    1  A    between atoms: C_1  and  C_2
REMARK    2  A    between atoms: C_2  and  N_3
REMARK    3  A    between atoms: C_4  and  C_6
REMARK    4  A    between atoms: C_9  and  N_17
REMARK    5  A    between atoms: C_11  and  O_13
REMARK    6  A    between atoms: C_14  and  O_16
REMARK                            x       y       z     vdW  Elec       q    Type
REMARK                         _______ _______ _______ _____ _____    ______ ____
ROOT
ATOM      1  C   UNL     1       8.428  -5.135  24.592  0.00  0.00    +0.237 C 
ATOM      2  C   UNL     1       7.247  -5.126  23.631  0.00  0.00    +0.185 C 
ATOM      3  C   UNL     1       7.009  -3.647  23.332  0.00  0.00    +0.196 C 
ATOM      4  C   UNL     1       8.207  -2.930  23.977  0.00  0.00    +0.254 C 
ATOM      5  O   UNL     1       9.176  -3.958  24.267  0.00  0.00    -0.339 OA
ENDROOT
BRANCH   4   6
ATOM      6  N   UNL     1       8.831  -1.899  23.166  0.00  0.00    -0.285 N 
ATOM      7  C   UNL     1       8.284  -0.682  22.847  0.00  0.00    +0.167 A 
ATOM      8  N   UNL     1       7.018  -0.269  23.039  0.00  0.00    -0.216 NA
ATOM      9  C   UNL     1       6.863   1.005  22.614  0.00  0.00    +0.225 A 
ATOM     10  N   UNL     1       7.794   1.843  22.111  0.00  0.00    -0.219 NA
ATOM     11  C   UNL     1       9.061   1.391  21.980  0.00  0.00    +0.147 A 
ATOM     12  N   UNL     1      10.030   2.276  21.536  0.00  0.00    -0.341 N 
ATOM     13  H   UNL     1      10.868   1.840  21.169  0.00  0.00    +0.144 HD
ATOM     14  H   UNL     1       9.654   3.085  21.063  0.00  0.00    +0.144 HD
ATOM     15  C   UNL     1       9.332   0.053  22.315  0.00  0.00    +0.147 A 
ATOM     16  N   UNL     1      10.480  -0.709  22.245  0.00  0.00    -0.231 NA
ATOM     17  C   UNL     1      10.145  -1.869  22.771  0.00  0.00    +0.203 A 
ENDBRANCH   4   6
BRANCH   1  20
ATOM     18  N   UNL     1       6.712  -5.813  26.213  0.00  0.00    -0.313 N 
ATOM     19  H   UNL     1       6.322  -6.329  25.434  0.00  0.00    +0.149 HD
ATOM     20  C   UNL     1       7.945  -5.207  26.057  0.00  0.00    +0.245 C 
ATOM     21  O   UNL     1       8.605  -4.762  26.989  0.00  0.00    -0.273 OA
BRANCH  18  23
ATOM     22  C   UNL     1       4.732  -6.626  27.395  0.00  0.00    +0.024 C 
ATOM     23  C   UNL     1       6.116  -6.013  27.519  0.00  0.00    +0.101 C 
ENDBRANCH  18  23
ENDBRANCH   1  20
BRANCH   2  24
ATOM     24  O   UNL     1       7.607  -5.826  22.427  0.00  0.00    -0.386 OA
ATOM     25  H   UNL     1       6.847  -5.803  21.817  0.00  0.00    +0.210 HD
ENDBRANCH   2  24
BRANCH   3  26
ATOM     26  O   UNL     1       5.774  -3.218  23.913  0.00  0.00    -0.385 OA
ATOM     27  H   UNL     1       5.446  -3.967  24.450  0.00  0.00    +0.210 HD
ENDBRANCH   3  26
TORSDOF 5
ENDMDL
MODEL 4
REMARK VINA RESULT:      -6.6      3.937      7.815
REMARK  Name = 
REMARK  6 active torsions:
REMARK  status: ('A' for Active; 'I' for Inactive)
REMARK    1  A    between atoms: C_1  and  C_2
REMARK    2  A    between atoms: C_2  and  N_3
REMARK    3  A    between atoms: C_4  and  C_6
REMARK    4  A    between atoms: C_9  and  N_17
REMARK    5  A    between atoms: C_11  and  O_13
REMARK    6  A    between atoms: C_14  and  O_16
REMARK                            x       y       z     vdW  Elec       q    Type
REMARK                         _______ _______ _______ _____ _____    ______ ____
ROOT
ATOM      1  C   UNL     1       7.461   3.882  23.773  0.00  0.00    +0.237 C 
ATOM      2  C   UNL     1       7.571   3.673  22.269  0.00  0.00    +0.185 C 
ATOM      3  C   UNL     1       8.166   2.275  22.120  0.00  0.00    +0.196 C 
ATOM      4  C   UNL     1       8.152   1.701  23.546  0.00  0.00    +0.254 C 
ATOM      5  O   UNL     1       7.293   2.567  24.315  0.00  0.00    -0.339 OA
ENDROOT
BRANCH   4   6
ATOM      6  N   UNL     1       7.683   0.331  23.667  0.00  0.00    -0.285 N 
ATOM      7  C   UNL     1       8.468  -0.794  23.662  0.00  0.00    +0.167 A 
ATOM      8  N   UNL     1       9.774  -0.890  23.356  0.00  0.00    -0.216 NA
ATOM      9  C   UNL     1      10.202  -2.165  23.487  0.00  0.00    +0.225 A 
ATOM     10  N   UNL     1       9.512  -3.245  23.913  0.00  0.00    -0.219 NA
ATOM     11  C   UNL     1       8.213  -3.083  24.250  0.00  0.00    +0.147 A 
ATOM     12  N   UNL     1       7.528  -4.176  24.759  0.00  0.00    -0.341 N 
ATOM     13  H   UNL     1       6.519  -4.104  24.711  0.00  0.00    +0.144 HD
ATOM     14  H   UNL     1       7.966  -5.062  24.551  0.00  0.00    +0.144 HD
ATOM     15  C   UNL     1       7.629  -1.817  24.081  0.00  0.00    +0.147 A 
ATOM     16  N   UNL     1       6.346  -1.350  24.275  0.00  0.00    -0.231 NA
ATOM     17  C   UNL     1       6.417  -0.058  24.026  0.00  0.00    +0.203 A 
ENDBRANCH   4   6
BRANCH   1  20
ATOM     18  N   UNL     1       9.605   4.998  23.343  0.00  0.00    -0.313 N 
ATOM     19  H   UNL     1       9.338   4.919  22.369  0.00  0.00    +0.149 HD
ATOM     20  C   UNL     1       8.684   4.651  24.315  0.00  0.00    +0.245 C 
ATOM     21  O   UNL     1       8.817   4.923  25.503  0.00  0.00    -0.273 OA
BRANCH  18  23
ATOM     22  C   UNL     1      12.050   4.959  23.359  0.00  0.00    +0.024 C 
ATOM     23  C   UNL     1      10.796   5.764  23.653  0.00  0.00    +0.101 C 
ENDBRANCH  18  23
ENDBRANCH   1  20
BRANCH   2  24
ATOM     24  O   UNL     1       6.259   3.722  21.683  0.00  0.00    -0.386 OA
ATOM     25  H   UNL     1       5.813   2.872  21.852  0.00  0.00    +0.210 HD
ENDBRANCH   2  24
BRANCH   3  26
ATOM     26  O   UNL     1       9.499   2.355  21.607  0.00  0.00    -0.385 OA
ATOM     27  H   UNL     1       9.700   1.478  21.222  0.00  0.00    +0.210 HD
ENDBRANCH   3  26
TORSDOF 5
ENDMDL
MODEL 5
REMARK VINA RESULT:      -6.5      2.817      6.544
REMARK  Name = 
REMARK  6 active torsions:
REMARK  status: ('A' for Active; 'I' for Inactive)
REMARK    1  A    between atoms: C_1  and  C_2
REMARK    2  A    between atoms: C_2  and  N_3
REMARK    3  A    between atoms: C_4  and  C_6
REMARK    4  A    between atoms: C_9  and  N_17
REMARK    5  A    between atoms: C_11  and  O_13
REMARK    6  A    between atoms: C_14  and  O_16
REMARK                            x       y       z     vdW  Elec       q    Type
REMARK                         _______ _______ _______ _____ _____    ______ ____
ROOT
ATOM      1  C   UNL     1       9.265  -3.395  24.522  0.00  0.00    +0.237 C 
ATOM      2  C   UNL     1       9.445  -4.520  25.533  0.00  0.00    +0.185 C 
ATOM      3  C   UNL     1       8.030  -5.027  25.796  0.00  0.00    +0.196 C 
ATOM      4  C   UNL     1       7.163  -4.300  24.756  0.00  0.00    +0.254 C 
ATOM      5  O   UNL     1       8.082  -3.742  23.793  0.00  0.00    -0.339 OA
ENDROOT
BRANCH   4   6
ATOM      6  N   UNL     1       6.187  -5.124  24.064  0.00  0.00    -0.285 N 
ATOM      7  C   UNL     1       5.258  -5.942  24.656  0.00  0.00    +0.167 A 
ATOM      8  N   UNL     1       5.178  -6.301  25.949  0.00  0.00    -0.216 NA
ATOM      9  C   UNL     1       4.109  -7.104  26.155  0.00  0.00    +0.225 A 
ATOM     10  N   UNL     1       3.168  -7.495  25.270  0.00  0.00    -0.219 NA
ATOM     11  C   UNL     1       3.273  -7.068  23.991  0.00  0.00    +0.147 A 
ATOM     12  N   UNL     1       2.265  -7.409  23.102  0.00  0.00    -0.341 N 
ATOM     13  H   UNL     1       2.521  -7.339  22.124  0.00  0.00    +0.144 HD
ATOM     14  H   UNL     1       1.704  -8.192  23.406  0.00  0.00    +0.144 HD
ATOM     15  C   UNL     1       4.388  -6.291  23.634  0.00  0.00    +0.147 A 
ATOM     16  N   UNL     1       4.804  -5.760  22.431  0.00  0.00    -0.231 NA
ATOM     17  C   UNL     1       5.880  -5.060  22.728  0.00  0.00    +0.203 A 
ENDBRANCH   4   6
BRANCH   1  20
ATOM     18  N   UNL     1       9.727  -0.984  24.479  0.00  0.00    -0.313 N 
ATOM     19  H   UNL     1       9.908  -1.137  23.494  0.00  0.00    +0.149 HD
ATOM     20  C   UNL     1       9.207  -2.024  25.228  0.00  0.00    +0.245 C 
ATOM     21  O   UNL     1       8.740  -1.882  26.352  0.00  0.00    -0.273 OA
BRANCH  18  23
ATOM     22  C   UNL     1      10.785   1.210  24.259  0.00  0.00    +0.024 C 
ATOM     23  C   UNL     1       9.717   0.385  24.956  0.00  0.00    +0.101 C 
ENDBRANCH  18  23
ENDBRANCH   1  20
BRANCH   2  24
ATOM     24  O   UNL     1      10.248  -5.560  24.950  0.00  0.00    -0.386 OA
ATOM     25  H   UNL     1      11.181  -5.399  25.183  0.00  0.00    +0.210 HD
ENDBRANCH   2  24
BRANCH   3  26
ATOM     26  O   UNL     1       7.625  -4.698  27.128  0.00  0.00    -0.385 OA
ATOM     27  H   UNL     1       7.016  -3.935  27.051  0.00  0.00    +0.210 HD
ENDBRANCH   3  26
TORSDOF 5
ENDMDL
MODEL 6
REMARK VINA RESULT:      -6.5      3.028      6.461
REMARK  Name = 
REMARK  6 active torsions:
REMARK  status: ('A' for Active; 'I' for Inactive)
REMARK    1  A    between atoms: C_1  and  C_2
REMARK    2  A    between atoms: C_2  and  N_3
REMARK    3  A    between atoms: C_4  and  C_6
REMARK    4  A    between atoms: C_9  and  N_17
REMARK    5  A    between atoms: C_11  and  O_13
REMARK    6  A    between atoms: C_14  and  O_16
REMARK                            x       y       z     vdW  Elec       q    Type
REMARK                         _______ _______ _______ _____ _____    ______ ____
ROOT
ATOM      1  C   UNL     1       8.661  -0.335  22.842  0.00  0.00    +0.237 C 
ATOM      2  C   UNL     1       9.791  -1.353  22.756  0.00  0.00    +0.185 C 
ATOM      3  C   UNL     1       9.193  -2.635  23.331  0.00  0.00    +0.196 C 
ATOM      4  C   UNL     1       7.700  -2.316  23.506  0.00  0.00    +0.254 C 
ATOM      5  O   UNL     1       7.460  -1.110  22.752  0.00  0.00    -0.339 OA
ENDROOT
BRANCH   4   6
ATOM      6  N   UNL     1       6.781  -3.349  23.061  0.00  0.00    -0.285 N 
ATOM      7  C   UNL     1       6.289  -4.376  23.827  0.00  0.00    +0.167 A 
ATOM      8  N   UNL     1       6.688  -4.755  25.055  0.00  0.00    -0.216 NA
ATOM      9  C   UNL     1       5.947  -5.798  25.495  0.00  0.00    +0.225 A 
ATOM     10  N   UNL     1       4.902  -6.401  24.890  0.00  0.00    -0.219 NA
ATOM     11  C   UNL     1       4.515  -5.950  23.676  0.00  0.00    +0.147 A 
ATOM     12  N   UNL     1       3.394  -6.521  23.092  0.00  0.00    -0.341 N 
ATOM     13  H   UNL     1       3.320  -6.382  22.091  0.00  0.00    +0.144 HD
ATOM     14  H   UNL     1       3.149  -7.420  23.480  0.00  0.00    +0.144 HD
ATOM     15  C   UNL     1       5.258  -4.920  23.076  0.00  0.00    +0.147 A 
ATOM     16  N   UNL     1       5.158  -4.291  21.852  0.00  0.00    -0.231 NA
ATOM     17  C   UNL     1       6.079  -3.351  21.882  0.00  0.00    +0.203 A 
ENDBRANCH   4   6
BRANCH   1  20
ATOM     18  N   UNL     1       7.990   1.650  24.122  0.00  0.00    -0.313 N 
ATOM     19  H   UNL     1       7.266   1.736  23.420  0.00  0.00    +0.149 HD
ATOM     20  C   UNL     1       8.784   0.516  24.123  0.00  0.00    +0.245 C 
ATOM     21  O   UNL     1       9.522   0.206  25.051  0.00  0.00    -0.273 OA
BRANCH  18  23
ATOM     22  C   UNL     1       8.562   3.890  24.919  0.00  0.00    +0.024 C 
ATOM     23  C   UNL     1       7.936   2.548  25.258  0.00  0.00    +0.101 C 
ENDBRANCH  18  23
ENDBRANCH   1  20
BRANCH   2  24
ATOM     24  O   UNL     1      10.155  -1.547  21.378  0.00  0.00    -0.386 OA
ATOM     25  H   UNL     1      10.220  -0.673  20.950  0.00  0.00    +0.210 HD
ENDBRANCH   2  24
BRANCH   3  26
ATOM     26  O   UNL     1       9.806  -2.948  24.585  0.00  0.00    -0.385 OA
ATOM     27  H   UNL     1      10.751  -3.121  24.395  0.00  0.00    +0.210 HD
ENDBRANCH   3  26
TORSDOF 5
ENDMDL
MODEL 7
REMARK VINA RESULT:      -6.4      2.052      6.935
REMARK  Name = 
REMARK  6 active torsions:
REMARK  status: ('A' for Active; 'I' for Inactive)
REMARK    1  A    between atoms: C_1  and  C_2
REMARK    2  A    between atoms: C_2  and  N_3
REMARK    3  A    between atoms: C_4  and  C_6
REMARK    4  A    between atoms: C_9  and  N_17
REMARK    5  A    between atoms: C_11  and  O_13
REMARK    6  A    between atoms: C_14  and  O_16
REMARK                            x       y       z     vdW  Elec       q    Type
REMARK                         _______ _______ _______ _____ _____    ______ ____
ROOT
ATOM      1  C   UNL     1       7.080  -2.172  22.907  0.00  0.00    +0.237 C 
ATOM      2  C   UNL     1       6.588  -3.408  22.165  0.00  0.00    +0.185 C 
ATOM      3  C   UNL     1       7.079  -4.581  23.011  0.00  0.00    +0.196 C 
ATOM      4  C   UNL     1       7.630  -3.926  24.288  0.00  0.00    +0.254 C 
ATOM      5  O   UNL     1       7.143  -2.569  24.282  0.00  0.00    -0.339 OA
ENDROOT
BRANCH   4   6
ATOM      6  N   UNL     1       7.249  -4.566  25.535  0.00  0.00    -0.285 N 
ATOM      7  C   UNL     1       6.030  -5.128  25.815  0.00  0.00    +0.167 A 
ATOM      8  N   UNL     1       4.895  -5.040  25.098  0.00  0.00    -0.216 NA
ATOM      9  C   UNL     1       3.904  -5.748  25.684  0.00  0.00    +0.225 A 
ATOM     10  N   UNL     1       3.961  -6.514  26.795  0.00  0.00    -0.219 NA
ATOM     11  C   UNL     1       5.139  -6.603  27.453  0.00  0.00    +0.147 A 
ATOM     12  N   UNL     1       5.215  -7.449  28.548  0.00  0.00    -0.341 N 
ATOM     13  H   UNL     1       5.988  -7.262  29.176  0.00  0.00    +0.144 HD
ATOM     14  H   UNL     1       4.315  -7.687  28.939  0.00  0.00    +0.144 HD
ATOM     15  C   UNL     1       6.227  -5.847  26.985  0.00  0.00    +0.147 A 
ATOM     16  N   UNL     1       7.513  -5.679  27.452  0.00  0.00    -0.231 NA
ATOM     17  C   UNL     1       8.100  -4.913  26.555  0.00  0.00    +0.203 A 
ENDBRANCH   4   6
BRANCH   1  20
ATOM     18  N   UNL     1       8.502  -0.295  22.211  0.00  0.00    -0.313 N 
ATOM     19  H   UNL     1       7.814   0.274  22.688  0.00  0.00    +0.149 HD
ATOM     20  C   UNL     1       8.416  -1.672  22.319  0.00  0.00    +0.245 C 
ATOM     21  O   UNL     1       9.313  -2.436  21.982  0.00  0.00    -0.273 OA
BRANCH  18  23
ATOM     22  C   UNL     1       9.735   1.815  22.165  0.00  0.00    +0.024 C 
ATOM     23  C   UNL     1       9.698   0.363  21.724  0.00  0.00    +0.101 C 
ENDBRANCH  18  23
ENDBRANCH   1  20
BRANCH   2  24
ATOM     24  O   UNL     1       5.151  -3.395  22.116  0.00  0.00    -0.386 OA
ATOM     25  H   UNL     1       4.830  -2.656  22.665  0.00  0.00    +0.210 HD
ENDBRANCH   2  24
BRANCH   3  26
ATOM     26  O   UNL     1       8.101  -5.300  22.315  0.00  0.00    -0.385 OA
ATOM     27  H   UNL     1       8.030  -6.232  22.605  0.00  0.00    +0.210 HD
ENDBRANCH   3  26
TORSDOF 5
ENDMDL
MODEL 8
REMARK VINA RESULT:      -6.4      2.572      7.286
REMARK  Name = 
REMARK  6 active torsions:
REMARK  status: ('A' for Active; 'I' for Inactive)
REMARK    1  A    between atoms: C_1  and  C_2
REMARK    2  A    between atoms: C_2  and  N_3
REMARK    3  A    between atoms: C_4  and  C_6
REMARK    4  A    between atoms: C_9  and  N_17
REMARK    5  A    between atoms: C_11  and  O_13
REMARK    6  A    between atoms: C_14  and  O_16
REMARK                            x       y       z     vdW  Elec       q    Type
REMARK                         _______ _______ _______ _____ _____    ______ ____
ROOT
ATOM      1  C   UNL     1       5.897  -3.464  22.414  0.00  0.00    +0.237 C 
ATOM      2  C   UNL     1       6.674  -4.668  21.899  0.00  0.00    +0.185 C 
ATOM      3  C   UNL     1       6.966  -5.496  23.148  0.00  0.00    +0.196 C 
ATOM      4  C   UNL     1       6.149  -4.815  24.257  0.00  0.00    +0.254 C 
ATOM      5  O   UNL     1       5.223  -3.935  23.587  0.00  0.00    -0.339 OA
ENDROOT
BRANCH   4   6
ATOM      6  N   UNL     1       5.411  -5.709  25.132  0.00  0.00    -0.285 N 
ATOM      7  C   UNL     1       5.752  -6.044  26.418  0.00  0.00    +0.167 A 
ATOM      8  N   UNL     1       6.906  -5.787  27.060  0.00  0.00    -0.216 NA
ATOM      9  C   UNL     1       6.861  -6.257  28.327  0.00  0.00    +0.225 A 
ATOM     10  N   UNL     1       5.834  -6.856  28.966  0.00  0.00    -0.219 NA
ATOM     11  C   UNL     1       4.681  -7.050  28.287  0.00  0.00    +0.147 A 
ATOM     12  N   UNL     1       3.604  -7.596  28.967  0.00  0.00    -0.341 N 
ATOM     13  H   UNL     1       2.887  -7.998  28.374  0.00  0.00    +0.144 HD
ATOM     14  H   UNL     1       3.863  -8.078  29.815  0.00  0.00    +0.144 HD
ATOM     15  C   UNL     1       4.630  -6.675  26.933  0.00  0.00    +0.147 A 
ATOM     16  N   UNL     1       3.646  -6.788  25.973  0.00  0.00    -0.231 NA
ATOM     17  C   UNL     1       4.145  -6.191  24.910  0.00  0.00    +0.203 A 
ENDBRANCH   4   6
BRANCH   1  20
ATOM     18  N   UNL     1       8.127  -2.459  22.198  0.00  0.00    -0.313 N 
ATOM     19  H   UNL     1       8.314  -3.247  21.590  0.00  0.00    +0.149 HD
ATOM     20  C   UNL     1       6.835  -2.261  22.649  0.00  0.00    +0.245 C 
ATOM     21  O   UNL     1       6.457  -1.228  23.190  0.00  0.00    -0.273 OA
BRANCH  18  23
ATOM     22  C   UNL     1      10.008  -1.625  23.519  0.00  0.00    +0.024 C 
ATOM     23  C   UNL     1       9.139  -1.426  22.290  0.00  0.00    +0.101 C 
ENDBRANCH  18  23
ENDBRANCH   1  20
BRANCH   2  24
ATOM     24  O   UNL     1       5.850  -5.413  20.987  0.00  0.00    -0.386 OA
ATOM     25  H   UNL     1       5.420  -4.787  20.375  0.00  0.00    +0.210 HD
ENDBRANCH   2  24
BRANCH   3  26
ATOM     26  O   UNL     1       8.365  -5.469  23.444  0.00  0.00    -0.385 OA
ATOM     27  H   UNL     1       8.831  -5.520  22.585  0.00  0.00    +0.210 HD
ENDBRANCH   3  26
TORSDOF 5
ENDMDL
MODEL 9
REMARK VINA RESULT:      -6.4      2.834      4.293
REMARK  Name = 
REMARK  6 active torsions:
REMARK  status: ('A' for Active; 'I' for Inactive)
REMARK    1  A    between atoms: C_1  and  C_2
REMARK    2  A    between atoms: C_2  and  N_3
REMARK    3  A    between atoms: C_4  and  C_6
REMARK    4  A    between atoms: C_9  and  N_17
REMARK    5  A    between atoms: C_11  and  O_13
REMARK    6  A    between atoms: C_14  and  O_16
REMARK                            x       y       z     vdW  Elec       q    Type
REMARK                         _______ _______ _______ _____ _____    ______ ____
ROOT
ATOM      1  C   UNL     1       9.540  -2.235  23.525  0.00  0.00    +0.237 C 
ATOM      2  C   UNL     1       8.840  -1.676  22.293  0.00  0.00    +0.185 C 
ATOM      3  C   UNL     1       7.842  -0.663  22.849  0.00  0.00    +0.196 C 
ATOM      4  C   UNL     1       8.194  -0.560  24.342  0.00  0.00    +0.254 C 
ATOM      5  O   UNL     1       9.489  -1.178  24.489  0.00  0.00    -0.339 OA
ENDROOT
BRANCH   4   6
ATOM      6  N   UNL     1       8.242   0.787  24.884  0.00  0.00    -0.285 N 
ATOM      7  C   UNL     1       8.996   1.825  24.400  0.00  0.00    +0.167 A 
ATOM      8  N   UNL     1       9.972   1.777  23.475  0.00  0.00    -0.216 NA
ATOM      9  C   UNL     1      10.470   3.012  23.243  0.00  0.00    +0.225 A 
ATOM     10  N   UNL     1      10.073   4.191  23.767  0.00  0.00    -0.219 NA
ATOM     11  C   UNL     1       9.058   4.187  24.660  0.00  0.00    +0.147 A 
ATOM     12  N   UNL     1       8.602   5.406  25.139  0.00  0.00    -0.341 N 
ATOM     13  H   UNL     1       8.074   5.352  26.002  0.00  0.00    +0.144 HD
ATOM     14  H   UNL     1       9.260   6.161  25.016  0.00  0.00    +0.144 HD
ATOM     15  C   UNL     1       8.508   2.953  25.044  0.00  0.00    +0.147 A 
ATOM     16  N   UNL     1       7.525   2.613  25.950  0.00  0.00    -0.231 NA
ATOM     17  C   UNL     1       7.386   1.309  25.821  0.00  0.00    +0.203 A 
ENDBRANCH   4   6
BRANCH   1  20
ATOM     18  N   UNL     1       7.877  -4.002  23.143  0.00  0.00    -0.313 N 
ATOM     19  H   UNL     1       7.782  -3.577  22.228  0.00  0.00    +0.149 HD
ATOM     20  C   UNL     1       8.883  -3.555  23.981  0.00  0.00    +0.245 C 
ATOM     21  O   UNL     1       9.230  -4.145  24.998  0.00  0.00    -0.273 OA
BRANCH  18  23
ATOM     22  C   UNL     1       7.036  -6.046  22.097  0.00  0.00    +0.024 C 
ATOM     23  C   UNL     1       7.176  -5.247  23.382  0.00  0.00    +0.101 C 
ENDBRANCH  18  23
ENDBRANCH   1  20
BRANCH   2  24
ATOM     24  O   UNL     1       9.804  -1.018  21.454  0.00  0.00    -0.386 OA
ATOM     25  H   UNL     1      10.470  -0.591  22.024  0.00  0.00    +0.210 HD
ENDBRANCH   2  24
BRANCH   3  26
ATOM     26  O   UNL     1       6.504  -1.133  22.663  0.00  0.00    -0.385 OA
ATOM     27  H   UNL     1       6.252  -0.897  21.747  0.00  0.00    +0.210 HD
ENDBRANCH   3  26
TORSDOF 5
ENDMDL
