MODEL 1
REMARK VINA RESULT:      -7.0      0.000      0.000
REMARK  Name = 
REMARK  11 active torsions:
REMARK  status: ('A' for Active; 'I' for Inactive)
REMARK    1  A    between atoms: C_2  and  O_3
REMARK    2  A    between atoms: C_2  and  C_4
REMARK    3  A    between atoms: C_2  and  C_27
REMARK    4  A    between atoms: C_4  and  O_5
REMARK    5  A    between atoms: O_5  and  C_6
REMARK    6  A    between atoms: C_9  and  N_10
REMARK    7  A    between atoms: C_13  and  N_14
REMARK    8  A    between atoms: N_14  and  C_15
REMARK    9  A    between atoms: C_27  and  N_28
REMARK   10  A    between atoms: N_28  and  C_29
REMARK   11  A    between atoms: N_28  and  C_30
REMARK                            x       y       z     vdW  Elec       q    Type
REMARK                         _______ _______ _______ _____ _____    ______ ____
ROOT
ATOM      1  N   UNL     1      10.238  -2.194  23.350  0.00  0.00    -0.284 N 
ATOM      2  H   UNL     1      11.106  -2.658  23.115  0.00  0.00    +0.155 HD
ATOM      3  C   UNL     1       9.438  -3.000  24.160  0.00  0.00    +0.221 A 
ATOM      4  N   UNL     1       9.947  -4.167  24.573  0.00  0.00    -0.221 NA
ATOM      5  C   UNL     1       9.186  -4.883  25.432  0.00  0.00    +0.133 A 
ATOM      6  C   UNL     1       7.940  -4.495  25.878  0.00  0.00    +0.076 A 
ATOM      7 BR   UNL     1       7.006  -5.532  27.144  0.00  0.00    -0.045 Br
ATOM      8  C   UNL     1       7.443  -3.336  25.322  0.00  0.00    +0.142 A 
ATOM      9  N   UNL     1       8.204  -2.598  24.489  0.00  0.00    -0.198 NA
ENDROOT
BRANCH   1  13
ATOM     10  C   UNL     1       9.936   2.023  22.927  0.00  0.00    +0.121 A 
ATOM     11  C   UNL     1       9.650   1.179  21.853  0.00  0.00    +0.047 A 
ATOM     12  C   UNL     1       9.789  -0.218  21.985  0.00  0.00    +0.027 A 
ATOM     13  C   UNL     1      10.214  -0.796  23.190  0.00  0.00    +0.034 A 
ATOM     14  C   UNL     1      10.511   0.069  24.244  0.00  0.00    +0.027 A 
ATOM     15  C   UNL     1      10.380   1.449  24.117  0.00  0.00    +0.047 A 
BRANCH  10  16
ATOM     16  O   UNL     1       9.750   3.378  22.738  0.00  0.00    -0.489 OA
BRANCH  16  17
ATOM     17  C   UNL     1       9.634   4.111  23.972  0.00  0.00    +0.261 C 
BRANCH  17  18
ATOM     18  C   UNL     1      10.270   5.500  23.889  0.00  0.00    +0.166 C 
BRANCH  18  19
ATOM     19  O   UNL     1      11.348   5.488  22.941  0.00  0.00    -0.387 OA
ATOM     20  H   UNL     1      11.810   4.638  23.064  0.00  0.00    +0.210 HD
ENDBRANCH  18  19
BRANCH  18  21
ATOM     21  C   UNL     1       9.217   6.534  23.415  0.00  0.00    +0.118 C 
BRANCH  21  22
ATOM     22  N   UNL     1       7.824   6.050  23.300  0.00  0.00    -0.306 NA
ATOM     23  C   UNL     1       7.337   6.248  21.931  0.00  0.00    +0.104 C 
ATOM     24  C   UNL     1       6.932   6.716  24.250  0.00  0.00    +0.104 C 
ENDBRANCH  21  22
ENDBRANCH  18  21
ENDBRANCH  17  18
ENDBRANCH  16  17
ENDBRANCH  10  16
ENDBRANCH   1  13
BRANCH   8  25
ATOM     25  N   UNL     1       6.111  -2.916  25.559  0.00  0.00    -0.298 N 
ATOM     26  H   UNL     1       6.048  -1.919  25.724  0.00  0.00    +0.154 HD
BRANCH  25  27
ATOM     27  C   UNL     1       4.975  -3.489  24.946  0.00  0.00    +0.032 A 
ATOM     28  C   UNL     1       5.084  -4.237  23.771  0.00  0.00    +0.023 A 
ATOM     29  C   UNL     1       3.964  -4.887  23.239  0.00  0.00    +0.002 A 
ATOM     30  C   UNL     1       2.721  -4.778  23.864  0.00  0.00    +0.000 A 
ATOM     31  C   UNL     1       2.587  -3.991  25.000  0.00  0.00    +0.002 A 
ATOM     32  C   UNL     1       3.704  -3.344  25.527  0.00  0.00    +0.023 A 
ENDBRANCH  25  27
ENDBRANCH   8  25
TORSDOF 9
ENDMDL
MODEL 2
REMARK VINA RESULT:      -6.9      1.434      1.748
REMARK  Name = 
REMARK  11 active torsions:
REMARK  status: ('A' for Active; 'I' for Inactive)
REMARK    1  A    between atoms: C_2  and  O_3
REMARK    2  A    between atoms: C_2  and  C_4
REMARK    3  A    between atoms: C_2  and  C_27
REMARK    4  A    between atoms: C_4  and  O_5
REMARK    5  A    between atoms: O_5  and  C_6
REMARK    6  A    between atoms: C_9  and  N_10
REMARK    7  A    between atoms: C_13  and  N_14
REMARK    8  A    between atoms: N_14  and  C_15
REMARK    9  A    between atoms: C_27  and  N_28
REMARK   10  A    between atoms: N_28  and  C_29
REMARK   11  A    between atoms: N_28  and  C_30
REMARK                            x       y       z     vdW  Elec       q    Type
REMARK                         _______ _______ _______ _____ _____    ______ ____
ROOT
ATOM      1  N   UNL     1      10.187  -2.185  23.382  0.00  0.00    -0.284 N 
ATOM      2  H   UNL     1      11.039  -2.682  23.157  0.00  0.00    +0.155 HD
ATOM      3  C   UNL     1       9.336  -2.973  24.159  0.00  0.00    +0.221 A 
ATOM      4  N   UNL     1       9.785  -4.169  24.557  0.00  0.00    -0.221 NA
ATOM      5  C   UNL     1       8.976  -4.869  25.386  0.00  0.00    +0.133 A 
ATOM      6  C   UNL     1       7.738  -4.437  25.812  0.00  0.00    +0.076 A 
ATOM      7 BR   UNL     1       6.733  -5.457  27.037  0.00  0.00    -0.045 Br
ATOM      8  C   UNL     1       7.302  -3.246  25.271  0.00  0.00    +0.142 A 
ATOM      9  N   UNL     1       8.112  -2.525  24.470  0.00  0.00    -0.198 NA
ENDROOT
BRANCH   1  13
ATOM     10  C   UNL     1      10.073   2.048  23.044  0.00  0.00    +0.121 A 
ATOM     11  C   UNL     1       9.764   1.239  21.949  0.00  0.00    +0.047 A 
ATOM     12  C   UNL     1       9.841  -0.165  22.054  0.00  0.00    +0.027 A 
ATOM     13  C   UNL     1      10.225  -0.785  23.252  0.00  0.00    +0.034 A 
ATOM     14  C   UNL     1      10.546   0.045  24.326  0.00  0.00    +0.027 A 
ATOM     15  C   UNL     1      10.477   1.432  24.227  0.00  0.00    +0.047 A 
BRANCH  10  16
ATOM     16  O   UNL     1       9.949   3.413  22.880  0.00  0.00    -0.489 OA
BRANCH  16  17
ATOM     17  C   UNL     1       9.311   4.061  23.997  0.00  0.00    +0.261 C 
BRANCH  17  18
ATOM     18  C   UNL     1       8.008   4.759  23.602  0.00  0.00    +0.166 C 
BRANCH  18  19
ATOM     19  O   UNL     1       7.950   4.914  22.176  0.00  0.00    -0.387 OA
ATOM     20  H   UNL     1       8.818   4.629  21.835  0.00  0.00    +0.210 HD
ENDBRANCH  18  19
BRANCH  18  21
ATOM     21  C   UNL     1       6.794   3.904  24.048  0.00  0.00    +0.118 C 
BRANCH  21  22
ATOM     22  N   UNL     1       6.382   2.817  23.132  0.00  0.00    -0.306 NA
ATOM     23  C   UNL     1       5.018   3.057  22.652  0.00  0.00    +0.104 C 
ATOM     24  C   UNL     1       6.466   1.503  23.769  0.00  0.00    +0.104 C 
ENDBRANCH  21  22
ENDBRANCH  18  21
ENDBRANCH  17  18
ENDBRANCH  16  17
ENDBRANCH  10  16
ENDBRANCH   1  13
BRANCH   8  25
ATOM     25  N   UNL     1       5.985  -2.775  25.488  0.00  0.00    -0.298 N 
ATOM     26  H   UNL     1       5.944  -1.764  25.538  0.00  0.00    +0.154 HD
BRANCH  25  27
ATOM     27  C   UNL     1       4.824  -3.390  24.972  0.00  0.00    +0.032 A 
ATOM     28  C   UNL     1       4.858  -4.120  23.781  0.00  0.00    +0.023 A 
ATOM     29  C   UNL     1       3.723  -4.814  23.343  0.00  0.00    +0.002 A 
ATOM     30  C   UNL     1       2.539  -4.768  24.079  0.00  0.00    +0.000 A 
ATOM     31  C   UNL     1       2.475  -4.000  25.235  0.00  0.00    +0.002 A 
ATOM     32  C   UNL     1       3.606  -3.310  25.668  0.00  0.00    +0.023 A 
ENDBRANCH  25  27
ENDBRANCH   8  25
TORSDOF 9
ENDMDL
MODEL 3
REMARK VINA RESULT:      -6.7      1.865      2.439
REMARK  Name = 
REMARK  11 active torsions:
REMARK  status: ('A' for Active; 'I' for Inactive)
REMARK    1  A    between atoms: C_2  and  O_3
REMARK    2  A    between atoms: C_2  and  C_4
REMARK    3  A    between atoms: C_2  and  C_27
REMARK    4  A    between atoms: C_4  and  O_5
REMARK    5  A    between atoms: O_5  and  C_6
REMARK    6  A    between atoms: C_9  and  N_10
REMARK    7  A    between atoms: C_13  and  N_14
REMARK    8  A    between atoms: N_14  and  C_15
REMARK    9  A    between atoms: C_27  and  N_28
REMARK   10  A    between atoms: N_28  and  C_29
REMARK   11  A    between atoms: N_28  and  C_30
REMARK                            x       y       z     vdW  Elec       q    Type
REMARK                         _______ _______ _______ _____ _____    ______ ____
ROOT
ATOM      1  N   UNL     1      10.210  -2.275  23.463  0.00  0.00    -0.284 N 
ATOM      2  H   UNL     1      11.103  -2.750  23.458  0.00  0.00    +0.155 HD
ATOM      3  C   UNL     1       9.206  -3.096  23.980  0.00  0.00    +0.221 A 
ATOM      4  N   UNL     1       9.566  -4.291  24.463  0.00  0.00    -0.221 NA
ATOM      5  C   UNL     1       8.588  -5.024  25.042  0.00  0.00    +0.133 A 
ATOM      6  C   UNL     1       7.272  -4.625  25.140  0.00  0.00    +0.076 A 
ATOM      7 BR   UNL     1       6.009  -5.691  26.047  0.00  0.00    -0.045 Br
ATOM      8  C   UNL     1       6.962  -3.432  24.523  0.00  0.00    +0.142 A 
ATOM      9  N   UNL     1       7.934  -2.678  23.971  0.00  0.00    -0.198 NA
ENDROOT
BRANCH   1  13
ATOM     10  C   UNL     1      10.086   1.964  23.207  0.00  0.00    +0.121 A 
ATOM     11  C   UNL     1       9.915   1.178  22.067  0.00  0.00    +0.047 A 
ATOM     12  C   UNL     1       9.996  -0.227  22.149  0.00  0.00    +0.027 A 
ATOM     13  C   UNL     1      10.247  -0.872  23.369  0.00  0.00    +0.034 A 
ATOM     14  C   UNL     1      10.431  -0.064  24.491  0.00  0.00    +0.027 A 
ATOM     15  C   UNL     1      10.358   1.324  24.415  0.00  0.00    +0.047 A 
BRANCH  10  16
ATOM     16  O   UNL     1       9.965   3.331  23.061  0.00  0.00    -0.489 OA
BRANCH  16  17
ATOM     17  C   UNL     1       9.054   3.923  24.006  0.00  0.00    +0.261 C 
BRANCH  17  18
ATOM     18  C   UNL     1       8.031   4.843  23.335  0.00  0.00    +0.166 C 
BRANCH  18  19
ATOM     19  O   UNL     1       8.702   5.957  22.726  0.00  0.00    -0.387 OA
ATOM     20  H   UNL     1       9.313   5.580  22.066  0.00  0.00    +0.210 HD
ENDBRANCH  18  19
BRANCH  18  21
ATOM     21  C   UNL     1       7.271   4.069  22.228  0.00  0.00    +0.118 C 
BRANCH  21  22
ATOM     22  N   UNL     1       5.851   3.757  22.499  0.00  0.00    -0.306 NA
ATOM     23  C   UNL     1       5.214   4.880  23.192  0.00  0.00    +0.104 C 
ATOM     24  C   UNL     1       5.699   2.532  23.284  0.00  0.00    +0.104 C 
ENDBRANCH  21  22
ENDBRANCH  18  21
ENDBRANCH  17  18
ENDBRANCH  16  17
ENDBRANCH  10  16
ENDBRANCH   1  13
BRANCH   8  25
ATOM     25  N   UNL     1       5.622  -2.992  24.399  0.00  0.00    -0.298 N 
ATOM     26  H   UNL     1       5.018  -3.708  24.015  0.00  0.00    +0.154 HD
BRANCH  25  27
ATOM     27  C   UNL     1       4.990  -2.101  25.294  0.00  0.00    +0.032 A 
ATOM     28  C   UNL     1       3.900  -2.505  26.070  0.00  0.00    +0.023 A 
ATOM     29  C   UNL     1       3.357  -1.642  27.030  0.00  0.00    +0.002 A 
ATOM     30  C   UNL     1       3.883  -0.363  27.209  0.00  0.00    +0.000 A 
ATOM     31  C   UNL     1       4.929   0.071  26.405  0.00  0.00    +0.002 A 
ATOM     32  C   UNL     1       5.467  -0.789  25.449  0.00  0.00    +0.023 A 
ENDBRANCH  25  27
ENDBRANCH   8  25
TORSDOF 9
ENDMDL
MODEL 4
REMARK VINA RESULT:      -6.7      1.241      2.096
REMARK  Name = 
REMARK  11 active torsions:
REMARK  status: ('A' for Active; 'I' for Inactive)
REMARK    1  A    between atoms: C_2  and  O_3
REMARK    2  A    between atoms: C_2  and  C_4
REMARK    3  A    between atoms: C_2  and  C_27
REMARK    4  A    between atoms: C_4  and  O_5
REMARK    5  A    between atoms: O_5  and  C_6
REMARK    6  A    between atoms: C_9  and  N_10
REMARK    7  A    between atoms: C_13  and  N_14
REMARK    8  A    between atoms: N_14  and  C_15
REMARK    9  A    between atoms: C_27  and  N_28
REMARK   10  A    between atoms: N_28  and  C_29
REMARK   11  A    between atoms: N_28  and  C_30
REMARK                            x       y       z     vdW  Elec       q    Type
REMARK                         _______ _______ _______ _____ _____    ______ ____
ROOT
ATOM      1  N   UNL     1      10.233  -2.066  23.349  0.00  0.00    -0.284 N 
ATOM      2  H   UNL     1      11.098  -2.519  23.083  0.00  0.00    +0.155 HD
ATOM      3  C   UNL     1       9.450  -2.904  24.143  0.00  0.00    +0.221 A 
ATOM      4  N   UNL     1       9.968  -4.084  24.504  0.00  0.00    -0.221 NA
ATOM      5  C   UNL     1       9.224  -4.833  25.350  0.00  0.00    +0.133 A 
ATOM      6  C   UNL     1       7.985  -4.465  25.831  0.00  0.00    +0.076 A 
ATOM      7 BR   UNL     1       7.075  -5.550  27.075  0.00  0.00    -0.045 Br
ATOM      8  C   UNL     1       7.475  -3.288  25.326  0.00  0.00    +0.142 A 
ATOM      9  N   UNL     1       8.220  -2.518  24.508  0.00  0.00    -0.198 NA
ENDROOT
BRANCH   1  13
ATOM     10  C   UNL     1       9.917   2.163  23.096  0.00  0.00    +0.121 A 
ATOM     11  C   UNL     1       9.568   1.358  22.011  0.00  0.00    +0.047 A 
ATOM     12  C   UNL     1       9.711  -0.043  22.084  0.00  0.00    +0.027 A 
ATOM     13  C   UNL     1      10.203  -0.664  23.242  0.00  0.00    +0.034 A 
ATOM     14  C   UNL     1      10.562   0.163  24.306  0.00  0.00    +0.027 A 
ATOM     15  C   UNL     1      10.428   1.547  24.237  0.00  0.00    +0.047 A 
BRANCH  10  16
ATOM     16  O   UNL     1       9.724   3.523  22.965  0.00  0.00    -0.489 OA
BRANCH  16  17
ATOM     17  C   UNL     1       8.932   4.087  24.029  0.00  0.00    +0.261 C 
BRANCH  17  18
ATOM     18  C   UNL     1       9.203   5.579  24.233  0.00  0.00    +0.166 C 
BRANCH  18  19
ATOM     19  O   UNL     1       9.339   5.864  25.633  0.00  0.00    -0.387 OA
ATOM     20  H   UNL     1       8.520   6.323  25.899  0.00  0.00    +0.210 HD
ENDBRANCH  18  19
BRANCH  18  21
ATOM     21  C   UNL     1      10.524   5.976  23.525  0.00  0.00    +0.118 C 
BRANCH  21  22
ATOM     22  N   UNL     1      11.779   5.622  24.225  0.00  0.00    -0.306 NA
ATOM     23  C   UNL     1      12.309   6.794  24.927  0.00  0.00    +0.104 C 
ATOM     24  C   UNL     1      12.786   5.088  23.307  0.00  0.00    +0.104 C 
ENDBRANCH  21  22
ENDBRANCH  18  21
ENDBRANCH  17  18
ENDBRANCH  16  17
ENDBRANCH  10  16
ENDBRANCH   1  13
BRANCH   8  25
ATOM     25  N   UNL     1       6.147  -2.881  25.601  0.00  0.00    -0.298 N 
ATOM     26  H   UNL     1       6.065  -1.875  25.688  0.00  0.00    +0.154 HD
BRANCH  25  27
ATOM     27  C   UNL     1       4.997  -3.528  25.101  0.00  0.00    +0.032 A 
ATOM     28  C   UNL     1       3.781  -3.482  25.790  0.00  0.00    +0.023 A 
ATOM     29  C   UNL     1       2.626  -4.037  25.225  0.00  0.00    +0.002 A 
ATOM     30  C   UNL     1       2.679  -4.661  23.978  0.00  0.00    +0.000 A 
ATOM     31  C   UNL     1       3.892  -4.765  23.310  0.00  0.00    +0.002 A 
ATOM     32  C   UNL     1       5.040  -4.213  23.875  0.00  0.00    +0.023 A 
ENDBRANCH  25  27
ENDBRANCH   8  25
TORSDOF 9
ENDMDL
MODEL 5
REMARK VINA RESULT:      -6.5      4.214      8.520
REMARK  Name = 
REMARK  11 active torsions:
REMARK  status: ('A' for Active; 'I' for Inactive)
REMARK    1  A    between atoms: C_2  and  O_3
REMARK    2  A    between atoms: C_2  and  C_4
REMARK    3  A    between atoms: C_2  and  C_27
REMARK    4  A    between atoms: C_4  and  O_5
REMARK    5  A    between atoms: O_5  and  C_6
REMARK    6  A    between atoms: C_9  and  N_10
REMARK    7  A    between atoms: C_13  and  N_14
REMARK    8  A    between atoms: N_14  and  C_15
REMARK    9  A    between atoms: C_27  and  N_28
REMARK   10  A    between atoms: N_28  and  C_29
REMARK   11  A    between atoms: N_28  and  C_30
REMARK                            x       y       z     vdW  Elec       q    Type
REMARK                         _______ _______ _______ _____ _____    ______ ____
ROOT
ATOM      1  N   UNL     1       6.378   1.713  26.634  0.00  0.00    -0.284 N 
ATOM      2  H   UNL     1       5.814   2.043  27.407  0.00  0.00    +0.155 HD
ATOM      3  C   UNL     1       7.124   2.752  26.077  0.00  0.00    +0.221 A 
ATOM      4  N   UNL     1       7.069   3.948  26.674  0.00  0.00    -0.221 NA
ATOM      5  C   UNL     1       7.876   4.910  26.167  0.00  0.00    +0.133 A 
ATOM      6  C   UNL     1       8.712   4.733  25.085  0.00  0.00    +0.076 A 
ATOM      7 BR   UNL     1       9.857   6.119  24.519  0.00  0.00    -0.045 Br
ATOM      8  C   UNL     1       8.629   3.507  24.461  0.00  0.00    +0.142 A 
ATOM      9  N   UNL     1       7.853   2.532  24.975  0.00  0.00    -0.198 NA
ENDROOT
BRANCH   1  13
ATOM     10  C   UNL     1       7.063  -2.480  26.683  0.00  0.00    +0.121 A 
ATOM     11  C   UNL     1       8.133  -1.584  26.712  0.00  0.00    +0.047 A 
ATOM     12  C   UNL     1       7.904  -0.194  26.656  0.00  0.00    +0.027 A 
ATOM     13  C   UNL     1       6.604   0.326  26.572  0.00  0.00    +0.034 A 
ATOM     14  C   UNL     1       5.552  -0.589  26.527  0.00  0.00    +0.027 A 
ATOM     15  C   UNL     1       5.773  -1.963  26.577  0.00  0.00    +0.047 A 
BRANCH  10  16
ATOM     16  O   UNL     1       7.358  -3.825  26.771  0.00  0.00    -0.489 OA
BRANCH  16  17
ATOM     17  C   UNL     1       8.733  -4.123  26.464  0.00  0.00    +0.261 C 
BRANCH  17  18
ATOM     18  C   UNL     1       8.919  -4.605  25.023  0.00  0.00    +0.166 C 
BRANCH  18  19
ATOM     19  O   UNL     1       9.963  -5.589  24.968  0.00  0.00    -0.387 OA
ATOM     20  H   UNL     1       9.941  -6.059  25.823  0.00  0.00    +0.210 HD
ENDBRANCH  18  19
BRANCH  18  21
ATOM     21  C   UNL     1       7.610  -5.257  24.511  0.00  0.00    +0.118 C 
BRANCH  21  22
ATOM     22  N   UNL     1       7.038  -4.697  23.267  0.00  0.00    -0.306 NA
ATOM     23  C   UNL     1       7.199  -5.652  22.167  0.00  0.00    +0.104 C 
ATOM     24  C   UNL     1       7.648  -3.415  22.912  0.00  0.00    +0.104 C 
ENDBRANCH  21  22
ENDBRANCH  18  21
ENDBRANCH  17  18
ENDBRANCH  16  17
ENDBRANCH  10  16
ENDBRANCH   1  13
BRANCH   8  25
ATOM     25  N   UNL     1       9.302   3.253  23.241  0.00  0.00    -0.298 N 
ATOM     26  H   UNL     1      10.017   3.943  23.049  0.00  0.00    +0.154 HD
BRANCH  25  27
ATOM     27  C   UNL     1       9.570   1.964  22.733  0.00  0.00    +0.032 A 
ATOM     28  C   UNL     1      10.402   1.073  23.418  0.00  0.00    +0.023 A 
ATOM     29  C   UNL     1      10.569  -0.238  22.954  0.00  0.00    +0.002 A 
ATOM     30  C   UNL     1       9.924  -0.664  21.793  0.00  0.00    +0.000 A 
ATOM     31  C   UNL     1       9.141   0.228  21.072  0.00  0.00    +0.002 A 
ATOM     32  C   UNL     1       8.977   1.532  21.535  0.00  0.00    +0.023 A 
ENDBRANCH  25  27
ENDBRANCH   8  25
TORSDOF 9
ENDMDL
MODEL 6
REMARK VINA RESULT:      -6.4      1.900      2.846
REMARK  Name = 
REMARK  11 active torsions:
REMARK  status: ('A' for Active; 'I' for Inactive)
REMARK    1  A    between atoms: C_2  and  O_3
REMARK    2  A    between atoms: C_2  and  C_4
REMARK    3  A    between atoms: C_2  and  C_27
REMARK    4  A    between atoms: C_4  and  O_5
REMARK    5  A    between atoms: O_5  and  C_6
REMARK    6  A    between atoms: C_9  and  N_10
REMARK    7  A    between atoms: C_13  and  N_14
REMARK    8  A    between atoms: N_14  and  C_15
REMARK    9  A    between atoms: C_27  and  N_28
REMARK   10  A    between atoms: N_28  and  C_29
REMARK   11  A    between atoms: N_28  and  C_30
REMARK                            x       y       z     vdW  Elec       q    Type
REMARK                         _______ _______ _______ _____ _____    ______ ____
ROOT
ATOM      1  N   UNL     1      10.220  -2.098  23.410  0.00  0.00    -0.284 N 
ATOM      2  H   UNL     1      11.120  -2.546  23.299  0.00  0.00    +0.155 HD
ATOM      3  C   UNL     1       9.307  -2.948  24.033  0.00  0.00    +0.221 A 
ATOM      4  N   UNL     1       9.754  -4.134  24.464  0.00  0.00    -0.221 NA
ATOM      5  C   UNL     1       8.870  -4.897  25.147  0.00  0.00    +0.133 A 
ATOM      6  C   UNL     1       7.563  -4.538  25.398  0.00  0.00    +0.076 A 
ATOM      7 BR   UNL     1       6.443  -5.642  26.436  0.00  0.00    -0.045 Br
ATOM      8  C   UNL     1       7.150  -3.352  24.828  0.00  0.00    +0.142 A 
ATOM      9  N   UNL     1       8.030  -2.568  24.172  0.00  0.00    -0.198 NA
ENDROOT
BRANCH   1  13
ATOM     10  C   UNL     1       9.944   2.136  23.185  0.00  0.00    +0.121 A 
ATOM     11  C   UNL     1       9.728   1.349  22.054  0.00  0.00    +0.047 A 
ATOM     12  C   UNL     1       9.858  -0.053  22.123  0.00  0.00    +0.027 A 
ATOM     13  C   UNL     1      10.206  -0.694  23.321  0.00  0.00    +0.034 A 
ATOM     14  C   UNL     1      10.435   0.116  24.434  0.00  0.00    +0.027 A 
ATOM     15  C   UNL     1      10.313   1.501  24.370  0.00  0.00    +0.047 A 
BRANCH  10  16
ATOM     16  O   UNL     1       9.771   3.499  23.054  0.00  0.00    -0.489 OA
BRANCH  16  17
ATOM     17  C   UNL     1       9.035   4.083  24.146  0.00  0.00    +0.261 C 
BRANCH  17  18
ATOM     18  C   UNL     1       9.267   5.591  24.267  0.00  0.00    +0.166 C 
BRANCH  18  19
ATOM     19  O   UNL     1       9.385   5.958  25.650  0.00  0.00    -0.387 OA
ATOM     20  H   UNL     1      10.019   5.331  26.046  0.00  0.00    +0.210 HD
ENDBRANCH  18  19
BRANCH  18  21
ATOM     21  C   UNL     1      10.583   5.982  23.547  0.00  0.00    +0.118 C 
BRANCH  21  22
ATOM     22  N   UNL     1      11.842   5.628  24.239  0.00  0.00    -0.306 NA
ATOM     23  C   UNL     1      12.390   6.807  24.916  0.00  0.00    +0.104 C 
ATOM     24  C   UNL     1      12.835   5.072  23.319  0.00  0.00    +0.104 C 
ENDBRANCH  21  22
ENDBRANCH  18  21
ENDBRANCH  17  18
ENDBRANCH  16  17
ENDBRANCH  10  16
ENDBRANCH   1  13
BRANCH   8  25
ATOM     25  N   UNL     1       5.793  -2.950  24.861  0.00  0.00    -0.298 N 
ATOM     26  H   UNL     1       5.163  -3.711  24.638  0.00  0.00    +0.154 HD
BRANCH  25  27
ATOM     27  C   UNL     1       5.269  -1.989  25.752  0.00  0.00    +0.032 A 
ATOM     28  C   UNL     1       4.618  -2.369  26.929  0.00  0.00    +0.023 A 
ATOM     29  C   UNL     1       4.202  -1.402  27.852  0.00  0.00    +0.002 A 
ATOM     30  C   UNL     1       4.413  -0.047  27.599  0.00  0.00    +0.000 A 
ATOM     31  C   UNL     1       5.007   0.348  26.407  0.00  0.00    +0.002 A 
ATOM     32  C   UNL     1       5.419  -0.616  25.489  0.00  0.00    +0.023 A 
ENDBRANCH  25  27
ENDBRANCH   8  25
TORSDOF 9
ENDMDL
MODEL 7
REMARK VINA RESULT:      -6.4      3.926      8.346
REMARK  Name = 
REMARK  11 active torsions:
REMARK  status: ('A' for Active; 'I' for Inactive)
REMARK    1  A    between atoms: C_2  and  O_3
REMARK    2  A    between atoms: C_2  and  C_4
REMARK    3  A    between atoms: C_2  and  C_27
REMARK    4  A    between atoms: C_4  and  O_5
REMARK    5  A    between atoms: O_5  and  C_6
REMARK    6  A    between atoms: C_9  and  N_10
REMARK    7  A    between atoms: C_13  and  N_14
REMARK    8  A    between atoms: N_14  and  C_15
REMARK    9  A    between atoms: C_27  and  N_28
REMARK   10  A    between atoms: N_28  and  C_29
REMARK   11  A    between atoms: N_28  and  C_30
REMARK                            x       y       z     vdW  Elec       q    Type
REMARK                         _______ _______ _______ _____ _____    ______ ____
ROOT
ATOM      1  N   UNL     1      10.973   1.175  23.574  0.00  0.00    -0.284 N 
ATOM      2  H   UNL     1      11.949   1.189  23.310  0.00  0.00    +0.155 HD
ATOM      3  C   UNL     1      10.488   2.467  23.780  0.00  0.00    +0.221 A 
ATOM      4  N   UNL     1      11.308   3.490  23.514  0.00  0.00    -0.221 NA
ATOM      5  C   UNL     1      10.780   4.730  23.632  0.00  0.00    +0.133 A 
ATOM      6  C   UNL     1       9.484   4.990  24.022  0.00  0.00    +0.076 A 
ATOM      7 BR   UNL     1       8.828   6.756  24.068  0.00  0.00    -0.045 Br
ATOM      8  C   UNL     1       8.737   3.888  24.381  0.00  0.00    +0.142 A 
ATOM      9  N   UNL     1       9.242   2.646  24.238  0.00  0.00    -0.198 NA
ENDROOT
BRANCH   1  13
ATOM     10  C   UNL     1       8.625  -2.263  22.726  0.00  0.00    +0.121 A 
ATOM     11  C   UNL     1       9.057  -2.001  24.027  0.00  0.00    +0.047 A 
ATOM     12  C   UNL     1       9.868  -0.880  24.299  0.00  0.00    +0.027 A 
ATOM     13  C   UNL     1      10.262  -0.002  23.278  0.00  0.00    +0.034 A 
ATOM     14  C   UNL     1       9.832  -0.295  21.983  0.00  0.00    +0.027 A 
ATOM     15  C   UNL     1       9.035  -1.403  21.709  0.00  0.00    +0.047 A 
BRANCH  10  16
ATOM     16  O   UNL     1       7.809  -3.360  22.537  0.00  0.00    -0.489 OA
BRANCH  16  17
ATOM     17  C   UNL     1       6.416  -3.014  22.411  0.00  0.00    +0.261 C 
BRANCH  17  18
ATOM     18  C   UNL     1       5.522  -3.845  23.334  0.00  0.00    +0.166 C 
BRANCH  18  19
ATOM     19  O   UNL     1       4.403  -4.360  22.597  0.00  0.00    -0.387 OA
ATOM     20  H   UNL     1       4.696  -5.208  22.213  0.00  0.00    +0.210 HD
ENDBRANCH  18  19
BRANCH  18  21
ATOM     21  C   UNL     1       6.322  -5.044  23.905  0.00  0.00    +0.118 C 
BRANCH  21  22
ATOM     22  N   UNL     1       6.584  -5.029  25.361  0.00  0.00    -0.306 NA
ATOM     23  C   UNL     1       6.078  -3.785  25.948  0.00  0.00    +0.104 C 
ATOM     24  C   UNL     1       8.007  -5.185  25.663  0.00  0.00    +0.104 C 
ENDBRANCH  21  22
ENDBRANCH  18  21
ENDBRANCH  17  18
ENDBRANCH  16  17
ENDBRANCH  10  16
ENDBRANCH   1  13
BRANCH   8  25
ATOM     25  N   UNL     1       7.453   4.024  24.961  0.00  0.00    -0.298 N 
ATOM     26  H   UNL     1       7.474   4.571  25.814  0.00  0.00    +0.154 HD
BRANCH  25  27
ATOM     27  C   UNL     1       6.253   4.123  24.224  0.00  0.00    +0.032 A 
ATOM     28  C   UNL     1       5.379   5.199  24.401  0.00  0.00    +0.023 A 
ATOM     29  C   UNL     1       4.249   5.335  23.585  0.00  0.00    +0.002 A 
ATOM     30  C   UNL     1       3.971   4.388  22.599  0.00  0.00    +0.000 A 
ATOM     31  C   UNL     1       4.800   3.283  22.451  0.00  0.00    +0.002 A 
ATOM     32  C   UNL     1       5.923   3.149  23.266  0.00  0.00    +0.023 A 
ENDBRANCH  25  27
ENDBRANCH   8  25
TORSDOF 9
ENDMDL
MODEL 8
REMARK VINA RESULT:      -6.3      4.496      8.318
REMARK  Name = 
REMARK  11 active torsions:
REMARK  status: ('A' for Active; 'I' for Inactive)
REMARK    1  A    between atoms: C_2  and  O_3
REMARK    2  A    between atoms: C_2  and  C_4
REMARK    3  A    between atoms: C_2  and  C_27
REMARK    4  A    between atoms: C_4  and  O_5
REMARK    5  A    between atoms: O_5  and  C_6
REMARK    6  A    between atoms: C_9  and  N_10
REMARK    7  A    between atoms: C_13  and  N_14
REMARK    8  A    between atoms: N_14  and  C_15
REMARK    9  A    between atoms: C_27  and  N_28
REMARK   10  A    between atoms: N_28  and  C_29
REMARK   11  A    between atoms: N_28  and  C_30
REMARK                            x       y       z     vdW  Elec       q    Type
REMARK                         _______ _______ _______ _____ _____    ______ ____
ROOT
ATOM      1  N   UNL     1       9.892  -1.106  22.848  0.00  0.00    -0.284 N 
ATOM      2  H   UNL     1      10.512  -1.177  22.052  0.00  0.00    +0.155 HD
ATOM      3  C   UNL     1       9.751   0.219  23.261  0.00  0.00    +0.221 A 
ATOM      4  N   UNL     1      10.341   1.167  22.524  0.00  0.00    -0.221 NA
ATOM      5  C   UNL     1      10.108   2.448  22.894  0.00  0.00    +0.133 A 
ATOM      6  C   UNL     1       9.334   2.817  23.973  0.00  0.00    +0.076 A 
ATOM      7 BR   UNL     1       9.006   4.635  24.344  0.00  0.00    -0.045 Br
ATOM      8  C   UNL     1       8.851   1.780  24.743  0.00  0.00    +0.142 A 
ATOM      9  N   UNL     1       9.050   0.502  24.367  0.00  0.00    -0.198 NA
ENDROOT
BRANCH   1  13
ATOM     10  C   UNL     1       7.437  -4.534  23.368  0.00  0.00    +0.121 A 
ATOM     11  C   UNL     1       7.132  -3.583  22.394  0.00  0.00    +0.047 A 
ATOM     12  C   UNL     1       7.926  -2.427  22.250  0.00  0.00    +0.027 A 
ATOM     13  C   UNL     1       9.039  -2.201  23.074  0.00  0.00    +0.034 A 
ATOM     14  C   UNL     1       9.313  -3.157  24.052  0.00  0.00    +0.027 A 
ATOM     15  C   UNL     1       8.528  -4.298  24.202  0.00  0.00    +0.047 A 
BRANCH  10  16
ATOM     16  O   UNL     1       6.635  -5.655  23.434  0.00  0.00    -0.489 OA
BRANCH  16  17
ATOM     17  C   UNL     1       5.240  -5.366  23.218  0.00  0.00    +0.261 C 
BRANCH  17  18
ATOM     18  C   UNL     1       4.332  -6.091  24.214  0.00  0.00    +0.166 C 
BRANCH  18  19
ATOM     19  O   UNL     1       4.593  -7.502  24.176  0.00  0.00    -0.387 OA
ATOM     20  H   UNL     1       5.564  -7.600  24.159  0.00  0.00    +0.210 HD
ENDBRANCH  18  19
BRANCH  18  21
ATOM     21  C   UNL     1       4.613  -5.583  25.651  0.00  0.00    +0.118 C 
BRANCH  21  22
ATOM     22  N   UNL     1       5.491  -6.429  26.489  0.00  0.00    -0.306 NA
ATOM     23  C   UNL     1       4.748  -6.927  27.650  0.00  0.00    +0.104 C 
ATOM     24  C   UNL     1       6.687  -5.710  26.929  0.00  0.00    +0.104 C 
ENDBRANCH  21  22
ENDBRANCH  18  21
ENDBRANCH  17  18
ENDBRANCH  16  17
ENDBRANCH  10  16
ENDBRANCH   1  13
BRANCH   8  25
ATOM     25  N   UNL     1       8.189   2.020  25.971  0.00  0.00    -0.298 N 
ATOM     26  H   UNL     1       8.336   2.965  26.307  0.00  0.00    +0.154 HD
BRANCH  25  27
ATOM     27  C   UNL     1       6.949   1.450  26.332  0.00  0.00    +0.032 A 
ATOM     28  C   UNL     1       5.746   1.944  25.820  0.00  0.00    +0.023 A 
ATOM     29  C   UNL     1       4.537   1.297  26.104  0.00  0.00    +0.002 A 
ATOM     30  C   UNL     1       4.516   0.164  26.918  0.00  0.00    +0.000 A 
ATOM     31  C   UNL     1       5.697  -0.304  27.480  0.00  0.00    +0.002 A 
ATOM     32  C   UNL     1       6.899   0.343  27.197  0.00  0.00    +0.023 A 
ENDBRANCH  25  27
ENDBRANCH   8  25
TORSDOF 9
ENDMDL
MODEL 9
REMARK VINA RESULT:      -6.3      4.244      8.131
REMARK  Name = 
REMARK  11 active torsions:
REMARK  status: ('A' for Active; 'I' for Inactive)
REMARK    1  A    between atoms: C_2  and  O_3
REMARK    2  A    between atoms: C_2  and  C_4
REMARK    3  A    between atoms: C_2  and  C_27
REMARK    4  A    between atoms: C_4  and  O_5
REMARK    5  A    between atoms: O_5  and  C_6
REMARK    6  A    between atoms: C_9  and  N_10
REMARK    7  A    between atoms: C_13  and  N_14
REMARK    8  A    between atoms: N_14  and  C_15
REMARK    9  A    between atoms: C_27  and  N_28
REMARK   10  A    between atoms: N_28  and  C_29
REMARK   11  A    between atoms: N_28  and  C_30
REMARK                            x       y       z     vdW  Elec       q    Type
REMARK                         _______ _______ _______ _____ _____    ______ ____
ROOT
ATOM      1  N   UNL     1      10.893   1.047  23.690  0.00  0.00    -0.284 N 
ATOM      2  H   UNL     1      11.892   1.044  23.527  0.00  0.00    +0.155 HD
ATOM      3  C   UNL     1      10.405   2.350  23.801  0.00  0.00    +0.221 A 
ATOM      4  N   UNL     1      11.260   3.356  23.587  0.00  0.00    -0.221 NA
ATOM      5  C   UNL     1      10.738   4.604  23.608  0.00  0.00    +0.133 A 
ATOM      6  C   UNL     1       9.411   4.887  23.854  0.00  0.00    +0.076 A 
ATOM      7 BR   UNL     1       8.775   6.659  23.773  0.00  0.00    -0.045 Br
ATOM      8  C   UNL     1       8.619   3.804  24.172  0.00  0.00    +0.142 A 
ATOM      9  N   UNL     1       9.121   2.555  24.123  0.00  0.00    -0.198 NA
ENDROOT
BRANCH   1  13
ATOM     10  C   UNL     1       8.604  -2.404  22.742  0.00  0.00    +0.121 A 
ATOM     11  C   UNL     1       8.990  -2.146  24.058  0.00  0.00    +0.047 A 
ATOM     12  C   UNL     1       9.782  -1.021  24.364  0.00  0.00    +0.027 A 
ATOM     13  C   UNL     1      10.203  -0.134  23.363  0.00  0.00    +0.034 A 
ATOM     14  C   UNL     1       9.820  -0.422  22.052  0.00  0.00    +0.027 A 
ATOM     15  C   UNL     1       9.042  -1.535  21.744  0.00  0.00    +0.047 A 
BRANCH  10  16
ATOM     16  O   UNL     1       7.805  -3.507  22.518  0.00  0.00    -0.489 OA
BRANCH  16  17
ATOM     17  C   UNL     1       6.420  -3.168  22.311  0.00  0.00    +0.261 C 
BRANCH  17  18
ATOM     18  C   UNL     1       5.490  -3.886  23.292  0.00  0.00    +0.166 C 
BRANCH  18  19
ATOM     19  O   UNL     1       4.361  -4.425  22.589  0.00  0.00    -0.387 OA
ATOM     20  H   UNL     1       4.628  -5.312  22.282  0.00  0.00    +0.210 HD
ENDBRANCH  18  19
BRANCH  18  21
ATOM     21  C   UNL     1       6.243  -5.057  23.972  0.00  0.00    +0.118 C 
BRANCH  21  22
ATOM     22  N   UNL     1       6.431  -4.958  25.436  0.00  0.00    -0.306 NA
ATOM     23  C   UNL     1       6.008  -3.636  25.907  0.00  0.00    +0.104 C 
ATOM     24  C   UNL     1       7.817  -5.211  25.830  0.00  0.00    +0.104 C 
ENDBRANCH  21  22
ENDBRANCH  18  21
ENDBRANCH  17  18
ENDBRANCH  16  17
ENDBRANCH  10  16
ENDBRANCH   1  13
BRANCH   8  25
ATOM     25  N   UNL     1       7.284   3.972  24.613  0.00  0.00    -0.298 N 
ATOM     26  H   UNL     1       6.644   4.125  23.843  0.00  0.00    +0.154 HD
BRANCH  25  27
ATOM     27  C   UNL     1       6.724   3.309  25.726  0.00  0.00    +0.032 A 
ATOM     28  C   UNL     1       5.738   2.331  25.568  0.00  0.00    +0.023 A 
ATOM     29  C   UNL     1       5.273   1.608  26.674  0.00  0.00    +0.002 A 
ATOM     30  C   UNL     1       5.773   1.870  27.949  0.00  0.00    +0.000 A 
ATOM     31  C   UNL     1       6.711   2.879  28.129  0.00  0.00    +0.002 A 
ATOM     32  C   UNL     1       7.171   3.597  27.026  0.00  0.00    +0.023 A 
ENDBRANCH  25  27
ENDBRANCH   8  25
TORSDOF 9
ENDMDL
