MODEL 1
REMARK VINA RESULT:      -7.9      0.000      0.000
REMARK  Name = 
REMARK  5 active torsions:
REMARK  status: ('A' for Active; 'I' for Inactive)
REMARK    1  A    between atoms: N_1  and  S_2
REMARK    2  A    between atoms: S_2  and  C_5
REMARK    3  A    between atoms: C_8  and  C_15
REMARK    4  A    between atoms: C_10  and  C_11
REMARK    5  A    between atoms: C_18  and  C_20
REMARK                            x       y       z     vdW  Elec       q    Type
REMARK                         _______ _______ _______ _____ _____    ______ ____
ROOT
ATOM      1  C   UNL     1       8.442  -3.180  24.645  0.00  0.00    +0.117 A 
ATOM      2  C   UNL     1       7.754  -2.902  23.453  0.00  0.00    +0.082 A 
ATOM      3  C   UNL     1       7.772  -1.565  22.983  0.00  0.00    +0.026 A 
ATOM      4  C   UNL     1       8.416  -0.525  23.677  0.00  0.00    +0.018 A 
ATOM      5  C   UNL     1       9.099  -0.846  24.852  0.00  0.00    +0.013 A 
ATOM      6  C   UNL     1       9.116  -2.159  25.333  0.00  0.00    +0.030 A 
ENDROOT
BRANCH   4   7
ATOM      7  C   UNL     1       8.347   0.859  23.215  0.00  0.00    +0.136 A 
ATOM      8  O   UNL     1       8.953   1.784  24.007  0.00  0.00    -0.455 OA
ATOM      9  C   UNL     1       8.813   3.029  23.443  0.00  0.00    +0.130 A 
ATOM     10  C   UNL     1       8.137   2.865  22.242  0.00  0.00    +0.050 A 
ATOM     11  C   UNL     1       7.816   1.490  22.112  0.00  0.00    +0.050 A 
BRANCH   9  12
ATOM     12  C   UNL     1       9.287   4.229  24.039  0.00  0.00    +0.066 C 
ATOM     13  C   UNL     1      10.486   4.756  23.757  0.00  0.00    +0.081 C 
ATOM     14  C   UNL     1      11.012   5.935  24.506  0.00  0.00    +0.257 C 
ATOM     15  O   UNL     1      10.373   6.603  25.302  0.00  0.00    -0.269 OA
ATOM     16  N   UNL     1      12.338   6.100  24.219  0.00  0.00    -0.261 N 
ATOM     17  H   UNL     1      12.902   6.782  24.699  0.00  0.00    +0.157 HD
ATOM     18  C   UNL     1      12.892   5.203  23.385  0.00  0.00    +0.158 C 
ATOM     19  N   UNL     1      14.147   5.136  23.150  0.00  0.00    -0.279 NA
ATOM     20  H   UNL     1      14.294   4.349  22.505  0.00  0.00    +0.189 HD
ATOM     21  S   UNL     1      11.718   4.142  22.705  0.00  0.00    -0.049 S 
ENDBRANCH   9  12
ENDBRANCH   4   7
BRANCH   2  22
ATOM     22  C   UNL     1       6.969  -3.893  22.622  0.00  0.00    +0.419 C 
ATOM     23  F   UNL     1       6.514  -3.340  21.464  0.00  0.00    -0.166 F 
ATOM     24  F   UNL     1       5.849  -4.310  23.286  0.00  0.00    -0.166 F 
ATOM     25  F   UNL     1       7.594  -5.042  22.258  0.00  0.00    -0.166 F 
ENDBRANCH   2  22
BRANCH   1  26
ATOM     26  S   UNL     1       8.524  -4.811  25.336  0.00  0.00    +0.056 S 
ATOM     27  O   UNL     1       7.179  -5.242  25.636  0.00  0.00    -0.153 OA
ATOM     28  O   UNL     1       9.427  -5.615  24.545  0.00  0.00    -0.153 OA
BRANCH  26  29
ATOM     29  N   UNL     1       9.330  -4.547  26.780  0.00  0.00    -0.204 NA
ATOM     30  H   UNL     1       9.919  -5.354  27.001  0.00  0.00    +0.144 HD
ATOM     31  H   UNL     1       9.836  -3.660  26.747  0.00  0.00    +0.144 HD
ENDBRANCH  26  29
ENDBRANCH   1  26
TORSDOF 5
ENDMDL
MODEL 2
REMARK VINA RESULT:      -7.8      3.604      9.365
REMARK  Name = 
REMARK  5 active torsions:
REMARK  status: ('A' for Active; 'I' for Inactive)
REMARK    1  A    between atoms: N_1  and  S_2
REMARK    2  A    between atoms: S_2  and  C_5
REMARK    3  A    between atoms: C_8  and  C_15
REMARK    4  A    between atoms: C_10  and  C_11
REMARK    5  A    between atoms: C_18  and  C_20
REMARK                            x       y       z     vdW  Elec       q    Type
REMARK                         _______ _______ _______ _____ _____    ______ ____
ROOT
ATOM      1  C   UNL     1       8.649   1.394  24.132  0.00  0.00    +0.117 A 
ATOM      2  C   UNL     1       8.829   0.608  22.982  0.00  0.00    +0.082 A 
ATOM      3  C   UNL     1       8.673  -0.794  23.116  0.00  0.00    +0.026 A 
ATOM      4  C   UNL     1       8.385  -1.411  24.347  0.00  0.00    +0.018 A 
ATOM      5  C   UNL     1       8.202  -0.593  25.463  0.00  0.00    +0.013 A 
ATOM      6  C   UNL     1       8.329   0.795  25.360  0.00  0.00    +0.030 A 
ENDROOT
BRANCH   4   7
ATOM      7  C   UNL     1       8.314  -2.865  24.475  0.00  0.00    +0.136 A 
ATOM      8  O   UNL     1       7.079  -3.418  24.339  0.00  0.00    -0.455 OA
ATOM      9  C   UNL     1       7.173  -4.781  24.475  0.00  0.00    +0.130 A 
ATOM     10  C   UNL     1       8.514  -5.087  24.657  0.00  0.00    +0.050 A 
ATOM     11  C   UNL     1       9.235  -3.868  24.686  0.00  0.00    +0.050 A 
BRANCH   9  12
ATOM     12  C   UNL     1       6.057  -5.662  24.438  0.00  0.00    +0.066 C 
ATOM     13  C   UNL     1       5.384  -6.030  25.536  0.00  0.00    +0.081 C 
ATOM     14  C   UNL     1       4.312  -7.067  25.479  0.00  0.00    +0.257 C 
ATOM     15  O   UNL     1       3.852  -7.546  24.457  0.00  0.00    -0.269 OA
ATOM     16  N   UNL     1       3.982  -7.448  26.749  0.00  0.00    -0.261 N 
ATOM     17  H   UNL     1       3.347  -8.209  26.925  0.00  0.00    +0.157 HD
ATOM     18  C   UNL     1       4.667  -6.869  27.751  0.00  0.00    +0.158 C 
ATOM     19  N   UNL     1       4.580  -7.237  28.973  0.00  0.00    -0.279 NA
ATOM     20  H   UNL     1       5.227  -6.648  29.514  0.00  0.00    +0.189 HD
ATOM     21  S   UNL     1       5.694  -5.606  27.187  0.00  0.00    -0.049 S 
ENDBRANCH   9  12
ENDBRANCH   4   7
BRANCH   2  22
ATOM     22  C   UNL     1       9.196   1.112  21.603  0.00  0.00    +0.419 C 
ATOM     23  F   UNL     1       8.194   1.848  21.047  0.00  0.00    -0.166 F 
ATOM     24  F   UNL     1       9.400   0.071  20.740  0.00  0.00    -0.166 F 
ATOM     25  F   UNL     1      10.315   1.872  21.489  0.00  0.00    -0.166 F 
ENDBRANCH   2  22
BRANCH   1  26
ATOM     26  S   UNL     1       8.787   3.161  24.105  0.00  0.00    +0.056 S 
ATOM     27  O   UNL     1      10.179   3.502  23.919  0.00  0.00    -0.153 OA
ATOM     28  O   UNL     1       7.747   3.705  23.263  0.00  0.00    -0.153 OA
BRANCH  26  29
ATOM     29  N   UNL     1       8.344   3.578  25.664  0.00  0.00    -0.204 NA
ATOM     30  H   UNL     1       7.370   3.312  25.831  0.00  0.00    +0.144 HD
ATOM     31  H   UNL     1       9.003   3.185  26.338  0.00  0.00    +0.144 HD
ENDBRANCH  26  29
ENDBRANCH   1  26
TORSDOF 5
ENDMDL
MODEL 3
REMARK VINA RESULT:      -7.7      4.630      9.064
REMARK  Name = 
REMARK  5 active torsions:
REMARK  status: ('A' for Active; 'I' for Inactive)
REMARK    1  A    between atoms: N_1  and  S_2
REMARK    2  A    between atoms: S_2  and  C_5
REMARK    3  A    between atoms: C_8  and  C_15
REMARK    4  A    between atoms: C_10  and  C_11
REMARK    5  A    between atoms: C_18  and  C_20
REMARK                            x       y       z     vdW  Elec       q    Type
REMARK                         _______ _______ _______ _____ _____    ______ ____
ROOT
ATOM      1  C   UNL     1       8.480   4.647  25.319  0.00  0.00    +0.117 A 
ATOM      2  C   UNL     1       9.437   4.682  24.291  0.00  0.00    +0.082 A 
ATOM      3  C   UNL     1       9.681   3.479  23.582  0.00  0.00    +0.026 A 
ATOM      4  C   UNL     1       9.032   2.271  23.892  0.00  0.00    +0.018 A 
ATOM      5  C   UNL     1       8.078   2.282  24.913  0.00  0.00    +0.013 A 
ATOM      6  C   UNL     1       7.801   3.456  25.618  0.00  0.00    +0.030 A 
ENDROOT
BRANCH   4   7
ATOM      7  C   UNL     1       9.364   1.027  23.202  0.00  0.00    +0.136 A 
ATOM      8  O   UNL     1       9.048  -0.123  23.858  0.00  0.00    -0.455 OA
ATOM      9  C   UNL     1       9.410  -1.201  23.087  0.00  0.00    +0.130 A 
ATOM     10  C   UNL     1       9.926  -0.705  21.898  0.00  0.00    +0.050 A 
ATOM     11  C   UNL     1       9.923   0.710  21.984  0.00  0.00    +0.050 A 
BRANCH   9  12
ATOM     12  C   UNL     1       9.266  -2.555  23.497  0.00  0.00    +0.066 C 
ATOM     13  C   UNL     1       8.205  -3.304  23.169  0.00  0.00    +0.081 C 
ATOM     14  C   UNL     1       8.016  -4.672  23.735  0.00  0.00    +0.257 C 
ATOM     15  O   UNL     1       8.842  -5.280  24.395  0.00  0.00    -0.269 OA
ATOM     16  N   UNL     1       6.748  -5.104  23.464  0.00  0.00    -0.261 N 
ATOM     17  H   UNL     1       6.389  -5.964  23.845  0.00  0.00    +0.157 HD
ATOM     18  C   UNL     1       5.948  -4.251  22.800  0.00  0.00    +0.158 C 
ATOM     19  N   UNL     1       4.698  -4.451  22.616  0.00  0.00    -0.279 NA
ATOM     20  H   UNL     1       4.332  -3.635  22.110  0.00  0.00    +0.189 HD
ATOM     21  S   UNL     1       6.798  -2.852  22.265  0.00  0.00    -0.049 S 
ENDBRANCH   9  12
ENDBRANCH   4   7
BRANCH   2  22
ATOM     22  C   UNL     1      10.258   5.883  23.875  0.00  0.00    +0.419 C 
ATOM     23  F   UNL     1       9.512   6.797  23.194  0.00  0.00    -0.166 F 
ATOM     24  F   UNL     1      11.255   5.519  23.015  0.00  0.00    -0.166 F 
ATOM     25  F   UNL     1      10.890   6.581  24.852  0.00  0.00    -0.166 F 
ENDBRANCH   2  22
BRANCH   1  26
ATOM     26  S   UNL     1       8.056   6.081  26.271  0.00  0.00    +0.056 S 
ATOM     27  O   UNL     1       9.150   6.366  27.170  0.00  0.00    -0.153 OA
ATOM     28  O   UNL     1       7.506   7.087  25.392  0.00  0.00    -0.153 OA
BRANCH  26  29
ATOM     29  N   UNL     1       6.755   5.538  27.175  0.00  0.00    -0.204 NA
ATOM     30  H   UNL     1       5.900   5.584  26.615  0.00  0.00    +0.144 HD
ATOM     31  H   UNL     1       6.952   4.613  27.559  0.00  0.00    +0.144 HD
ENDBRANCH  26  29
ENDBRANCH   1  26
TORSDOF 5
ENDMDL
MODEL 4
REMARK VINA RESULT:      -7.6      2.942      3.505
REMARK  Name = 
REMARK  5 active torsions:
REMARK  status: ('A' for Active; 'I' for Inactive)
REMARK    1  A    between atoms: N_1  and  S_2
REMARK    2  A    between atoms: S_2  and  C_5
REMARK    3  A    between atoms: C_8  and  C_15
REMARK    4  A    between atoms: C_10  and  C_11
REMARK    5  A    between atoms: C_18  and  C_20
REMARK                            x       y       z     vdW  Elec       q    Type
REMARK                         _______ _______ _______ _____ _____    ______ ____
ROOT
ATOM      1  C   UNL     1       6.490  -3.834  23.376  0.00  0.00    +0.117 A 
ATOM      2  C   UNL     1       7.814  -3.756  23.839  0.00  0.00    +0.082 A 
ATOM      3  C   UNL     1       8.508  -2.538  23.635  0.00  0.00    +0.026 A 
ATOM      4  C   UNL     1       7.936  -1.440  22.967  0.00  0.00    +0.018 A 
ATOM      5  C   UNL     1       6.613  -1.555  22.533  0.00  0.00    +0.013 A 
ATOM      6  C   UNL     1       5.894  -2.736  22.735  0.00  0.00    +0.030 A 
ENDROOT
BRANCH   4   7
ATOM      7  C   UNL     1       8.702  -0.227  22.695  0.00  0.00    +0.136 A 
ATOM      8  O   UNL     1       8.534   0.796  23.576  0.00  0.00    -0.455 OA
ATOM      9  C   UNL     1       9.320   1.857  23.196  0.00  0.00    +0.130 A 
ATOM     10  C   UNL     1      10.029   1.464  22.070  0.00  0.00    +0.050 A 
ATOM     11  C   UNL     1       9.615   0.151  21.735  0.00  0.00    +0.050 A 
BRANCH   9  12
ATOM     12  C   UNL     1       9.345   3.108  23.871  0.00  0.00    +0.066 C 
ATOM     13  C   UNL     1       8.594   4.152  23.497  0.00  0.00    +0.081 C 
ATOM     14  C   UNL     1       8.751   5.491  24.136  0.00  0.00    +0.257 C 
ATOM     15  O   UNL     1       9.432   5.724  25.120  0.00  0.00    -0.269 OA
ATOM     16  N   UNL     1       8.077   6.426  23.402  0.00  0.00    -0.261 N 
ATOM     17  H   UNL     1       8.139   7.409  23.611  0.00  0.00    +0.157 HD
ATOM     18  C   UNL     1       7.457   5.990  22.291  0.00  0.00    +0.158 C 
ATOM     19  N   UNL     1       6.924   6.768  21.427  0.00  0.00    -0.279 NA
ATOM     20  H   UNL     1       6.551   6.175  20.674  0.00  0.00    +0.189 HD
ATOM     21  S   UNL     1       7.501   4.274  22.157  0.00  0.00    -0.049 S 
ENDBRANCH   9  12
ENDBRANCH   4   7
BRANCH   2  22
ATOM     22  C   UNL     1       8.587  -4.862  24.523  0.00  0.00    +0.419 C 
ATOM     23  F   UNL     1       9.856  -4.477  24.835  0.00  0.00    -0.166 F 
ATOM     24  F   UNL     1       8.731  -5.941  23.698  0.00  0.00    -0.166 F 
ATOM     25  F   UNL     1       8.069  -5.376  25.667  0.00  0.00    -0.166 F 
ENDBRANCH   2  22
BRANCH   1  26
ATOM     26  S   UNL     1       5.495  -5.286  23.585  0.00  0.00    +0.056 S 
ATOM     27  O   UNL     1       6.025  -6.323  22.730  0.00  0.00    -0.153 OA
ATOM     28  O   UNL     1       5.261  -5.501  24.994  0.00  0.00    -0.153 OA
BRANCH  26  29
ATOM     29  N   UNL     1       4.016  -4.797  22.970  0.00  0.00    -0.204 NA
ATOM     30  H   UNL     1       4.143  -4.399  22.036  0.00  0.00    +0.144 HD
ATOM     31  H   UNL     1       3.345  -5.566  23.007  0.00  0.00    +0.144 HD
ENDBRANCH  26  29
ENDBRANCH   1  26
TORSDOF 5
ENDMDL
MODEL 5
REMARK VINA RESULT:      -7.6      2.185      2.651
REMARK  Name = 
REMARK  5 active torsions:
REMARK  status: ('A' for Active; 'I' for Inactive)
REMARK    1  A    between atoms: N_1  and  S_2
REMARK    2  A    between atoms: S_2  and  C_5
REMARK    3  A    between atoms: C_8  and  C_15
REMARK    4  A    between atoms: C_10  and  C_11
REMARK    5  A    between atoms: C_18  and  C_20
REMARK                            x       y       z     vdW  Elec       q    Type
REMARK                         _______ _______ _______ _____ _____    ______ ____
ROOT
ATOM      1  C   UNL     1       7.572  -3.599  25.199  0.00  0.00    +0.117 A 
ATOM      2  C   UNL     1       7.685  -3.594  23.799  0.00  0.00    +0.082 A 
ATOM      3  C   UNL     1       8.225  -2.434  23.190  0.00  0.00    +0.026 A 
ATOM      4  C   UNL     1       8.610  -1.300  23.926  0.00  0.00    +0.018 A 
ATOM      5  C   UNL     1       8.493  -1.350  25.317  0.00  0.00    +0.013 A 
ATOM      6  C   UNL     1       7.982  -2.487  25.950  0.00  0.00    +0.030 A 
ENDROOT
BRANCH   4   7
ATOM      7  C   UNL     1       9.084  -0.085  23.267  0.00  0.00    +0.136 A 
ATOM      8  O   UNL     1       9.140   1.032  24.041  0.00  0.00    -0.455 OA
ATOM      9  C   UNL     1       9.608   2.083  23.290  0.00  0.00    +0.130 A 
ATOM     10  C   UNL     1       9.891   1.593  22.024  0.00  0.00    +0.050 A 
ATOM     11  C   UNL     1       9.531   0.222  22.001  0.00  0.00    +0.050 A 
BRANCH   9  12
ATOM     12  C   UNL     1       9.742   3.411  23.780  0.00  0.00    +0.066 C 
ATOM     13  C   UNL     1       8.917   4.404  23.424  0.00  0.00    +0.081 C 
ATOM     14  C   UNL     1       9.173   5.814  23.842  0.00  0.00    +0.257 C 
ATOM     15  O   UNL     1      10.025   6.167  24.639  0.00  0.00    -0.269 OA
ATOM     16  N   UNL     1       8.355   6.652  23.135  0.00  0.00    -0.261 N 
ATOM     17  H   UNL     1       8.441   7.653  23.199  0.00  0.00    +0.157 HD
ATOM     18  C   UNL     1       7.542   6.080  22.229  0.00  0.00    +0.158 C 
ATOM     19  N   UNL     1       6.841   6.743  21.390  0.00  0.00    -0.279 NA
ATOM     20  H   UNL     1       6.341   6.061  20.806  0.00  0.00    +0.189 HD
ATOM     21  S   UNL     1       7.586   4.360  22.314  0.00  0.00    -0.049 S 
ENDBRANCH   9  12
ENDBRANCH   4   7
BRANCH   2  22
ATOM     22  C   UNL     1       7.265  -4.707  22.865  0.00  0.00    +0.419 C 
ATOM     23  F   UNL     1       7.997  -5.839  23.060  0.00  0.00    -0.166 F 
ATOM     24  F   UNL     1       7.480  -4.359  21.561  0.00  0.00    -0.166 F 
ATOM     25  F   UNL     1       5.966  -5.101  22.900  0.00  0.00    -0.166 F 
ENDBRANCH   2  22
BRANCH   1  26
ATOM     26  S   UNL     1       6.939  -4.991  26.096  0.00  0.00    +0.056 S 
ATOM     27  O   UNL     1       5.598  -5.258  25.628  0.00  0.00    -0.153 OA
ATOM     28  O   UNL     1       7.950  -6.021  26.147  0.00  0.00    -0.153 OA
BRANCH  26  29
ATOM     29  N   UNL     1       6.846  -4.398  27.659  0.00  0.00    -0.204 NA
ATOM     30  H   UNL     1       7.661  -3.811  27.856  0.00  0.00    +0.144 HD
ATOM     31  H   UNL     1       5.951  -3.930  27.807  0.00  0.00    +0.144 HD
ENDBRANCH  26  29
ENDBRANCH   1  26
TORSDOF 5
ENDMDL
MODEL 6
REMARK VINA RESULT:      -7.5      4.572      9.029
REMARK  Name = 
REMARK  5 active torsions:
REMARK  status: ('A' for Active; 'I' for Inactive)
REMARK    1  A    between atoms: N_1  and  S_2
REMARK    2  A    between atoms: S_2  and  C_5
REMARK    3  A    between atoms: C_8  and  C_15
REMARK    4  A    between atoms: C_10  and  C_11
REMARK    5  A    between atoms: C_18  and  C_20
REMARK                            x       y       z     vdW  Elec       q    Type
REMARK                         _______ _______ _______ _____ _____    ______ ____
ROOT
ATOM      1  C   UNL     1       7.236   4.560  22.777  0.00  0.00    +0.117 A 
ATOM      2  C   UNL     1       8.558   4.306  23.178  0.00  0.00    +0.082 A 
ATOM      3  C   UNL     1       9.069   3.002  22.964  0.00  0.00    +0.026 A 
ATOM      4  C   UNL     1       8.298   1.967  22.405  0.00  0.00    +0.018 A 
ATOM      5  C   UNL     1       6.992   2.264  22.009  0.00  0.00    +0.013 A 
ATOM      6  C   UNL     1       6.464   3.546  22.189  0.00  0.00    +0.030 A 
ENDROOT
BRANCH   4   7
ATOM      7  C   UNL     1       8.821   0.609  22.274  0.00  0.00    +0.136 A 
ATOM      8  O   UNL     1       7.942  -0.397  22.529  0.00  0.00    -0.455 OA
ATOM      9  C   UNL     1       8.571  -1.606  22.359  0.00  0.00    +0.130 A 
ATOM     10  C   UNL     1       9.868  -1.342  21.942  0.00  0.00    +0.050 A 
ATOM     11  C   UNL     1      10.035   0.066  21.916  0.00  0.00    +0.050 A 
BRANCH   9  12
ATOM     12  C   UNL     1       7.952  -2.864  22.594  0.00  0.00    +0.066 C 
ATOM     13  C   UNL     1       7.983  -3.478  23.784  0.00  0.00    +0.081 C 
ATOM     14  C   UNL     1       7.450  -4.861  23.959  0.00  0.00    +0.257 C 
ATOM     15  O   UNL     1       6.821  -5.482  23.120  0.00  0.00    -0.269 OA
ATOM     16  N   UNL     1       7.842  -5.348  25.174  0.00  0.00    -0.261 N 
ATOM     17  H   UNL     1       7.667  -6.303  25.443  0.00  0.00    +0.157 HD
ATOM     18  C   UNL     1       8.614  -4.544  25.927  0.00  0.00    +0.158 C 
ATOM     19  N   UNL     1       9.183  -4.920  27.009  0.00  0.00    -0.279 NA
ATOM     20  H   UNL     1       9.728  -4.121  27.359  0.00  0.00    +0.189 HD
ATOM     21  S   UNL     1       8.769  -2.971  25.244  0.00  0.00    -0.049 S 
ENDBRANCH   9  12
ENDBRANCH   4   7
BRANCH   2  22
ATOM     22  C   UNL     1       9.495   5.291  23.842  0.00  0.00    +0.419 C 
ATOM     23  F   UNL     1       9.723   6.383  23.059  0.00  0.00    -0.166 F 
ATOM     24  F   UNL     1      10.726   4.733  24.049  0.00  0.00    -0.166 F 
ATOM     25  F   UNL     1       9.136   5.780  25.056  0.00  0.00    -0.166 F 
ENDBRANCH   2  22
BRANCH   1  26
ATOM     26  S   UNL     1       6.477   6.151  22.961  0.00  0.00    +0.056 S 
ATOM     27  O   UNL     1       6.308   6.410  24.372  0.00  0.00    -0.153 OA
ATOM     28  O   UNL     1       7.132   7.092  22.083  0.00  0.00    -0.153 OA
BRANCH  26  29
ATOM     29  N   UNL     1       4.966   5.906  22.283  0.00  0.00    -0.204 NA
ATOM     30  H   UNL     1       5.051   5.324  21.446  0.00  0.00    +0.144 HD
ATOM     31  H   UNL     1       4.319   5.536  22.982  0.00  0.00    +0.144 HD
ENDBRANCH  26  29
ENDBRANCH   1  26
TORSDOF 5
ENDMDL
MODEL 7
REMARK VINA RESULT:      -7.5      3.905      9.464
REMARK  Name = 
REMARK  5 active torsions:
REMARK  status: ('A' for Active; 'I' for Inactive)
REMARK    1  A    between atoms: N_1  and  S_2
REMARK    2  A    between atoms: S_2  and  C_5
REMARK    3  A    between atoms: C_8  and  C_15
REMARK    4  A    between atoms: C_10  and  C_11
REMARK    5  A    between atoms: C_18  and  C_20
REMARK                            x       y       z     vdW  Elec       q    Type
REMARK                         _______ _______ _______ _____ _____    ______ ____
ROOT
ATOM      1  C   UNL     1       8.286   0.415  22.652  0.00  0.00    +0.117 A 
ATOM      2  C   UNL     1       7.150   0.030  23.383  0.00  0.00    +0.082 A 
ATOM      3  C   UNL     1       6.803  -1.344  23.379  0.00  0.00    +0.026 A 
ATOM      4  C   UNL     1       7.526  -2.307  22.653  0.00  0.00    +0.018 A 
ATOM      5  C   UNL     1       8.656  -1.885  21.949  0.00  0.00    +0.013 A 
ATOM      6  C   UNL     1       9.036  -0.540  21.949  0.00  0.00    +0.030 A 
ENDROOT
BRANCH   4   7
ATOM      7  C   UNL     1       7.097  -3.702  22.596  0.00  0.00    +0.136 A 
ATOM      8  O   UNL     1       5.932  -3.995  23.236  0.00  0.00    -0.455 OA
ATOM      9  C   UNL     1       5.657  -5.333  23.089  0.00  0.00    +0.130 A 
ATOM     10  C   UNL     1       6.658  -5.877  22.298  0.00  0.00    +0.050 A 
ATOM     11  C   UNL     1       7.588  -4.847  22.009  0.00  0.00    +0.050 A 
BRANCH   9  12
ATOM     12  C   UNL     1       4.537  -5.983  23.678  0.00  0.00    +0.066 C 
ATOM     13  C   UNL     1       4.456  -6.246  24.989  0.00  0.00    +0.081 C 
ATOM     14  C   UNL     1       3.336  -7.057  25.550  0.00  0.00    +0.257 C 
ATOM     15  O   UNL     1       2.346  -7.410  24.932  0.00  0.00    -0.269 OA
ATOM     16  N   UNL     1       3.628  -7.403  26.840  0.00  0.00    -0.261 N 
ATOM     17  H   UNL     1       3.043  -8.034  27.364  0.00  0.00    +0.157 HD
ATOM     18  C   UNL     1       4.816  -6.995  27.320  0.00  0.00    +0.158 C 
ATOM     19  N   UNL     1       5.292  -7.374  28.445  0.00  0.00    -0.279 NA
ATOM     20  H   UNL     1       6.216  -6.935  28.547  0.00  0.00    +0.189 HD
ATOM     21  S   UNL     1       5.626  -5.936  26.229  0.00  0.00    -0.049 S 
ENDBRANCH   9  12
ENDBRANCH   4   7
BRANCH   2  22
ATOM     22  C   UNL     1       6.239   0.949  24.167  0.00  0.00    +0.419 C 
ATOM     23  F   UNL     1       6.906   1.607  25.155  0.00  0.00    -0.166 F 
ATOM     24  F   UNL     1       5.260   0.239  24.805  0.00  0.00    -0.166 F 
ATOM     25  F   UNL     1       5.569   1.907  23.477  0.00  0.00    -0.166 F 
ENDBRANCH   2  22
BRANCH   1  26
ATOM     26  S   UNL     1       8.851   2.094  22.590  0.00  0.00    +0.056 S 
ATOM     27  O   UNL     1       7.843   2.885  21.924  0.00  0.00    -0.153 OA
ATOM     28  O   UNL     1       9.384   2.462  23.881  0.00  0.00    -0.153 OA
BRANCH  26  29
ATOM     29  N   UNL     1      10.187   1.984  21.586  0.00  0.00    -0.204 NA
ATOM     30  H   UNL     1       9.921   1.541  20.703  0.00  0.00    +0.144 HD
ATOM     31  H   UNL     1      10.625   2.900  21.477  0.00  0.00    +0.144 HD
ENDBRANCH  26  29
ENDBRANCH   1  26
TORSDOF 5
ENDMDL
MODEL 8
REMARK VINA RESULT:      -7.3      3.296      3.785
REMARK  Name = 
REMARK  5 active torsions:
REMARK  status: ('A' for Active; 'I' for Inactive)
REMARK    1  A    between atoms: N_1  and  S_2
REMARK    2  A    between atoms: S_2  and  C_5
REMARK    3  A    between atoms: C_8  and  C_15
REMARK    4  A    between atoms: C_10  and  C_11
REMARK    5  A    between atoms: C_18  and  C_20
REMARK                            x       y       z     vdW  Elec       q    Type
REMARK                         _______ _______ _______ _____ _____    ______ ____
ROOT
ATOM      1  C   UNL     1       5.312  -4.306  23.445  0.00  0.00    +0.117 A 
ATOM      2  C   UNL     1       6.335  -4.552  22.515  0.00  0.00    +0.082 A 
ATOM      3  C   UNL     1       7.219  -3.485  22.215  0.00  0.00    +0.026 A 
ATOM      4  C   UNL     1       7.085  -2.206  22.784  0.00  0.00    +0.018 A 
ATOM      5  C   UNL     1       6.061  -2.006  23.713  0.00  0.00    +0.013 A 
ATOM      6  C   UNL     1       5.185  -3.043  24.044  0.00  0.00    +0.030 A 
ENDROOT
BRANCH   4   7
ATOM      7  C   UNL     1       7.956  -1.101  22.393  0.00  0.00    +0.136 A 
ATOM      8  O   UNL     1       7.414   0.144  22.469  0.00  0.00    -0.455 OA
ATOM      9  C   UNL     1       8.349   1.073  22.081  0.00  0.00    +0.130 A 
ATOM     10  C   UNL     1       9.521   0.386  21.798  0.00  0.00    +0.050 A 
ATOM     11  C   UNL     1       9.263  -0.997  21.968  0.00  0.00    +0.050 A 
BRANCH   9  12
ATOM     12  C   UNL     1       8.094   2.469  21.996  0.00  0.00    +0.066 C 
ATOM     13  C   UNL     1       8.233   3.299  23.039  0.00  0.00    +0.081 C 
ATOM     14  C   UNL     1       7.819   4.730  22.953  0.00  0.00    +0.257 C 
ATOM     15  O   UNL     1       7.476   5.302  21.933  0.00  0.00    -0.269 OA
ATOM     16  N   UNL     1       7.810   5.275  24.207  0.00  0.00    -0.261 N 
ATOM     17  H   UNL     1       7.464   6.205  24.377  0.00  0.00    +0.157 HD
ATOM     18  C   UNL     1       8.131   4.456  25.224  0.00  0.00    +0.158 C 
ATOM     19  N   UNL     1       8.014   4.779  26.456  0.00  0.00    -0.279 NA
ATOM     20  H   UNL     1       8.301   3.963  27.012  0.00  0.00    +0.189 HD
ATOM     21  S   UNL     1       8.681   2.921  24.669  0.00  0.00    -0.049 S 
ENDBRANCH   9  12
ENDBRANCH   4   7
BRANCH   2  22
ATOM     22  C   UNL     1       6.578  -5.850  21.777  0.00  0.00    +0.419 C 
ATOM     23  F   UNL     1       7.661  -5.773  20.954  0.00  0.00    -0.166 F 
ATOM     24  F   UNL     1       5.526  -6.152  20.959  0.00  0.00    -0.166 F 
ATOM     25  F   UNL     1       6.762  -6.970  22.520  0.00  0.00    -0.166 F 
ENDBRANCH   2  22
BRANCH   1  26
ATOM     26  S   UNL     1       4.152  -5.553  23.933  0.00  0.00    +0.056 S 
ATOM     27  O   UNL     1       3.237  -5.773  22.836  0.00  0.00    -0.153 OA
ATOM     28  O   UNL     1       4.863  -6.640  24.566  0.00  0.00    -0.153 OA
BRANCH  26  29
ATOM     29  N   UNL     1       3.318  -4.800  25.174  0.00  0.00    -0.204 NA
ATOM     30  H   UNL     1       3.035  -3.861  24.883  0.00  0.00    +0.144 HD
ATOM     31  H   UNL     1       2.544  -5.388  25.489  0.00  0.00    +0.144 HD
ENDBRANCH  26  29
ENDBRANCH   1  26
TORSDOF 5
ENDMDL
MODEL 9
REMARK VINA RESULT:      -7.2      3.666      9.072
REMARK  Name = 
REMARK  5 active torsions:
REMARK  status: ('A' for Active; 'I' for Inactive)
REMARK    1  A    between atoms: N_1  and  S_2
REMARK    2  A    between atoms: S_2  and  C_5
REMARK    3  A    between atoms: C_8  and  C_15
REMARK    4  A    between atoms: C_10  and  C_11
REMARK    5  A    between atoms: C_18  and  C_20
REMARK                            x       y       z     vdW  Elec       q    Type
REMARK                         _______ _______ _______ _____ _____    ______ ____
ROOT
ATOM      1  C   UNL     1       9.430   3.619  24.124  0.00  0.00    +0.117 A 
ATOM      2  C   UNL     1       8.458   2.950  24.887  0.00  0.00    +0.082 A 
ATOM      3  C   UNL     1       8.540   1.537  24.959  0.00  0.00    +0.026 A 
ATOM      4  C   UNL     1       9.523   0.798  24.276  0.00  0.00    +0.018 A 
ATOM      5  C   UNL     1      10.477   1.502  23.538  0.00  0.00    +0.013 A 
ATOM      6  C   UNL     1      10.436   2.897  23.463  0.00  0.00    +0.030 A 
ENDROOT
BRANCH   4   7
ATOM      7  C   UNL     1       9.533  -0.662  24.297  0.00  0.00    +0.136 A 
ATOM      8  O   UNL     1       8.866  -1.249  25.327  0.00  0.00    -0.455 OA
ATOM      9  C   UNL     1       8.956  -2.615  25.208  0.00  0.00    +0.130 A 
ATOM     10  C   UNL     1       9.663  -2.883  24.045  0.00  0.00    +0.050 A 
ATOM     11  C   UNL     1      10.054  -1.643  23.482  0.00  0.00    +0.050 A 
BRANCH   9  12
ATOM     12  C   UNL     1       8.411  -3.532  26.149  0.00  0.00    +0.066 C 
ATOM     13  C   UNL     1       7.576  -4.520  25.801  0.00  0.00    +0.081 C 
ATOM     14  C   UNL     1       6.910  -5.372  26.829  0.00  0.00    +0.257 C 
ATOM     15  O   UNL     1       7.165  -5.362  28.021  0.00  0.00    -0.269 OA
ATOM     16  N   UNL     1       5.921  -6.107  26.237  0.00  0.00    -0.261 N 
ATOM     17  H   UNL     1       5.288  -6.674  26.777  0.00  0.00    +0.157 HD
ATOM     18  C   UNL     1       5.730  -5.913  24.920  0.00  0.00    +0.158 C 
ATOM     19  N   UNL     1       4.747  -6.407  24.268  0.00  0.00    -0.279 NA
ATOM     20  H   UNL     1       4.831  -6.078  23.298  0.00  0.00    +0.189 HD
ATOM     21  S   UNL     1       6.939  -4.897  24.234  0.00  0.00    -0.049 S 
ENDBRANCH   9  12
ENDBRANCH   4   7
BRANCH   2  22
ATOM     22  C   UNL     1       7.309   3.593  25.632  0.00  0.00    +0.419 C 
ATOM     23  F   UNL     1       7.741   4.362  26.670  0.00  0.00    -0.166 F 
ATOM     24  F   UNL     1       6.502   2.646  26.198  0.00  0.00    -0.166 F 
ATOM     25  F   UNL     1       6.462   4.380  24.922  0.00  0.00    -0.166 F 
ENDBRANCH   2  22
BRANCH   1  26
ATOM     26  S   UNL     1       9.465   5.384  23.968  0.00  0.00    +0.056 S 
ATOM     27  O   UNL     1       8.354   5.786  23.136  0.00  0.00    -0.153 OA
ATOM     28  O   UNL     1       9.699   5.970  25.268  0.00  0.00    -0.153 OA
BRANCH  26  29
ATOM     29  N   UNL     1      10.884   5.640  23.117  0.00  0.00    -0.204 NA
ATOM     30  H   UNL     1      10.866   6.566  22.683  0.00  0.00    +0.144 HD
ATOM     31  H   UNL     1      11.693   5.477  23.718  0.00  0.00    +0.144 HD
ENDBRANCH  26  29
ENDBRANCH   1  26
TORSDOF 5
ENDMDL
