MODEL 1
REMARK VINA RESULT:      -6.9      0.000      0.000
REMARK  Name = 
REMARK  5 active torsions:
REMARK  status: ('A' for Active; 'I' for Inactive)
REMARK    1  A    between atoms: N_1  and  S_2
REMARK    2  A    between atoms: S_2  and  C_5
REMARK    3  A    between atoms: C_8  and  C_11
REMARK    4  A    between atoms: N_13  and  C_14
REMARK    5  A    between atoms: C_14  and  C_15
REMARK                            x       y       z     vdW  Elec       q    Type
REMARK                         _______ _______ _______ _____ _____    ______ ____
ROOT
ATOM      1  C   UNL     1       6.669  -5.213  26.843  0.00  0.00    +0.105 A 
ATOM      2  C   UNL     1       5.861  -4.916  25.742  0.00  0.00    +0.029 A 
ATOM      3  C   UNL     1       6.406  -4.248  24.640  0.00  0.00    +0.015 A 
ATOM      4  C   UNL     1       7.758  -3.880  24.644  0.00  0.00    +0.037 A 
ATOM      5  C   UNL     1       8.566  -4.211  25.743  0.00  0.00    +0.015 A 
ATOM      6  C   UNL     1       8.025  -4.878  26.845  0.00  0.00    +0.029 A 
ENDROOT
BRANCH   4   7
ATOM      7  C   UNL     1       8.386  -3.160  23.502  0.00  0.00    +0.244 C 
ATOM      8  N   UNL     1       9.575  -2.512  23.759  0.00  0.00    -0.307 N 
ATOM      9  H   UNL     1      10.032  -2.617  24.654  0.00  0.00    +0.149 HD
ATOM     10  O   UNL     1       7.857  -3.196  22.397  0.00  0.00    -0.270 OA
BRANCH   8  11
ATOM     11  C   UNL     1      10.311  -1.826  22.718  0.00  0.00    +0.139 C 
BRANCH  11  12
ATOM     12  C   UNL     1      10.218  -0.329  22.872  0.00  0.00    -0.030 A 
ATOM     13  C   UNL     1       9.796   0.469  21.797  0.00  0.00    +0.005 A 
ATOM     14  C   UNL     1       9.724   1.856  21.927  0.00  0.00    +0.000 A 
ATOM     15  C   UNL     1      10.076   2.462  23.131  0.00  0.00    +0.000 A 
ATOM     16  C   UNL     1      10.510   1.684  24.201  0.00  0.00    +0.000 A 
ATOM     17  C   UNL     1      10.581   0.295  24.074  0.00  0.00    +0.005 A 
ENDBRANCH  11  12
ENDBRANCH   8  11
ENDBRANCH   4   7
BRANCH   1  18
ATOM     18  S   UNL     1       5.964  -6.018  28.253  0.00  0.00    +0.056 S 
ATOM     19  O   UNL     1       7.004  -6.707  28.977  0.00  0.00    -0.153 OA
ATOM     20  O   UNL     1       5.036  -5.113  28.888  0.00  0.00    -0.153 OA
BRANCH  18  21
ATOM     21  N   UNL     1       5.041  -7.230  27.544  0.00  0.00    -0.204 NA
ATOM     22  H   UNL     1       4.692  -6.917  26.638  0.00  0.00    +0.144 HD
ATOM     23  H   UNL     1       5.593  -8.089  27.491  0.00  0.00    +0.144 HD
ENDBRANCH  18  21
ENDBRANCH   1  18
TORSDOF 5
ENDMDL
MODEL 2
REMARK VINA RESULT:      -6.7      2.644      3.346
REMARK  Name = 
REMARK  5 active torsions:
REMARK  status: ('A' for Active; 'I' for Inactive)
REMARK    1  A    between atoms: N_1  and  S_2
REMARK    2  A    between atoms: S_2  and  C_5
REMARK    3  A    between atoms: C_8  and  C_11
REMARK    4  A    between atoms: N_13  and  C_14
REMARK    5  A    between atoms: C_14  and  C_15
REMARK                            x       y       z     vdW  Elec       q    Type
REMARK                         _______ _______ _______ _____ _____    ______ ____
ROOT
ATOM      1  C   UNL     1       4.543  -5.726  24.055  0.00  0.00    +0.105 A 
ATOM      2  C   UNL     1       5.242  -5.755  25.265  0.00  0.00    +0.029 A 
ATOM      3  C   UNL     1       6.556  -5.280  25.320  0.00  0.00    +0.015 A 
ATOM      4  C   UNL     1       7.167  -4.777  24.163  0.00  0.00    +0.037 A 
ATOM      5  C   UNL     1       6.444  -4.724  22.961  0.00  0.00    +0.015 A 
ATOM      6  C   UNL     1       5.131  -5.199  22.903  0.00  0.00    +0.029 A 
ENDROOT
BRANCH   4   7
ATOM      7  C   UNL     1       8.566  -4.267  24.164  0.00  0.00    +0.244 C 
ATOM      8  N   UNL     1       8.757  -2.988  23.688  0.00  0.00    -0.307 N 
ATOM      9  H   UNL     1       7.967  -2.405  23.452  0.00  0.00    +0.149 HD
ATOM     10  O   UNL     1       9.467  -4.970  24.606  0.00  0.00    -0.270 OA
BRANCH   8  11
ATOM     11  C   UNL     1      10.062  -2.360  23.691  0.00  0.00    +0.139 C 
BRANCH  11  12
ATOM     12  C   UNL     1      10.000  -0.958  23.139  0.00  0.00    -0.030 A 
ATOM     13  C   UNL     1      10.489   0.121  23.892  0.00  0.00    +0.005 A 
ATOM     14  C   UNL     1      10.419   1.423  23.395  0.00  0.00    +0.000 A 
ATOM     15  C   UNL     1       9.856   1.662  22.144  0.00  0.00    +0.000 A 
ATOM     16  C   UNL     1       9.354   0.603  21.392  0.00  0.00    +0.000 A 
ATOM     17  C   UNL     1       9.425  -0.702  21.887  0.00  0.00    +0.005 A 
ENDBRANCH  11  12
ENDBRANCH   8  11
ENDBRANCH   4   7
BRANCH   1  18
ATOM     18  S   UNL     1       2.896  -6.370  23.981  0.00  0.00    +0.056 S 
ATOM     19  O   UNL     1       2.216  -6.082  25.221  0.00  0.00    -0.153 OA
ATOM     20  O   UNL     1       2.333  -6.059  22.689  0.00  0.00    -0.153 OA
BRANCH  18  21
ATOM     21  N   UNL     1       3.164  -8.029  23.999  0.00  0.00    -0.204 NA
ATOM     22  H   UNL     1       3.715  -8.283  24.819  0.00  0.00    +0.144 HD
ATOM     23  H   UNL     1       2.268  -8.518  23.944  0.00  0.00    +0.144 HD
ENDBRANCH  18  21
ENDBRANCH   1  18
TORSDOF 5
ENDMDL
MODEL 3
REMARK VINA RESULT:      -6.5      1.732      2.412
REMARK  Name = 
REMARK  5 active torsions:
REMARK  status: ('A' for Active; 'I' for Inactive)
REMARK    1  A    between atoms: N_1  and  S_2
REMARK    2  A    between atoms: S_2  and  C_5
REMARK    3  A    between atoms: C_8  and  C_11
REMARK    4  A    between atoms: N_13  and  C_14
REMARK    5  A    between atoms: C_14  and  C_15
REMARK                            x       y       z     vdW  Elec       q    Type
REMARK                         _______ _______ _______ _____ _____    ______ ____
ROOT
ATOM      1  C   UNL     1       7.289  -4.389  25.677  0.00  0.00    +0.105 A 
ATOM      2  C   UNL     1       7.272  -4.713  24.316  0.00  0.00    +0.029 A 
ATOM      3  C   UNL     1       7.938  -3.893  23.399  0.00  0.00    +0.015 A 
ATOM      4  C   UNL     1       8.618  -2.752  23.846  0.00  0.00    +0.037 A 
ATOM      5  C   UNL     1       8.653  -2.455  25.217  0.00  0.00    +0.015 A 
ATOM      6  C   UNL     1       7.989  -3.272  26.136  0.00  0.00    +0.029 A 
ENDROOT
BRANCH   4   7
ATOM      7  C   UNL     1       9.335  -1.841  22.912  0.00  0.00    +0.244 C 
ATOM      8  N   UNL     1       8.609  -0.791  22.394  0.00  0.00    -0.307 N 
ATOM      9  H   UNL     1       7.671  -0.606  22.720  0.00  0.00    +0.149 HD
ATOM     10  O   UNL     1      10.522  -2.031  22.671  0.00  0.00    -0.270 OA
BRANCH   8  11
ATOM     11  C   UNL     1       9.210   0.195  21.520  0.00  0.00    +0.139 C 
BRANCH  11  12
ATOM     12  C   UNL     1       9.216   1.563  22.156  0.00  0.00    -0.030 A 
ATOM     13  C   UNL     1      10.322   1.988  22.909  0.00  0.00    +0.005 A 
ATOM     14  C   UNL     1      10.328   3.245  23.515  0.00  0.00    +0.000 A 
ATOM     15  C   UNL     1       9.228   4.089  23.379  0.00  0.00    +0.000 A 
ATOM     16  C   UNL     1       8.119   3.674  22.648  0.00  0.00    +0.000 A 
ATOM     17  C   UNL     1       8.111   2.417  22.039  0.00  0.00    +0.005 A 
ENDBRANCH  11  12
ENDBRANCH   8  11
ENDBRANCH   4   7
BRANCH   1  18
ATOM     18  S   UNL     1       6.407  -5.404  26.827  0.00  0.00    +0.056 S 
ATOM     19  O   UNL     1       5.692  -4.562  27.755  0.00  0.00    -0.153 OA
ATOM     20  O   UNL     1       5.776  -6.484  26.106  0.00  0.00    -0.153 OA
BRANCH  18  21
ATOM     21  N   UNL     1       7.653  -6.090  27.722  0.00  0.00    -0.204 NA
ATOM     22  H   UNL     1       7.379  -6.159  28.703  0.00  0.00    +0.144 HD
ATOM     23  H   UNL     1       7.914  -6.987  27.309  0.00  0.00    +0.144 HD
ENDBRANCH  18  21
ENDBRANCH   1  18
TORSDOF 5
ENDMDL
MODEL 4
REMARK VINA RESULT:      -6.5      3.765      7.799
REMARK  Name = 
REMARK  5 active torsions:
REMARK  status: ('A' for Active; 'I' for Inactive)
REMARK    1  A    between atoms: N_1  and  S_2
REMARK    2  A    between atoms: S_2  and  C_5
REMARK    3  A    between atoms: C_8  and  C_11
REMARK    4  A    between atoms: N_13  and  C_14
REMARK    5  A    between atoms: C_14  and  C_15
REMARK                            x       y       z     vdW  Elec       q    Type
REMARK                         _______ _______ _______ _____ _____    ______ ____
ROOT
ATOM      1  C   UNL     1       9.697   0.671  23.701  0.00  0.00    +0.105 A 
ATOM      2  C   UNL     1      10.112  -0.363  22.856  0.00  0.00    +0.029 A 
ATOM      3  C   UNL     1       9.960  -1.693  23.260  0.00  0.00    +0.015 A 
ATOM      4  C   UNL     1       9.392  -1.986  24.507  0.00  0.00    +0.037 A 
ATOM      5  C   UNL     1       8.951  -0.940  25.333  0.00  0.00    +0.015 A 
ATOM      6  C   UNL     1       9.102   0.390  24.933  0.00  0.00    +0.029 A 
ENDROOT
BRANCH   4   7
ATOM      7  C   UNL     1       9.215  -3.383  24.989  0.00  0.00    +0.244 C 
ATOM      8  N   UNL     1       8.159  -3.613  25.844  0.00  0.00    -0.307 N 
ATOM      9  H   UNL     1       7.491  -2.882  26.040  0.00  0.00    +0.149 HD
ATOM     10  O   UNL     1       9.973  -4.262  24.593  0.00  0.00    -0.270 OA
BRANCH   8  11
ATOM     11  C   UNL     1       7.849  -4.940  26.335  0.00  0.00    +0.139 C 
BRANCH  11  12
ATOM     12  C   UNL     1       6.637  -5.513  25.646  0.00  0.00    -0.030 A 
ATOM     13  C   UNL     1       6.457  -5.335  24.265  0.00  0.00    +0.005 A 
ATOM     14  C   UNL     1       5.329  -5.847  23.623  0.00  0.00    +0.000 A 
ATOM     15  C   UNL     1       4.365  -6.538  24.354  0.00  0.00    +0.000 A 
ATOM     16  C   UNL     1       4.523  -6.710  25.727  0.00  0.00    +0.000 A 
ATOM     17  C   UNL     1       5.653  -6.199  26.371  0.00  0.00    +0.005 A 
ENDBRANCH  11  12
ENDBRANCH   8  11
ENDBRANCH   4   7
BRANCH   1  18
ATOM     18  S   UNL     1       9.933   2.353  23.205  0.00  0.00    +0.056 S 
ATOM     19  O   UNL     1       8.706   3.085  23.407  0.00  0.00    -0.153 OA
ATOM     20  O   UNL     1      11.208   2.810  23.705  0.00  0.00    -0.153 OA
BRANCH  18  21
ATOM     21  N   UNL     1      10.094   2.212  21.539  0.00  0.00    -0.204 NA
ATOM     22  H   UNL     1      11.051   2.432  21.262  0.00  0.00    +0.144 HD
ATOM     23  H   UNL     1       9.791   1.281  21.246  0.00  0.00    +0.144 HD
ENDBRANCH  18  21
ENDBRANCH   1  18
TORSDOF 5
ENDMDL
MODEL 5
REMARK VINA RESULT:      -6.4      4.355      7.888
REMARK  Name = 
REMARK  5 active torsions:
REMARK  status: ('A' for Active; 'I' for Inactive)
REMARK    1  A    between atoms: N_1  and  S_2
REMARK    2  A    between atoms: S_2  and  C_5
REMARK    3  A    between atoms: C_8  and  C_11
REMARK    4  A    between atoms: N_13  and  C_14
REMARK    5  A    between atoms: C_14  and  C_15
REMARK                            x       y       z     vdW  Elec       q    Type
REMARK                         _______ _______ _______ _____ _____    ______ ____
ROOT
ATOM      1  C   UNL     1       9.503   2.471  23.761  0.00  0.00    +0.105 A 
ATOM      2  C   UNL     1       9.964   1.900  22.571  0.00  0.00    +0.029 A 
ATOM      3  C   UNL     1      10.056   0.509  22.458  0.00  0.00    +0.015 A 
ATOM      4  C   UNL     1       9.686  -0.306  23.535  0.00  0.00    +0.037 A 
ATOM      5  C   UNL     1       9.196   0.278  24.714  0.00  0.00    +0.015 A 
ATOM      6  C   UNL     1       9.103   1.667  24.830  0.00  0.00    +0.029 A 
ENDROOT
BRANCH   4   7
ATOM      7  C   UNL     1       9.773  -1.791  23.472  0.00  0.00    +0.244 C 
ATOM      8  N   UNL     1       8.897  -2.496  24.268  0.00  0.00    -0.307 N 
ATOM      9  H   UNL     1       8.173  -2.016  24.783  0.00  0.00    +0.149 HD
ATOM     10  O   UNL     1      10.574  -2.320  22.709  0.00  0.00    -0.270 OA
BRANCH   8  11
ATOM     11  C   UNL     1       8.845  -3.943  24.251  0.00  0.00    +0.139 C 
BRANCH  11  12
ATOM     12  C   UNL     1       7.586  -4.441  23.589  0.00  0.00    -0.030 A 
ATOM     13  C   UNL     1       6.370  -3.768  23.784  0.00  0.00    +0.005 A 
ATOM     14  C   UNL     1       5.197  -4.233  23.188  0.00  0.00    +0.000 A 
ATOM     15  C   UNL     1       5.224  -5.378  22.396  0.00  0.00    +0.000 A 
ATOM     16  C   UNL     1       6.420  -6.064  22.205  0.00  0.00    +0.000 A 
ATOM     17  C   UNL     1       7.597  -5.600  22.799  0.00  0.00    +0.005 A 
ENDBRANCH  11  12
ENDBRANCH   8  11
ENDBRANCH   4   7
BRANCH   1  18
ATOM     18  S   UNL     1       9.432   4.233  23.915  0.00  0.00    +0.056 S 
ATOM     19  O   UNL     1       8.715   4.577  25.119  0.00  0.00    -0.153 OA
ATOM     20  O   UNL     1      10.728   4.780  23.593  0.00  0.00    -0.153 OA
BRANCH  18  21
ATOM     21  N   UNL     1       8.406   4.657  22.653  0.00  0.00    -0.204 NA
ATOM     22  H   UNL     1       8.565   5.629  22.387  0.00  0.00    +0.144 HD
ATOM     23  H   UNL     1       8.528   3.999  21.881  0.00  0.00    +0.144 HD
ENDBRANCH  18  21
ENDBRANCH   1  18
TORSDOF 5
ENDMDL
MODEL 6
REMARK VINA RESULT:      -6.3      2.771      3.495
REMARK  Name = 
REMARK  5 active torsions:
REMARK  status: ('A' for Active; 'I' for Inactive)
REMARK    1  A    between atoms: N_1  and  S_2
REMARK    2  A    between atoms: S_2  and  C_5
REMARK    3  A    between atoms: C_8  and  C_11
REMARK    4  A    between atoms: N_13  and  C_14
REMARK    5  A    between atoms: C_14  and  C_15
REMARK                            x       y       z     vdW  Elec       q    Type
REMARK                         _______ _______ _______ _____ _____    ______ ____
ROOT
ATOM      1  C   UNL     1       6.489  -4.299  23.287  0.00  0.00    +0.105 A 
ATOM      2  C   UNL     1       6.351  -3.126  22.538  0.00  0.00    +0.029 A 
ATOM      3  C   UNL     1       7.405  -2.209  22.483  0.00  0.00    +0.015 A 
ATOM      4  C   UNL     1       8.595  -2.468  23.176  0.00  0.00    +0.037 A 
ATOM      5  C   UNL     1       8.733  -3.664  23.899  0.00  0.00    +0.015 A 
ATOM      6  C   UNL     1       7.681  -4.582  23.957  0.00  0.00    +0.029 A 
ENDROOT
BRANCH   4   7
ATOM      7  C   UNL     1       9.745  -1.522  23.158  0.00  0.00    +0.244 C 
ATOM      8  N   UNL     1       9.705  -0.485  24.064  0.00  0.00    -0.307 N 
ATOM      9  H   UNL     1       8.978  -0.443  24.763  0.00  0.00    +0.149 HD
ATOM     10  O   UNL     1      10.675  -1.714  22.384  0.00  0.00    -0.270 OA
BRANCH   8  11
ATOM     11  C   UNL     1      10.791   0.467  24.182  0.00  0.00    +0.139 C 
BRANCH  11  12
ATOM     12  C   UNL     1      10.283   1.886  24.159  0.00  0.00    -0.030 A 
ATOM     13  C   UNL     1       9.048   2.206  24.744  0.00  0.00    +0.005 A 
ATOM     14  C   UNL     1       8.563   3.514  24.711  0.00  0.00    +0.000 A 
ATOM     15  C   UNL     1       9.305   4.517  24.090  0.00  0.00    +0.000 A 
ATOM     16  C   UNL     1      10.525   4.211  23.493  0.00  0.00    +0.000 A 
ATOM     17  C   UNL     1      11.013   2.902  23.526  0.00  0.00    +0.005 A 
ENDBRANCH  11  12
ENDBRANCH   8  11
ENDBRANCH   4   7
BRANCH   1  18
ATOM     18  S   UNL     1       5.136  -5.435  23.391  0.00  0.00    +0.056 S 
ATOM     19  O   UNL     1       5.094  -6.005  24.716  0.00  0.00    -0.153 OA
ATOM     20  O   UNL     1       3.982  -4.841  22.758  0.00  0.00    -0.153 OA
BRANCH  18  21
ATOM     21  N   UNL     1       5.643  -6.683  22.388  0.00  0.00    -0.204 NA
ATOM     22  H   UNL     1       6.151  -6.303  21.589  0.00  0.00    +0.144 HD
ATOM     23  H   UNL     1       6.186  -7.356  22.932  0.00  0.00    +0.144 HD
ENDBRANCH  18  21
ENDBRANCH   1  18
TORSDOF 5
ENDMDL
MODEL 7
REMARK VINA RESULT:      -6.3      4.163      7.756
REMARK  Name = 
REMARK  5 active torsions:
REMARK  status: ('A' for Active; 'I' for Inactive)
REMARK    1  A    between atoms: N_1  and  S_2
REMARK    2  A    between atoms: S_2  and  C_5
REMARK    3  A    between atoms: C_8  and  C_11
REMARK    4  A    between atoms: N_13  and  C_14
REMARK    5  A    between atoms: C_14  and  C_15
REMARK                            x       y       z     vdW  Elec       q    Type
REMARK                         _______ _______ _______ _____ _____    ______ ____
ROOT
ATOM      1  C   UNL     1       9.112   2.124  23.931  0.00  0.00    +0.105 A 
ATOM      2  C   UNL     1       8.008   1.296  23.707  0.00  0.00    +0.029 A 
ATOM      3  C   UNL     1       8.174  -0.093  23.689  0.00  0.00    +0.015 A 
ATOM      4  C   UNL     1       9.443  -0.649  23.894  0.00  0.00    +0.037 A 
ATOM      5  C   UNL     1      10.538   0.192  24.148  0.00  0.00    +0.015 A 
ATOM      6  C   UNL     1      10.376   1.580  24.166  0.00  0.00    +0.029 A 
ENDROOT
BRANCH   4   7
ATOM      7  C   UNL     1       9.677  -2.119  23.876  0.00  0.00    +0.244 C 
ATOM      8  N   UNL     1       8.881  -2.882  24.703  0.00  0.00    -0.307 N 
ATOM      9  H   UNL     1       8.118  -2.459  25.211  0.00  0.00    +0.149 HD
ATOM     10  O   UNL     1      10.520  -2.590  23.121  0.00  0.00    -0.270 OA
BRANCH   8  11
ATOM     11  C   UNL     1       8.974  -4.327  24.731  0.00  0.00    +0.139 C 
BRANCH  11  12
ATOM     12  C   UNL     1       7.703  -4.970  24.237  0.00  0.00    -0.030 A 
ATOM     13  C   UNL     1       7.581  -5.354  22.893  0.00  0.00    +0.005 A 
ATOM     14  C   UNL     1       6.401  -5.934  22.424  0.00  0.00    +0.000 A 
ATOM     15  C   UNL     1       5.329  -6.132  23.291  0.00  0.00    +0.000 A 
ATOM     16  C   UNL     1       5.431  -5.742  24.624  0.00  0.00    +0.000 A 
ATOM     17  C   UNL     1       6.612  -5.163  25.096  0.00  0.00    +0.005 A 
ENDBRANCH  11  12
ENDBRANCH   8  11
ENDBRANCH   4   7
BRANCH   1  18
ATOM     18  S   UNL     1       8.905   3.881  23.908  0.00  0.00    +0.056 S 
ATOM     19  O   UNL     1       8.023   4.242  22.825  0.00  0.00    -0.153 OA
ATOM     20  O   UNL     1       8.712   4.344  25.262  0.00  0.00    -0.153 OA
BRANCH  18  21
ATOM     21  N   UNL     1      10.428   4.411  23.433  0.00  0.00    -0.204 NA
ATOM     22  H   UNL     1      10.376   4.831  22.505  0.00  0.00    +0.144 HD
ATOM     23  H   UNL     1      10.805   5.040  24.144  0.00  0.00    +0.144 HD
ENDBRANCH  18  21
ENDBRANCH   1  18
TORSDOF 5
ENDMDL
MODEL 8
REMARK VINA RESULT:      -6.2      2.547      2.797
REMARK  Name = 
REMARK  5 active torsions:
REMARK  status: ('A' for Active; 'I' for Inactive)
REMARK    1  A    between atoms: N_1  and  S_2
REMARK    2  A    between atoms: S_2  and  C_5
REMARK    3  A    between atoms: C_8  and  C_11
REMARK    4  A    between atoms: N_13  and  C_14
REMARK    5  A    between atoms: C_14  and  C_15
REMARK                            x       y       z     vdW  Elec       q    Type
REMARK                         _______ _______ _______ _____ _____    ______ ____
ROOT
ATOM      1  C   UNL     1       5.515  -5.209  23.826  0.00  0.00    +0.105 A 
ATOM      2  C   UNL     1       5.687  -4.575  22.591  0.00  0.00    +0.029 A 
ATOM      3  C   UNL     1       6.819  -3.785  22.368  0.00  0.00    +0.015 A 
ATOM      4  C   UNL     1       7.775  -3.631  23.380  0.00  0.00    +0.037 A 
ATOM      5  C   UNL     1       7.607  -4.297  24.604  0.00  0.00    +0.015 A 
ATOM      6  C   UNL     1       6.477  -5.087  24.831  0.00  0.00    +0.029 A 
ENDROOT
BRANCH   4   7
ATOM      7  C   UNL     1       8.994  -2.794  23.199  0.00  0.00    +0.244 C 
ATOM      8  N   UNL     1       8.890  -1.733  22.325  0.00  0.00    -0.307 N 
ATOM      9  H   UNL     1       7.998  -1.491  21.917  0.00  0.00    +0.149 HD
ATOM     10  O   UNL     1      10.006  -3.050  23.840  0.00  0.00    -0.270 OA
BRANCH   8  11
ATOM     11  C   UNL     1       9.987  -0.813  22.108  0.00  0.00    +0.139 C 
BRANCH  11  12
ATOM     12  C   UNL     1       9.764   0.490  22.832  0.00  0.00    -0.030 A 
ATOM     13  C   UNL     1      10.247   1.692  22.291  0.00  0.00    +0.005 A 
ATOM     14  C   UNL     1      10.060   2.900  22.963  0.00  0.00    +0.000 A 
ATOM     15  C   UNL     1       9.393   2.921  24.186  0.00  0.00    +0.000 A 
ATOM     16  C   UNL     1       8.922   1.734  24.742  0.00  0.00    +0.000 A 
ATOM     17  C   UNL     1       9.107   0.523  24.070  0.00  0.00    +0.005 A 
ENDBRANCH  11  12
ENDBRANCH   8  11
ENDBRANCH   4   7
BRANCH   1  18
ATOM     18  S   UNL     1       4.059  -6.171  24.119  0.00  0.00    +0.056 S 
ATOM     19  O   UNL     1       4.440  -7.525  24.440  0.00  0.00    -0.153 OA
ATOM     20  O   UNL     1       3.149  -5.401  24.933  0.00  0.00    -0.153 OA
BRANCH  18  21
ATOM     21  N   UNL     1       3.376  -6.255  22.587  0.00  0.00    -0.204 NA
ATOM     22  H   UNL     1       2.726  -7.040  22.538  0.00  0.00    +0.144 HD
ATOM     23  H   UNL     1       2.946  -5.357  22.357  0.00  0.00    +0.144 HD
ENDBRANCH  18  21
ENDBRANCH   1  18
TORSDOF 5
ENDMDL
MODEL 9
REMARK VINA RESULT:      -6.1      3.953      7.840
REMARK  Name = 
REMARK  5 active torsions:
REMARK  status: ('A' for Active; 'I' for Inactive)
REMARK    1  A    between atoms: N_1  and  S_2
REMARK    2  A    between atoms: S_2  and  C_5
REMARK    3  A    between atoms: C_8  and  C_11
REMARK    4  A    between atoms: N_13  and  C_14
REMARK    5  A    between atoms: C_14  and  C_15
REMARK                            x       y       z     vdW  Elec       q    Type
REMARK                         _______ _______ _______ _____ _____    ______ ____
ROOT
ATOM      1  C   UNL     1       9.367   1.448  23.759  0.00  0.00    +0.105 A 
ATOM      2  C   UNL     1       8.612   0.824  22.762  0.00  0.00    +0.029 A 
ATOM      3  C   UNL     1       8.495  -0.570  22.749  0.00  0.00    +0.015 A 
ATOM      4  C   UNL     1       9.133  -1.334  23.735  0.00  0.00    +0.037 A 
ATOM      5  C   UNL     1       9.863  -0.694  24.749  0.00  0.00    +0.015 A 
ATOM      6  C   UNL     1       9.982   0.698  24.764  0.00  0.00    +0.029 A 
ENDROOT
BRANCH   4   7
ATOM      7  C   UNL     1       9.048  -2.821  23.763  0.00  0.00    +0.244 C 
ATOM      8  N   UNL     1       7.870  -3.381  23.320  0.00  0.00    -0.307 N 
ATOM      9  H   UNL     1       7.152  -2.804  22.907  0.00  0.00    +0.149 HD
ATOM     10  O   UNL     1      10.015  -3.476  24.135  0.00  0.00    -0.270 OA
BRANCH   8  11
ATOM     11  C   UNL     1       7.688  -4.816  23.246  0.00  0.00    +0.139 C 
BRANCH  11  12
ATOM     12  C   UNL     1       6.734  -5.306  24.306  0.00  0.00    -0.030 A 
ATOM     13  C   UNL     1       7.053  -5.163  25.665  0.00  0.00    +0.005 A 
ATOM     14  C   UNL     1       6.184  -5.629  26.652  0.00  0.00    +0.000 A 
ATOM     15  C   UNL     1       4.988  -6.247  26.292  0.00  0.00    +0.000 A 
ATOM     16  C   UNL     1       4.666  -6.409  24.947  0.00  0.00    +0.000 A 
ATOM     17  C   UNL     1       5.534  -5.941  23.958  0.00  0.00    +0.005 A 
ENDBRANCH  11  12
ENDBRANCH   8  11
ENDBRANCH   4   7
BRANCH   1  18
ATOM     18  S   UNL     1       9.550   3.208  23.744  0.00  0.00    +0.056 S 
ATOM     19  O   UNL     1       8.869   3.767  24.887  0.00  0.00    -0.153 OA
ATOM     20  O   UNL     1      10.918   3.531  23.414  0.00  0.00    -0.153 OA
BRANCH  18  21
ATOM     21  N   UNL     1       8.620   3.649  22.416  0.00  0.00    -0.204 NA
ATOM     22  H   UNL     1       9.210   4.083  21.706  0.00  0.00    +0.144 HD
ATOM     23  H   UNL     1       8.107   2.834  22.076  0.00  0.00    +0.144 HD
ENDBRANCH  18  21
ENDBRANCH   1  18
TORSDOF 5
ENDMDL
