MODEL 1
REMARK VINA RESULT:      -5.1      0.000      0.000
REMARK  Name = 
REMARK  4 active torsions:
REMARK  status: ('A' for Active; 'I' for Inactive)
REMARK    1  A    between atoms: N_1  and  CA_2
REMARK    2  A    between atoms: CA_2  and  C_10
REMARK    3  A    between atoms: CB_3  and  CG_4
REMARK    4  A    between atoms: C_10  and  O_11
REMARK                            x       y       z     vdW  Elec       q    Type
REMARK                         _______ _______ _______ _____ _____    ______ ____
ROOT
ATOM      1  CA  PHE A   1       9.944   1.300  22.401  0.00  0.00    +0.110 C 
ATOM      2  CB  PHE A   1      10.500   1.927  23.450  0.00  0.00    +0.037 C 
ENDROOT
BRANCH   2   3
ATOM      3  CG  PHE A   1      10.526   3.380  23.631  0.00  0.00    -0.023 A 
ATOM      4  CD2 PHE A   1       9.391   4.050  24.100  0.00  0.00    +0.008 A 
ATOM      5  CE2 PHE A   1       9.411   5.437  24.257  0.00  0.00    +0.001 A 
ATOM      6  CZ  PHE A   1      10.564   6.158  23.949  0.00  0.00    +0.000 A 
ATOM      7  CE1 PHE A   1      11.699   5.494  23.486  0.00  0.00    +0.001 A 
ATOM      8  CD1 PHE A   1      11.682   4.106  23.329  0.00  0.00    +0.008 A 
ENDBRANCH   2   3
BRANCH   1   9
ATOM      9  N   PHE A   1       9.276   1.887  21.319  0.00  0.00    -0.352 N 
ATOM     10  H1  PHE A   1       9.039   2.856  21.547  0.00  0.00    +0.143 HD
ATOM     11  H2  PHE A   1       8.402   1.387  21.134  0.00  0.00    +0.143 HD
ENDBRANCH   1   9
BRANCH   1  12
ATOM     12  C   PHE A   1      10.011  -0.209  22.425  0.00  0.00    +0.351 C 
ATOM     13  OXT PHE A   1      10.257  -0.902  23.394  0.00  0.00    -0.244 OA
BRANCH  12  14
ATOM     14  O   PHE A   1       9.763  -0.681  21.182  0.00  0.00    -0.476 OA
ATOM     15  H   PHE A   1       8.934  -1.210  21.219  0.00  0.00    +0.295 HD
ENDBRANCH  12  14
ENDBRANCH   1  12
TORSDOF 4
ENDMDL
MODEL 2
REMARK VINA RESULT:      -5.1      4.078      5.464
REMARK  Name = 
REMARK  4 active torsions:
REMARK  status: ('A' for Active; 'I' for Inactive)
REMARK    1  A    between atoms: N_1  and  CA_2
REMARK    2  A    between atoms: CA_2  and  C_10
REMARK    3  A    between atoms: CB_3  and  CG_4
REMARK    4  A    between atoms: C_10  and  O_11
REMARK                            x       y       z     vdW  Elec       q    Type
REMARK                         _______ _______ _______ _____ _____    ______ ____
ROOT
ATOM      1  CA  PHE A   1       8.871  -3.455  24.514  0.00  0.00    +0.110 C 
ATOM      2  CB  PHE A   1       9.949  -2.837  24.003  0.00  0.00    +0.037 C 
ENDROOT
BRANCH   2   3
ATOM      3  CG  PHE A   1       9.922  -1.531  23.342  0.00  0.00    -0.023 A 
ATOM      4  CD2 PHE A   1       9.505  -1.425  22.011  0.00  0.00    +0.008 A 
ATOM      5  CE2 PHE A   1       9.494  -0.182  21.377  0.00  0.00    +0.001 A 
ATOM      6  CZ  PHE A   1       9.898   0.959  22.070  0.00  0.00    +0.000 A 
ATOM      7  CE1 PHE A   1      10.310   0.859  23.398  0.00  0.00    +0.001 A 
ATOM      8  CD1 PHE A   1      10.320  -0.383  24.035  0.00  0.00    +0.008 A 
ENDBRANCH   2   3
BRANCH   1   9
ATOM      9  N   PHE A   1       7.555  -2.979  24.543  0.00  0.00    -0.352 N 
ATOM     10  H1  PHE A   1       7.409  -2.423  25.390  0.00  0.00    +0.143 HD
ATOM     11  H2  PHE A   1       6.898  -3.764  24.567  0.00  0.00    +0.143 HD
ENDBRANCH   1   9
BRANCH   1  12
ATOM     12  C   PHE A   1       9.130  -4.790  25.173  0.00  0.00    +0.351 C 
ATOM     13  OXT PHE A   1       8.334  -5.434  25.830  0.00  0.00    -0.244 OA
BRANCH  12  14
ATOM     14  O   PHE A   1      10.406  -5.163  24.925  0.00  0.00    -0.476 OA
ATOM     15  H   PHE A   1      10.520  -6.085  25.249  0.00  0.00    +0.295 HD
ENDBRANCH  12  14
ENDBRANCH   1  12
TORSDOF 4
ENDMDL
MODEL 3
REMARK VINA RESULT:      -5.1      4.069      5.464
REMARK  Name = 
REMARK  4 active torsions:
REMARK  status: ('A' for Active; 'I' for Inactive)
REMARK    1  A    between atoms: N_1  and  CA_2
REMARK    2  A    between atoms: CA_2  and  C_10
REMARK    3  A    between atoms: CB_3  and  CG_4
REMARK    4  A    between atoms: C_10  and  O_11
REMARK                            x       y       z     vdW  Elec       q    Type
REMARK                         _______ _______ _______ _____ _____    ______ ____
ROOT
ATOM      1  CA  PHE A   1       8.871  -3.411  24.569  0.00  0.00    +0.110 C 
ATOM      2  CB  PHE A   1       9.942  -2.828  24.005  0.00  0.00    +0.037 C 
ENDROOT
BRANCH   2   3
ATOM      3  CG  PHE A   1       9.924  -1.522  23.343  0.00  0.00    -0.023 A 
ATOM      4  CD2 PHE A   1      10.305  -0.373  24.044  0.00  0.00    +0.008 A 
ATOM      5  CE2 PHE A   1      10.273   0.874  23.418  0.00  0.00    +0.001 A 
ATOM      6  CZ  PHE A   1       9.862   0.977  22.089  0.00  0.00    +0.000 A 
ATOM      7  CE1 PHE A   1       9.485  -0.166  21.385  0.00  0.00    +0.001 A 
ATOM      8  CD1 PHE A   1       9.518  -1.415  22.009  0.00  0.00    +0.008 A 
ENDBRANCH   2   3
BRANCH   1   9
ATOM      9  N   PHE A   1       7.574  -2.893  24.659  0.00  0.00    -0.352 N 
ATOM     10  H1  PHE A   1       6.981  -3.324  23.943  0.00  0.00    +0.143 HD
ATOM     11  H2  PHE A   1       7.586  -1.884  24.489  0.00  0.00    +0.143 HD
ENDBRANCH   1   9
BRANCH   1  12
ATOM     12  C   PHE A   1       9.119  -4.753  25.217  0.00  0.00    +0.351 C 
ATOM     13  OXT PHE A   1       8.319  -5.393  25.872  0.00  0.00    -0.244 OA
BRANCH  12  14
ATOM     14  O   PHE A   1      10.391  -5.137  24.963  0.00  0.00    -0.476 OA
ATOM     15  H   PHE A   1      10.409  -5.552  24.072  0.00  0.00    +0.295 HD
ENDBRANCH  12  14
ENDBRANCH   1  12
TORSDOF 4
ENDMDL
MODEL 4
REMARK VINA RESULT:      -5.1      3.464      4.893
REMARK  Name = 
REMARK  4 active torsions:
REMARK  status: ('A' for Active; 'I' for Inactive)
REMARK    1  A    between atoms: N_1  and  CA_2
REMARK    2  A    between atoms: CA_2  and  C_10
REMARK    3  A    between atoms: CB_3  and  CG_4
REMARK    4  A    between atoms: C_10  and  O_11
REMARK                            x       y       z     vdW  Elec       q    Type
REMARK                         _______ _______ _______ _____ _____    ______ ____
ROOT
ATOM      1  CA  PHE A   1      11.495   4.728  23.329  0.00  0.00    +0.110 C 
ATOM      2  CB  PHE A   1      11.475   3.386  23.373  0.00  0.00    +0.037 C 
ENDROOT
BRANCH   2   3
ATOM      3  CG  PHE A   1      10.266   2.570  23.246  0.00  0.00    -0.023 A 
ATOM      4  CD2 PHE A   1       9.379   2.453  24.322  0.00  0.00    +0.008 A 
ATOM      5  CE2 PHE A   1       8.235   1.662  24.206  0.00  0.00    +0.001 A 
ATOM      6  CZ  PHE A   1       7.972   0.987  23.014  0.00  0.00    +0.000 A 
ATOM      7  CE1 PHE A   1       8.850   1.103  21.938  0.00  0.00    +0.001 A 
ATOM      8  CD1 PHE A   1       9.994   1.895  22.051  0.00  0.00    +0.008 A 
ENDBRANCH   2   3
BRANCH   1   9
ATOM      9  N   PHE A   1      10.408   5.587  23.131  0.00  0.00    -0.352 N 
ATOM     10  H1  PHE A   1      10.319   6.220  23.931  0.00  0.00    +0.143 HD
ATOM     11  H2  PHE A   1       9.541   5.046  23.062  0.00  0.00    +0.143 HD
ENDBRANCH   1   9
BRANCH   1  12
ATOM     12  C   PHE A   1      12.857   5.369  23.460  0.00  0.00    +0.351 C 
ATOM     13  OXT PHE A   1      13.817   5.171  22.740  0.00  0.00    -0.244 OA
BRANCH  12  14
ATOM     14  O   PHE A   1      12.850   6.205  24.524  0.00  0.00    -0.476 OA
ATOM     15  H   PHE A   1      13.624   6.807  24.441  0.00  0.00    +0.295 HD
ENDBRANCH  12  14
ENDBRANCH   1  12
TORSDOF 4
ENDMDL
MODEL 5
REMARK VINA RESULT:      -4.9      3.434      4.690
REMARK  Name = 
REMARK  4 active torsions:
REMARK  status: ('A' for Active; 'I' for Inactive)
REMARK    1  A    between atoms: N_1  and  CA_2
REMARK    2  A    between atoms: CA_2  and  C_10
REMARK    3  A    between atoms: CB_3  and  CG_4
REMARK    4  A    between atoms: C_10  and  O_11
REMARK                            x       y       z     vdW  Elec       q    Type
REMARK                         _______ _______ _______ _____ _____    ______ ____
ROOT
ATOM      1  CA  PHE A   1       7.273  -2.250  22.455  0.00  0.00    +0.110 C 
ATOM      2  CB  PHE A   1       8.589  -2.024  22.311  0.00  0.00    +0.037 C 
ENDROOT
BRANCH   2   3
ATOM      3  CG  PHE A   1       9.254  -0.761  22.638  0.00  0.00    -0.023 A 
ATOM      4  CD2 PHE A   1       9.815  -0.569  23.905  0.00  0.00    +0.008 A 
ATOM      5  CE2 PHE A   1      10.435   0.641  24.221  0.00  0.00    +0.001 A 
ATOM      6  CZ  PHE A   1      10.499   1.662  23.272  0.00  0.00    +0.000 A 
ATOM      7  CE1 PHE A   1       9.945   1.473  22.007  0.00  0.00    +0.001 A 
ATOM      8  CD1 PHE A   1       9.326   0.263  21.688  0.00  0.00    +0.008 A 
ENDBRANCH   2   3
BRANCH   1   9
ATOM      9  N   PHE A   1       6.310  -1.366  22.955  0.00  0.00    -0.352 N 
ATOM     10  H1  PHE A   1       5.793  -0.945  22.177  0.00  0.00    +0.143 HD
ATOM     11  H2  PHE A   1       6.763  -0.610  23.475  0.00  0.00    +0.143 HD
ENDBRANCH   1   9
BRANCH   1  12
ATOM     12  C   PHE A   1       6.799  -3.635  22.078  0.00  0.00    +0.351 C 
ATOM     13  OXT PHE A   1       7.358  -4.682  22.339  0.00  0.00    -0.244 OA
BRANCH  12  14
ATOM     14  O   PHE A   1       5.642  -3.530  21.384  0.00  0.00    -0.476 OA
ATOM     15  H   PHE A   1       5.435  -4.415  21.006  0.00  0.00    +0.295 HD
ENDBRANCH  12  14
ENDBRANCH   1  12
TORSDOF 4
ENDMDL
MODEL 6
REMARK VINA RESULT:      -4.7      3.127      5.104
REMARK  Name = 
REMARK  4 active torsions:
REMARK  status: ('A' for Active; 'I' for Inactive)
REMARK    1  A    between atoms: N_1  and  CA_2
REMARK    2  A    between atoms: CA_2  and  C_10
REMARK    3  A    between atoms: CB_3  and  CG_4
REMARK    4  A    between atoms: C_10  and  O_11
REMARK                            x       y       z     vdW  Elec       q    Type
REMARK                         _______ _______ _______ _____ _____    ______ ____
ROOT
ATOM      1  CA  PHE A   1       9.702   4.051  23.779  0.00  0.00    +0.110 C 
ATOM      2  CB  PHE A   1      10.621   3.149  23.398  0.00  0.00    +0.037 C 
ENDROOT
BRANCH   2   3
ATOM      3  CG  PHE A   1      10.346   1.730  23.167  0.00  0.00    -0.023 A 
ATOM      4  CD2 PHE A   1      10.513   0.803  24.201  0.00  0.00    +0.008 A 
ATOM      5  CE2 PHE A   1      10.265  -0.552  23.976  0.00  0.00    +0.001 A 
ATOM      6  CZ  PHE A   1       9.848  -0.986  22.718  0.00  0.00    +0.000 A 
ATOM      7  CE1 PHE A   1       9.675  -0.065  21.685  0.00  0.00    +0.001 A 
ATOM      8  CD1 PHE A   1       9.921   1.291  21.908  0.00  0.00    +0.008 A 
ENDBRANCH   2   3
BRANCH   1   9
ATOM      9  N   PHE A   1       8.337   3.831  23.996  0.00  0.00    -0.352 N 
ATOM     10  H1  PHE A   1       7.867   3.674  23.100  0.00  0.00    +0.143 HD
ATOM     11  H2  PHE A   1       7.913   4.655  24.431  0.00  0.00    +0.143 HD
ENDBRANCH   1   9
BRANCH   1  12
ATOM     12  C   PHE A   1      10.200   5.469  23.939  0.00  0.00    +0.351 C 
ATOM     13  OXT PHE A   1       9.888   6.245  24.822  0.00  0.00    -0.244 OA
BRANCH  12  14
ATOM     14  O   PHE A   1      11.052   5.753  22.928  0.00  0.00    -0.476 OA
ATOM     15  H   PHE A   1      11.223   4.921  22.432  0.00  0.00    +0.295 HD
ENDBRANCH  12  14
ENDBRANCH   1  12
TORSDOF 4
ENDMDL
MODEL 7
REMARK VINA RESULT:      -4.7      1.679      2.410
REMARK  Name = 
REMARK  4 active torsions:
REMARK  status: ('A' for Active; 'I' for Inactive)
REMARK    1  A    between atoms: N_1  and  CA_2
REMARK    2  A    between atoms: CA_2  and  C_10
REMARK    3  A    between atoms: CB_3  and  CG_4
REMARK    4  A    between atoms: C_10  and  O_11
REMARK                            x       y       z     vdW  Elec       q    Type
REMARK                         _______ _______ _______ _____ _____    ______ ____
ROOT
ATOM      1  CA  PHE A   1      10.023  -0.295  23.505  0.00  0.00    +0.110 C 
ATOM      2  CB  PHE A   1       9.938   0.727  22.638  0.00  0.00    +0.037 C 
ENDROOT
BRANCH   2   3
ATOM      3  CG  PHE A   1       9.777   2.131  23.023  0.00  0.00    -0.023 A 
ATOM      4  CD2 PHE A   1      10.901   2.920  23.291  0.00  0.00    +0.008 A 
ATOM      5  CE2 PHE A   1      10.747   4.253  23.673  0.00  0.00    +0.001 A 
ATOM      6  CZ  PHE A   1       9.470   4.803  23.787  0.00  0.00    +0.000 A 
ATOM      7  CE1 PHE A   1       8.347   4.022  23.517  0.00  0.00    +0.001 A 
ATOM      8  CD1 PHE A   1       8.499   2.688  23.133  0.00  0.00    +0.008 A 
ENDBRANCH   2   3
BRANCH   1   9
ATOM      9  N   PHE A   1      10.003  -0.226  24.903  0.00  0.00    -0.352 N 
ATOM     10  H1  PHE A   1       9.049  -0.039  25.225  0.00  0.00    +0.143 HD
ATOM     11  H2  PHE A   1      10.597   0.544  25.225  0.00  0.00    +0.143 HD
ENDBRANCH   1   9
BRANCH   1  12
ATOM     12  C   PHE A   1      10.208  -1.664  22.892  0.00  0.00    +0.351 C 
ATOM     13  OXT PHE A   1      10.308  -2.715  23.495  0.00  0.00    -0.244 OA
BRANCH  12  14
ATOM     14  O   PHE A   1      10.258  -1.539  21.546  0.00  0.00    -0.476 OA
ATOM     15  H   PHE A   1      10.158  -2.437  21.155  0.00  0.00    +0.295 HD
ENDBRANCH  12  14
ENDBRANCH   1  12
TORSDOF 4
ENDMDL
MODEL 8
REMARK VINA RESULT:      -4.6      3.615      4.954
REMARK  Name = 
REMARK  4 active torsions:
REMARK  status: ('A' for Active; 'I' for Inactive)
REMARK    1  A    between atoms: N_1  and  CA_2
REMARK    2  A    between atoms: CA_2  and  C_10
REMARK    3  A    between atoms: CB_3  and  CG_4
REMARK    4  A    between atoms: C_10  and  O_11
REMARK                            x       y       z     vdW  Elec       q    Type
REMARK                         _______ _______ _______ _____ _____    ______ ____
ROOT
ATOM      1  CA  PHE A   1       7.100  -2.247  22.607  0.00  0.00    +0.110 C 
ATOM      2  CB  PHE A   1       8.441  -2.172  22.642  0.00  0.00    +0.037 C 
ENDROOT
BRANCH   2   3
ATOM      3  CG  PHE A   1       9.195  -1.013  23.126  0.00  0.00    -0.023 A 
ATOM      4  CD2 PHE A   1       9.484   0.048  22.261  0.00  0.00    +0.008 A 
ATOM      5  CE2 PHE A   1      10.216   1.145  22.718  0.00  0.00    +0.001 A 
ATOM      6  CZ  PHE A   1      10.661   1.186  24.040  0.00  0.00    +0.000 A 
ATOM      7  CE1 PHE A   1      10.372   0.132  24.905  0.00  0.00    +0.001 A 
ATOM      8  CD1 PHE A   1       9.638  -0.965  24.451  0.00  0.00    +0.008 A 
ENDBRANCH   2   3
BRANCH   1   9
ATOM      9  N   PHE A   1       6.185  -1.279  23.037  0.00  0.00    -0.352 N 
ATOM     10  H1  PHE A   1       5.304  -1.731  23.299  0.00  0.00    +0.143 HD
ATOM     11  H2  PHE A   1       5.985  -0.623  22.276  0.00  0.00    +0.143 HD
ENDBRANCH   1   9
BRANCH   1  12
ATOM     12  C   PHE A   1       6.528  -3.546  22.090  0.00  0.00    +0.351 C 
ATOM     13  OXT PHE A   1       5.418  -3.707  21.620  0.00  0.00    -0.244 OA
BRANCH  12  14
ATOM     14  O   PHE A   1       7.451  -4.524  22.239  0.00  0.00    -0.476 OA
ATOM     15  H   PHE A   1       7.661  -4.599  23.198  0.00  0.00    +0.295 HD
ENDBRANCH  12  14
ENDBRANCH   1  12
TORSDOF 4
ENDMDL
MODEL 9
REMARK VINA RESULT:      -4.6      2.860      5.295
REMARK  Name = 
REMARK  4 active torsions:
REMARK  status: ('A' for Active; 'I' for Inactive)
REMARK    1  A    between atoms: N_1  and  CA_2
REMARK    2  A    between atoms: CA_2  and  C_10
REMARK    3  A    between atoms: CB_3  and  CG_4
REMARK    4  A    between atoms: C_10  and  O_11
REMARK                            x       y       z     vdW  Elec       q    Type
REMARK                         _______ _______ _______ _____ _____    ______ ____
ROOT
ATOM      1  CA  PHE A   1      10.465   2.534  23.072  0.00  0.00    +0.110 C 
ATOM      2  CB  PHE A   1      10.653   1.681  24.092  0.00  0.00    +0.037 C 
ENDROOT
BRANCH   2   3
ATOM      3  CG  PHE A   1      10.193   0.291  24.108  0.00  0.00    -0.023 A 
ATOM      4  CD2 PHE A   1      10.535  -0.575  23.064  0.00  0.00    +0.008 A 
ATOM      5  CE2 PHE A   1      10.083  -1.895  23.071  0.00  0.00    +0.001 A 
ATOM      6  CZ  PHE A   1       9.288  -2.355  24.122  0.00  0.00    +0.000 A 
ATOM      7  CE1 PHE A   1       8.948  -1.497  25.166  0.00  0.00    +0.001 A 
ATOM      8  CD1 PHE A   1       9.401  -0.176  25.162  0.00  0.00    +0.008 A 
ENDBRANCH   2   3
BRANCH   1   9
ATOM      9  N   PHE A   1       9.837   2.269  21.849  0.00  0.00    -0.352 N 
ATOM     10  H1  PHE A   1      10.308   2.787  21.102  0.00  0.00    +0.143 HD
ATOM     11  H2  PHE A   1       8.862   2.580  21.880  0.00  0.00    +0.143 HD
ENDBRANCH   1   9
BRANCH   1  12
ATOM     12  C   PHE A   1      11.043   3.918  23.257  0.00  0.00    +0.351 C 
ATOM     13  OXT PHE A   1      12.222   4.197  23.357  0.00  0.00    -0.244 OA
BRANCH  12  14
ATOM     14  O   PHE A   1      10.031   4.814  23.307  0.00  0.00    -0.476 OA
ATOM     15  H   PHE A   1       9.532   4.663  24.142  0.00  0.00    +0.295 HD
ENDBRANCH  12  14
ENDBRANCH   1  12
TORSDOF 4
ENDMDL
