MODEL 1
REMARK VINA RESULT:      -4.6      0.000      0.000
REMARK  Name = 
REMARK  5 active torsions:
REMARK  status: ('A' for Active; 'I' for Inactive)
REMARK    1  A    between atoms: C_1  and  C_2
REMARK    2  A    between atoms: C_2  and  C_3
REMARK    3  A    between atoms: C_3  and  C_4
REMARK    4  A    between atoms: C_4  and  N_5
REMARK    5  A    between atoms: N_8  and  O_9
REMARK                            x       y       z     vdW  Elec       q    Type
REMARK                         _______ _______ _______ _____ _____    ______ ____
ROOT
ATOM      1  N   UNL     1      10.977   5.338  23.082  0.00  0.00    -0.274 N 
ATOM      2  H   UNL     1      10.831   4.946  22.160  0.00  0.00    +0.258 HD
ATOM      3  C   UNL     1      12.262   5.566  23.448  0.00  0.00    +0.406 C 
ATOM      4  N   UNL     1      13.183   5.163  22.517  0.00  0.00    -0.142 N 
ATOM      5  H   UNL     1      12.959   4.304  22.026  0.00  0.00    +0.299 HD
ATOM      6  N   UNL     1      12.645   6.130  24.546  0.00  0.00    -0.128 NA
ATOM      7  H   UNL     1      11.820   6.401  25.083  0.00  0.00    +0.306 HD
ENDROOT
BRANCH   4   8
ATOM      8  O   UNL     1      14.486   5.142  23.045  0.00  0.00    -0.233 OA
ATOM      9  H   UNL     1      14.833   4.285  22.699  0.00  0.00    +0.262 HD
ENDBRANCH   4   8
BRANCH   1  10
ATOM     10  C   UNL     1       9.862   5.240  24.001  0.00  0.00    +0.196 C 
BRANCH  10  11
ATOM     11  C   UNL     1       9.132   3.910  23.820  0.00  0.00    +0.037 C 
BRANCH  11  13
ATOM     12  C   UNL     1       9.910   1.999  22.366  0.00  0.00    +0.004 C 
ATOM     13  C   UNL     1      10.124   2.759  23.665  0.00  0.00    -0.000 C 
ENDBRANCH  11  13
ENDBRANCH  10  11
ENDBRANCH   1  10
TORSDOF 4
ENDMDL
MODEL 2
REMARK VINA RESULT:      -4.5      1.790      2.193
REMARK  Name = 
REMARK  5 active torsions:
REMARK  status: ('A' for Active; 'I' for Inactive)
REMARK    1  A    between atoms: C_1  and  C_2
REMARK    2  A    between atoms: C_2  and  C_3
REMARK    3  A    between atoms: C_3  and  C_4
REMARK    4  A    between atoms: C_4  and  N_5
REMARK    5  A    between atoms: N_8  and  O_9
REMARK                            x       y       z     vdW  Elec       q    Type
REMARK                         _______ _______ _______ _____ _____    ______ ____
ROOT
ATOM      1  N   UNL     1      10.940   5.645  23.208  0.00  0.00    -0.274 N 
ATOM      2  H   UNL     1      10.740   5.252  22.296  0.00  0.00    +0.258 HD
ATOM      3  C   UNL     1      12.247   5.756  23.548  0.00  0.00    +0.406 C 
ATOM      4  N   UNL     1      13.108   5.249  22.611  0.00  0.00    -0.142 N 
ATOM      5  H   UNL     1      12.794   4.407  22.141  0.00  0.00    +0.299 HD
ATOM      6  N   UNL     1      12.702   6.300  24.628  0.00  0.00    -0.128 NA
ATOM      7  H   UNL     1      11.917   6.659  25.173  0.00  0.00    +0.306 HD
ENDROOT
BRANCH   4   8
ATOM      8  O   UNL     1      14.413   5.112  23.118  0.00  0.00    -0.233 OA
ATOM      9  H   UNL     1      14.752   4.341  22.603  0.00  0.00    +0.262 HD
ENDBRANCH   4   8
BRANCH   1  10
ATOM     10  C   UNL     1       9.837   5.671  24.147  0.00  0.00    +0.196 C 
BRANCH  10  11
ATOM     11  C   UNL     1       8.839   6.765  23.773  0.00  0.00    +0.037 C 
BRANCH  11  13
ATOM     12  C   UNL     1       7.354   5.041  22.678  0.00  0.00    +0.004 C 
ATOM     13  C   UNL     1       8.053   6.381  22.519  0.00  0.00    -0.000 C 
ENDBRANCH  11  13
ENDBRANCH  10  11
ENDBRANCH   1  10
TORSDOF 4
ENDMDL
MODEL 3
REMARK VINA RESULT:      -4.2      3.141      4.351
REMARK  Name = 
REMARK  5 active torsions:
REMARK  status: ('A' for Active; 'I' for Inactive)
REMARK    1  A    between atoms: C_1  and  C_2
REMARK    2  A    between atoms: C_2  and  C_3
REMARK    3  A    between atoms: C_3  and  C_4
REMARK    4  A    between atoms: C_4  and  N_5
REMARK    5  A    between atoms: N_8  and  O_9
REMARK                            x       y       z     vdW  Elec       q    Type
REMARK                         _______ _______ _______ _____ _____    ______ ____
ROOT
ATOM      1  N   UNL     1      10.578   3.542  23.081  0.00  0.00    -0.274 N 
ATOM      2  H   UNL     1      11.436   3.571  22.545  0.00  0.00    +0.258 HD
ATOM      3  C   UNL     1       9.647   2.639  22.690  0.00  0.00    +0.406 C 
ATOM      4  N   UNL     1       9.995   1.936  21.566  0.00  0.00    -0.142 N 
ATOM      5  H   UNL     1      10.492   2.465  20.858  0.00  0.00    +0.299 HD
ATOM      6  N   UNL     1       8.528   2.399  23.291  0.00  0.00    -0.128 NA
ATOM      7  H   UNL     1       8.471   2.982  24.127  0.00  0.00    +0.306 HD
ENDROOT
BRANCH   4   8
ATOM      8  O   UNL     1       8.901   1.235  21.027  0.00  0.00    -0.233 OA
ATOM      9  H   UNL     1       8.704   0.584  21.742  0.00  0.00    +0.262 HD
ENDBRANCH   4   8
BRANCH   1  10
ATOM     10  C   UNL     1      10.310   4.693  23.919  0.00  0.00    +0.196 C 
BRANCH  10  11
ATOM     11  C   UNL     1      11.317   5.807  23.640  0.00  0.00    +0.037 C 
BRANCH  11  13
ATOM     12  C   UNL     1      13.281   5.645  22.061  0.00  0.00    +0.004 C 
ATOM     13  C   UNL     1      12.715   5.235  23.411  0.00  0.00    -0.000 C 
ENDBRANCH  11  13
ENDBRANCH  10  11
ENDBRANCH   1  10
TORSDOF 4
ENDMDL
MODEL 4
REMARK VINA RESULT:      -4.2      8.146      9.199
REMARK  Name = 
REMARK  5 active torsions:
REMARK  status: ('A' for Active; 'I' for Inactive)
REMARK    1  A    between atoms: C_1  and  C_2
REMARK    2  A    between atoms: C_2  and  C_3
REMARK    3  A    between atoms: C_3  and  C_4
REMARK    4  A    between atoms: C_4  and  N_5
REMARK    5  A    between atoms: N_8  and  O_9
REMARK                            x       y       z     vdW  Elec       q    Type
REMARK                         _______ _______ _______ _____ _____    ______ ____
ROOT
ATOM      1  N   UNL     1       8.860  -3.512  24.262  0.00  0.00    -0.274 N 
ATOM      2  H   UNL     1       7.902  -3.186  24.229  0.00  0.00    +0.258 HD
ATOM      3  C   UNL     1       9.107  -4.597  25.036  0.00  0.00    +0.406 C 
ATOM      4  N   UNL     1       8.009  -5.052  25.717  0.00  0.00    -0.142 N 
ATOM      5  H   UNL     1       7.384  -4.334  26.065  0.00  0.00    +0.299 HD
ATOM      6  N   UNL     1      10.243  -5.205  25.144  0.00  0.00    -0.128 NA
ATOM      7  H   UNL     1      10.919  -4.751  24.529  0.00  0.00    +0.306 HD
ENDROOT
BRANCH   4   8
ATOM      8  O   UNL     1       8.360  -5.975  26.719  0.00  0.00    -0.233 OA
ATOM      9  H   UNL     1       9.072  -6.495  26.276  0.00  0.00    +0.262 HD
ENDBRANCH   4   8
BRANCH   1  10
ATOM     10  C   UNL     1       9.868  -2.577  23.806  0.00  0.00    +0.196 C 
BRANCH  10  11
ATOM     11  C   UNL     1       9.381  -1.820  22.572  0.00  0.00    +0.037 C 
BRANCH  11  13
ATOM     12  C   UNL     1       9.361   0.461  21.491  0.00  0.00    +0.004 C 
ATOM     13  C   UNL     1      10.092  -0.474  22.441  0.00  0.00    -0.000 C 
ENDBRANCH  11  13
ENDBRANCH  10  11
ENDBRANCH   1  10
TORSDOF 4
ENDMDL
MODEL 5
REMARK VINA RESULT:      -4.1      8.151      9.137
REMARK  Name = 
REMARK  5 active torsions:
REMARK  status: ('A' for Active; 'I' for Inactive)
REMARK    1  A    between atoms: C_1  and  C_2
REMARK    2  A    between atoms: C_2  and  C_3
REMARK    3  A    between atoms: C_3  and  C_4
REMARK    4  A    between atoms: C_4  and  N_5
REMARK    5  A    between atoms: N_8  and  O_9
REMARK                            x       y       z     vdW  Elec       q    Type
REMARK                         _______ _______ _______ _____ _____    ______ ____
ROOT
ATOM      1  N   UNL     1       8.901  -3.483  24.253  0.00  0.00    -0.274 N 
ATOM      2  H   UNL     1       7.945  -3.151  24.216  0.00  0.00    +0.258 HD
ATOM      3  C   UNL     1       9.136  -4.573  25.023  0.00  0.00    +0.406 C 
ATOM      4  N   UNL     1       8.032  -5.024  25.697  0.00  0.00    -0.142 N 
ATOM      5  H   UNL     1       7.409  -4.303  26.045  0.00  0.00    +0.299 HD
ATOM      6  N   UNL     1      10.268  -5.188  25.135  0.00  0.00    -0.128 NA
ATOM      7  H   UNL     1      10.950  -4.736  24.526  0.00  0.00    +0.306 HD
ENDROOT
BRANCH   4   8
ATOM      8  O   UNL     1       8.371  -5.953  26.697  0.00  0.00    -0.233 OA
ATOM      9  H   UNL     1       9.326  -6.116  26.507  0.00  0.00    +0.262 HD
ENDBRANCH   4   8
BRANCH   1  10
ATOM     10  C   UNL     1       9.917  -2.552  23.807  0.00  0.00    +0.196 C 
BRANCH  10  11
ATOM     11  C   UNL     1       9.363  -1.130  23.765  0.00  0.00    +0.037 C 
BRANCH  11  13
ATOM     12  C   UNL     1      10.936   0.704  24.497  0.00  0.00    +0.004 C 
ATOM     13  C   UNL     1       9.888  -0.304  24.939  0.00  0.00    -0.000 C 
ENDBRANCH  11  13
ENDBRANCH  10  11
ENDBRANCH   1  10
TORSDOF 4
ENDMDL
MODEL 6
REMARK VINA RESULT:      -4.0      3.611      4.601
REMARK  Name = 
REMARK  5 active torsions:
REMARK  status: ('A' for Active; 'I' for Inactive)
REMARK    1  A    between atoms: C_1  and  C_2
REMARK    2  A    between atoms: C_2  and  C_3
REMARK    3  A    between atoms: C_3  and  C_4
REMARK    4  A    between atoms: C_4  and  N_5
REMARK    5  A    between atoms: N_8  and  O_9
REMARK                            x       y       z     vdW  Elec       q    Type
REMARK                         _______ _______ _______ _____ _____    ______ ____
ROOT
ATOM      1  N   UNL     1      10.481   2.095  23.936  0.00  0.00    -0.274 N 
ATOM      2  H   UNL     1      10.400   2.642  24.784  0.00  0.00    +0.258 HD
ATOM      3  C   UNL     1       9.808   2.552  22.852  0.00  0.00    +0.406 C 
ATOM      4  N   UNL     1       9.056   3.671  23.098  0.00  0.00    -0.142 N 
ATOM      5  H   UNL     1       8.602   3.700  24.005  0.00  0.00    +0.299 HD
ATOM      6  N   UNL     1       9.850   2.040  21.666  0.00  0.00    -0.128 NA
ATOM      7  H   UNL     1      10.495   1.249  21.671  0.00  0.00    +0.306 HD
ENDROOT
BRANCH   4   8
ATOM      8  O   UNL     1       8.155   3.938  22.051  0.00  0.00    -0.233 OA
ATOM      9  H   UNL     1       7.301   4.033  22.536  0.00  0.00    +0.262 HD
ENDBRANCH   4   8
BRANCH   1  10
ATOM     10  C   UNL     1      10.969   0.740  24.093  0.00  0.00    +0.196 C 
BRANCH  10  11
ATOM     11  C   UNL     1       9.961  -0.107  24.868  0.00  0.00    +0.037 C 
BRANCH  11  13
ATOM     12  C   UNL     1      10.308  -1.442  22.753  0.00  0.00    +0.004 C 
ATOM     13  C   UNL     1       9.514  -1.314  24.043  0.00  0.00    -0.000 C 
ENDBRANCH  11  13
ENDBRANCH  10  11
ENDBRANCH   1  10
TORSDOF 4
ENDMDL
MODEL 7
REMARK VINA RESULT:      -4.0      4.293      5.542
REMARK  Name = 
REMARK  5 active torsions:
REMARK  status: ('A' for Active; 'I' for Inactive)
REMARK    1  A    between atoms: C_1  and  C_2
REMARK    2  A    between atoms: C_2  and  C_3
REMARK    3  A    between atoms: C_3  and  C_4
REMARK    4  A    between atoms: C_4  and  N_5
REMARK    5  A    between atoms: N_8  and  O_9
REMARK                            x       y       z     vdW  Elec       q    Type
REMARK                         _______ _______ _______ _____ _____    ______ ____
ROOT
ATOM      1  N   UNL     1       9.499   0.024  21.488  0.00  0.00    -0.274 N 
ATOM      2  H   UNL     1       9.344   0.268  20.518  0.00  0.00    +0.258 HD
ATOM      3  C   UNL     1       9.898   1.024  22.310  0.00  0.00    +0.406 C 
ATOM      4  N   UNL     1      10.096   2.220  21.671  0.00  0.00    -0.142 N 
ATOM      5  H   UNL     1      10.501   2.157  20.744  0.00  0.00    +0.299 HD
ATOM      6  N   UNL     1      10.071   0.928  23.588  0.00  0.00    -0.128 NA
ATOM      7  H   UNL     1       9.830  -0.019  23.882  0.00  0.00    +0.306 HD
ENDROOT
BRANCH   4   8
ATOM      8  O   UNL     1      10.783   3.141  22.483  0.00  0.00    -0.233 OA
ATOM      9  H   UNL     1      11.725   2.931  22.278  0.00  0.00    +0.262 HD
ENDBRANCH   4   8
BRANCH   1  10
ATOM     10  C   UNL     1       9.646  -1.389  21.775  0.00  0.00    +0.196 C 
BRANCH  10  11
ATOM     11  C   UNL     1       8.307  -1.995  22.192  0.00  0.00    +0.037 C 
BRANCH  11  13
ATOM     12  C   UNL     1       9.845  -2.732  24.054  0.00  0.00    +0.004 C 
ATOM     13  C   UNL     1       8.405  -2.634  23.577  0.00  0.00    -0.000 C 
ENDBRANCH  11  13
ENDBRANCH  10  11
ENDBRANCH   1  10
TORSDOF 4
ENDMDL
MODEL 8
REMARK VINA RESULT:      -3.9     10.790     11.513
REMARK  Name = 
REMARK  5 active torsions:
REMARK  status: ('A' for Active; 'I' for Inactive)
REMARK    1  A    between atoms: C_1  and  C_2
REMARK    2  A    between atoms: C_2  and  C_3
REMARK    3  A    between atoms: C_3  and  C_4
REMARK    4  A    between atoms: C_4  and  N_5
REMARK    5  A    between atoms: N_8  and  O_9
REMARK                            x       y       z     vdW  Elec       q    Type
REMARK                         _______ _______ _______ _____ _____    ______ ____
ROOT
ATOM      1  N   UNL     1       6.580  -5.100  25.164  0.00  0.00    -0.274 N 
ATOM      2  H   UNL     1       5.574  -5.196  25.214  0.00  0.00    +0.258 HD
ATOM      3  C   UNL     1       7.292  -5.609  26.199  0.00  0.00    +0.406 C 
ATOM      4  N   UNL     1       6.516  -6.127  27.202  0.00  0.00    -0.142 N 
ATOM      5  H   UNL     1       5.661  -5.618  27.399  0.00  0.00    +0.299 HD
ATOM      6  N   UNL     1       8.581  -5.654  26.279  0.00  0.00    -0.128 NA
ATOM      7  H   UNL     1       8.978  -5.267  25.422  0.00  0.00    +0.306 HD
ENDROOT
BRANCH   4   8
ATOM      8  O   UNL     1       7.263  -6.371  28.369  0.00  0.00    -0.233 OA
ATOM      9  H   UNL     1       7.986  -5.704  28.291  0.00  0.00    +0.262 HD
ENDBRANCH   4   8
BRANCH   1  10
ATOM     10  C   UNL     1       7.082  -4.123  24.219  0.00  0.00    +0.196 C 
BRANCH  10  11
ATOM     11  C   UNL     1       7.573  -4.809  22.946  0.00  0.00    +0.037 C 
BRANCH  11  13
ATOM     12  C   UNL     1       6.235  -5.705  21.001  0.00  0.00    +0.004 C 
ATOM     13  C   UNL     1       6.574  -5.865  22.474  0.00  0.00    -0.000 C 
ENDBRANCH  11  13
ENDBRANCH  10  11
ENDBRANCH   1  10
TORSDOF 4
ENDMDL
MODEL 9
REMARK VINA RESULT:      -3.9      4.051      4.704
REMARK  Name = 
REMARK  5 active torsions:
REMARK  status: ('A' for Active; 'I' for Inactive)
REMARK    1  A    between atoms: C_1  and  C_2
REMARK    2  A    between atoms: C_2  and  C_3
REMARK    3  A    between atoms: C_3  and  C_4
REMARK    4  A    between atoms: C_4  and  N_5
REMARK    5  A    between atoms: N_8  and  O_9
REMARK                            x       y       z     vdW  Elec       q    Type
REMARK                         _______ _______ _______ _____ _____    ______ ____
ROOT
ATOM      1  N   UNL     1       8.522   4.266  22.672  0.00  0.00    -0.274 N 
ATOM      2  H   UNL     1       9.395   4.777  22.634  0.00  0.00    +0.258 HD
ATOM      3  C   UNL     1       7.441   4.866  22.117  0.00  0.00    +0.406 C 
ATOM      4  N   UNL     1       7.692   6.125  21.639  0.00  0.00    -0.142 N 
ATOM      5  H   UNL     1       8.331   6.683  22.195  0.00  0.00    +0.299 HD
ATOM      6  N   UNL     1       6.265   4.343  21.998  0.00  0.00    -0.128 NA
ATOM      7  H   UNL     1       6.289   3.391  22.366  0.00  0.00    +0.306 HD
ENDROOT
BRANCH   4   8
ATOM      8  O   UNL     1       6.505   6.820  21.346  0.00  0.00    -0.233 OA
ATOM      9  H   UNL     1       5.921   6.552  22.096  0.00  0.00    +0.262 HD
ENDBRANCH   4   8
BRANCH   1  10
ATOM     10  C   UNL     1       8.462   3.175  23.624  0.00  0.00    +0.196 C 
BRANCH  10  11
ATOM     11  C   UNL     1       9.751   2.356  23.584  0.00  0.00    +0.037 C 
BRANCH  11  13
ATOM     12  C   UNL     1       9.155   0.812  21.678  0.00  0.00    +0.004 C 
ATOM     13  C   UNL     1      10.078   1.921  22.156  0.00  0.00    -0.000 C 
ENDBRANCH  11  13
ENDBRANCH  10  11
ENDBRANCH   1  10
TORSDOF 4
ENDMDL
