MODEL 1
REMARK VINA RESULT:      -7.3      0.000      0.000
REMARK  Name = 
REMARK  2 active torsions:
REMARK  status: ('A' for Active; 'I' for Inactive)
REMARK    1  A    between atoms: C_2  and  C_3
REMARK    2  A    between atoms: N_7  and  C_8
REMARK                            x       y       z     vdW  Elec       q    Type
REMARK                         _______ _______ _______ _____ _____    ______ ____
ROOT
ATOM      1  C   UNL     1       6.666  -4.274  23.825  0.00  0.00    +0.147 C 
ATOM      2  C   UNL     1       5.446  -4.921  24.622  0.00  0.00    +0.057 C 
ATOM      3  C   UNL     1       5.817  -5.556  25.990  0.00  0.00    +0.042 C 
ATOM      4  C   UNL     1       4.761  -6.537  26.518  0.00  0.00    +0.083 C 
ATOM      5  N   UNL     1       4.379  -7.584  25.591  0.00  0.00    -0.316 NA
ATOM      6  H   UNL     1       5.004  -8.387  25.625  0.00  0.00    +0.122 HD
ATOM      7  C   UNL     1       4.088  -7.161  24.238  0.00  0.00    +0.083 C 
ATOM      8  C   UNL     1       4.933  -6.032  23.666  0.00  0.00    +0.042 C 
ATOM      9  N   UNL     1       4.368  -3.906  24.877  0.00  0.00    -0.303 N 
ATOM     10  H   UNL     1       3.492  -4.233  25.268  0.00  0.00    +0.150 HD
ATOM     11  C   UNL     1       4.591  -2.567  25.166  0.00  0.00    +0.261 C 
ATOM     12  O   UNL     1       3.724  -1.914  25.741  0.00  0.00    -0.269 OA
ATOM     13  C   UNL     1       5.834  -2.033  24.653  0.00  0.00    +0.110 A 
ATOM     14  N   UNL     1       6.292  -0.728  24.631  0.00  0.00    -0.339 N 
ATOM     15  C   UNL     1       7.370  -0.617  23.761  0.00  0.00    +0.051 A 
ATOM     16  C   UNL     1       7.679  -1.905  23.325  0.00  0.00    +0.005 A 
ATOM     17  C   UNL     1       8.701  -2.085  22.370  0.00  0.00    +0.012 A 
ATOM     18  C   UNL     1       9.391  -0.973  21.880  0.00  0.00    +0.021 A 
ATOM     19  C   UNL     1       9.092   0.298  22.351  0.00  0.00    +0.043 A 
ATOM     20 CL   UNL     1       9.966   1.650  21.738  0.00  0.00    -0.083 Cl
ATOM     21  C   UNL     1       8.084   0.506  23.301  0.00  0.00    +0.046 A 
ATOM     22  C   UNL     1       5.724   0.420  25.312  0.00  0.00    +0.149 C 
ATOM     23  C   UNL     1       6.781  -2.793  23.988  0.00  0.00    +0.009 A 
ENDROOT
BRANCH   1  24
ATOM     24  C   UNL     1       7.954  -4.933  24.109  0.00  0.00    +0.073 C 
ATOM     25  N   UNL     1       8.988  -5.426  24.326  0.00  0.00    -0.196 NA
ENDBRANCH   1  24
TORSDOF 1
ENDMDL
MODEL 2
REMARK VINA RESULT:      -7.0      3.306      6.838
REMARK  Name = 
REMARK  2 active torsions:
REMARK  status: ('A' for Active; 'I' for Inactive)
REMARK    1  A    between atoms: C_2  and  C_3
REMARK    2  A    between atoms: N_7  and  C_8
REMARK                            x       y       z     vdW  Elec       q    Type
REMARK                         _______ _______ _______ _____ _____    ______ ____
ROOT
ATOM      1  C   UNL     1       6.824  -0.916  23.693  0.00  0.00    +0.147 C 
ATOM      2  C   UNL     1       8.198  -0.131  23.495  0.00  0.00    +0.057 C 
ATOM      3  C   UNL     1       8.656   0.711  24.718  0.00  0.00    +0.042 C 
ATOM      4  C   UNL     1       9.701   1.780  24.370  0.00  0.00    +0.083 C 
ATOM      5  N   UNL     1       9.331   2.669  23.286  0.00  0.00    -0.316 NA
ATOM      6  H   UNL     1       8.769   3.458  23.598  0.00  0.00    +0.122 HD
ATOM      7  C   UNL     1       8.796   2.038  22.099  0.00  0.00    +0.083 C 
ATOM      8  C   UNL     1       7.907   0.819  22.301  0.00  0.00    +0.042 C 
ATOM      9  N   UNL     1       9.316  -1.075  23.159  0.00  0.00    -0.303 N 
ATOM     10  H   UNL     1      10.210  -0.677  22.891  0.00  0.00    +0.150 HD
ATOM     11  C   UNL     1       9.461  -2.353  23.679  0.00  0.00    +0.261 C 
ATOM     12  O   UNL     1      10.564  -2.892  23.679  0.00  0.00    -0.269 OA
ATOM     13  C   UNL     1       8.227  -2.981  24.100  0.00  0.00    +0.110 A 
ATOM     14  N   UNL     1       7.995  -4.279  24.518  0.00  0.00    -0.339 N 
ATOM     15  C   UNL     1       6.631  -4.545  24.507  0.00  0.00    +0.051 A 
ATOM     16  C   UNL     1       5.982  -3.350  24.201  0.00  0.00    +0.005 A 
ATOM     17  C   UNL     1       4.580  -3.341  24.056  0.00  0.00    +0.012 A 
ATOM     18  C   UNL     1       3.861  -4.527  24.225  0.00  0.00    +0.021 A 
ATOM     19  C   UNL     1       4.521  -5.701  24.563  0.00  0.00    +0.043 A 
ATOM     20 CL   UNL     1       3.609  -7.147  24.777  0.00  0.00    -0.083 Cl
ATOM     21  C   UNL     1       5.913  -5.738  24.716  0.00  0.00    +0.046 A 
ATOM     22  C   UNL     1       8.980  -5.294  24.841  0.00  0.00    +0.149 C 
ATOM     23  C   UNL     1       6.994  -2.353  24.067  0.00  0.00    +0.009 A 
ENDROOT
BRANCH   1  24
ATOM     24  C   UNL     1       5.902  -0.239  24.623  0.00  0.00    +0.073 C 
ATOM     25  N   UNL     1       5.147   0.283  25.343  0.00  0.00    -0.196 NA
ENDBRANCH   1  24
TORSDOF 1
ENDMDL
MODEL 3
REMARK VINA RESULT:      -7.0      2.060      3.029
REMARK  Name = 
REMARK  2 active torsions:
REMARK  status: ('A' for Active; 'I' for Inactive)
REMARK    1  A    between atoms: C_2  and  C_3
REMARK    2  A    between atoms: N_7  and  C_8
REMARK                            x       y       z     vdW  Elec       q    Type
REMARK                         _______ _______ _______ _____ _____    ______ ____
ROOT
ATOM      1  C   UNL     1       8.058  -1.611  23.072  0.00  0.00    +0.147 C 
ATOM      2  C   UNL     1       6.930  -2.669  23.459  0.00  0.00    +0.057 C 
ATOM      3  C   UNL     1       7.372  -3.761  24.472  0.00  0.00    +0.042 C 
ATOM      4  C   UNL     1       6.454  -4.991  24.488  0.00  0.00    +0.083 C 
ATOM      5  N   UNL     1       6.225  -5.603  23.194  0.00  0.00    -0.316 NA
ATOM      6  H   UNL     1       6.952  -6.267  22.938  0.00  0.00    +0.122 HD
ATOM      7  C   UNL     1       5.891  -4.700  22.114  0.00  0.00    +0.083 C 
ATOM      8  C   UNL     1       6.580  -3.343  22.103  0.00  0.00    +0.042 C 
ATOM      9  N   UNL     1       5.723  -1.987  24.035  0.00  0.00    -0.303 N 
ATOM     10  H   UNL     1       4.895  -2.547  24.204  0.00  0.00    +0.150 HD
ATOM     11  C   UNL     1       5.760  -0.868  24.856  0.00  0.00    +0.261 C 
ATOM     12  O   UNL     1       4.808  -0.617  25.591  0.00  0.00    -0.269 OA
ATOM     13  C   UNL     1       6.923  -0.026  24.683  0.00  0.00    +0.110 A 
ATOM     14  N   UNL     1       7.201   1.218  25.222  0.00  0.00    -0.339 N 
ATOM     15  C   UNL     1       8.261   1.804  24.542  0.00  0.00    +0.051 A 
ATOM     16  C   UNL     1       8.745   0.857  23.641  0.00  0.00    +0.005 A 
ATOM     17  C   UNL     1       9.790   1.208  22.762  0.00  0.00    +0.012 A 
ATOM     18  C   UNL     1      10.328   2.497  22.810  0.00  0.00    +0.021 A 
ATOM     19  C   UNL     1       9.856   3.417  23.736  0.00  0.00    +0.043 A 
ATOM     20 CL   UNL     1      10.545   4.996  23.781  0.00  0.00    -0.083 Cl
ATOM     21  C   UNL     1       8.821   3.094  24.623  0.00  0.00    +0.046 A 
ATOM     22  C   UNL     1       6.478   1.908  26.273  0.00  0.00    +0.149 C 
ATOM     23  C   UNL     1       7.970  -0.326  23.829  0.00  0.00    +0.009 A 
ENDROOT
BRANCH   1  24
ATOM     24  C   UNL     1       9.421  -2.169  23.145  0.00  0.00    +0.073 C 
ATOM     25  N   UNL     1      10.509  -2.583  23.218  0.00  0.00    -0.196 NA
ENDBRANCH   1  24
TORSDOF 1
ENDMDL
MODEL 4
REMARK VINA RESULT:      -6.9      3.892      7.140
REMARK  Name = 
REMARK  2 active torsions:
REMARK  status: ('A' for Active; 'I' for Inactive)
REMARK    1  A    between atoms: C_2  and  C_3
REMARK    2  A    between atoms: N_7  and  C_8
REMARK                            x       y       z     vdW  Elec       q    Type
REMARK                         _______ _______ _______ _____ _____    ______ ____
ROOT
ATOM      1  C   UNL     1       7.563  -0.283  24.868  0.00  0.00    +0.147 C 
ATOM      2  C   UNL     1       8.604   0.325  23.824  0.00  0.00    +0.057 C 
ATOM      3  C   UNL     1       9.702   1.234  24.443  0.00  0.00    +0.042 C 
ATOM      4  C   UNL     1      10.396   2.142  23.420  0.00  0.00    +0.083 C 
ATOM      5  N   UNL     1       9.503   2.951  22.613  0.00  0.00    -0.316 NA
ATOM      6  H   UNL     1       9.243   3.823  23.068  0.00  0.00    +0.122 HD
ATOM      7  C   UNL     1       8.369   2.263  22.035  0.00  0.00    +0.083 C 
ATOM      8  C   UNL     1       7.715   1.174  22.874  0.00  0.00    +0.042 C 
ATOM      9  N   UNL     1       9.303  -0.763  23.061  0.00  0.00    -0.303 N 
ATOM     10  H   UNL     1       9.897  -0.493  22.285  0.00  0.00    +0.150 HD
ATOM     11  C   UNL     1       9.678  -1.990  23.591  0.00  0.00    +0.261 C 
ATOM     12  O   UNL     1      10.568  -2.642  23.052  0.00  0.00    -0.269 OA
ATOM     13  C   UNL     1       8.883  -2.435  24.715  0.00  0.00    +0.110 A 
ATOM     14  N   UNL     1       8.890  -3.651  25.374  0.00  0.00    -0.339 N 
ATOM     15  C   UNL     1       7.755  -3.767  26.167  0.00  0.00    +0.051 A 
ATOM     16  C   UNL     1       7.085  -2.547  26.106  0.00  0.00    +0.005 A 
ATOM     17  C   UNL     1       5.849  -2.402  26.771  0.00  0.00    +0.012 A 
ATOM     18  C   UNL     1       5.318  -3.480  27.483  0.00  0.00    +0.021 A 
ATOM     19  C   UNL     1       6.016  -4.678  27.560  0.00  0.00    +0.043 A 
ATOM     20 CL   UNL     1       5.344  -5.988  28.456  0.00  0.00    -0.083 Cl
ATOM     21  C   UNL     1       7.246  -4.848  26.913  0.00  0.00    +0.046 A 
ATOM     22  C   UNL     1       9.852  -4.727  25.235  0.00  0.00    +0.149 C 
ATOM     23  C   UNL     1       7.871  -1.684  25.286  0.00  0.00    +0.009 A 
ENDROOT
BRANCH   1  24
ATOM     24  C   UNL     1       7.355   0.581  26.044  0.00  0.00    +0.073 C 
ATOM     25  N   UNL     1       7.164   1.246  26.983  0.00  0.00    -0.196 NA
ENDBRANCH   1  24
TORSDOF 1
ENDMDL
MODEL 5
REMARK VINA RESULT:      -6.7      2.943      4.749
REMARK  Name = 
REMARK  2 active torsions:
REMARK  status: ('A' for Active; 'I' for Inactive)
REMARK    1  A    between atoms: C_2  and  C_3
REMARK    2  A    between atoms: N_7  and  C_8
REMARK                            x       y       z     vdW  Elec       q    Type
REMARK                         _______ _______ _______ _____ _____    ______ ____
ROOT
ATOM      1  C   UNL     1       7.662  -1.137  25.523  0.00  0.00    +0.147 C 
ATOM      2  C   UNL     1       8.089  -2.591  25.029  0.00  0.00    +0.057 C 
ATOM      3  C   UNL     1       7.031  -3.329  24.163  0.00  0.00    +0.042 C 
ATOM      4  C   UNL     1       7.256  -4.844  24.077  0.00  0.00    +0.083 C 
ATOM      5  N   UNL     1       7.386  -5.518  25.354  0.00  0.00    -0.316 NA
ATOM      6  H   UNL     1       6.486  -5.771  25.758  0.00  0.00    +0.122 HD
ATOM      7  C   UNL     1       8.273  -4.899  26.314  0.00  0.00    +0.083 C 
ATOM      8  C   UNL     1       8.304  -3.378  26.351  0.00  0.00    +0.042 C 
ATOM      9  N   UNL     1       9.361  -2.540  24.233  0.00  0.00    -0.303 N 
ATOM     10  H   UNL     1       9.794  -3.419  23.971  0.00  0.00    +0.150 HD
ATOM     11  C   UNL     1       9.713  -1.516  23.363  0.00  0.00    +0.261 C 
ATOM     12  O   UNL     1      10.537  -1.725  22.476  0.00  0.00    -0.269 OA
ATOM     13  C   UNL     1       9.120  -0.232  23.664  0.00  0.00    +0.110 A 
ATOM     14  N   UNL     1       9.366   1.008  23.102  0.00  0.00    -0.339 N 
ATOM     15  C   UNL     1       8.827   2.008  23.903  0.00  0.00    +0.051 A 
ATOM     16  C   UNL     1       8.115   1.378  24.923  0.00  0.00    +0.005 A 
ATOM     17  C   UNL     1       7.513   2.159  25.931  0.00  0.00    +0.012 A 
ATOM     18  C   UNL     1       7.635   3.550  25.891  0.00  0.00    +0.021 A 
ATOM     19  C   UNL     1       8.321   4.162  24.850  0.00  0.00    +0.043 A 
ATOM     20 CL   UNL     1       8.446   5.880  24.819  0.00  0.00    -0.083 Cl
ATOM     21  C   UNL     1       8.925   3.411  23.834  0.00  0.00    +0.046 A 
ATOM     22  C   UNL     1      10.143   1.301  21.913  0.00  0.00    +0.149 C 
ATOM     23  C   UNL     1       8.210  -0.026  24.687  0.00  0.00    +0.009 A 
ENDROOT
BRANCH   1  24
ATOM     24  C   UNL     1       6.205  -0.991  25.695  0.00  0.00    +0.073 C 
ATOM     25  N   UNL     1       5.054  -0.847  25.818  0.00  0.00    -0.196 NA
ENDBRANCH   1  24
TORSDOF 1
ENDMDL
MODEL 6
REMARK VINA RESULT:      -6.6      4.115      7.518
REMARK  Name = 
REMARK  2 active torsions:
REMARK  status: ('A' for Active; 'I' for Inactive)
REMARK    1  A    between atoms: C_2  and  C_3
REMARK    2  A    between atoms: N_7  and  C_8
REMARK                            x       y       z     vdW  Elec       q    Type
REMARK                         _______ _______ _______ _____ _____    ______ ____
ROOT
ATOM      1  C   UNL     1       9.296   1.642  23.693  0.00  0.00    +0.147 C 
ATOM      2  C   UNL     1       8.862   3.140  24.023  0.00  0.00    +0.057 C 
ATOM      3  C   UNL     1       7.771   3.731  23.088  0.00  0.00    +0.042 C 
ATOM      4  C   UNL     1       7.691   5.262  23.128  0.00  0.00    +0.083 C 
ATOM      5  N   UNL     1       8.947   5.949  22.893  0.00  0.00    -0.316 NA
ATOM      6  H   UNL     1       9.144   6.080  21.903  0.00  0.00    +0.122 HD
ATOM      7  C   UNL     1      10.090   5.453  23.628  0.00  0.00    +0.083 C 
ATOM      8  C   UNL     1      10.176   3.949  23.847  0.00  0.00    +0.042 C 
ATOM      9  N   UNL     1       8.354   3.258  25.432  0.00  0.00    -0.303 N 
ATOM     10  H   UNL     1       8.165   4.187  25.792  0.00  0.00    +0.150 HD
ATOM     11  C   UNL     1       7.608   2.291  26.091  0.00  0.00    +0.261 C 
ATOM     12  O   UNL     1       6.910   2.606  27.050  0.00  0.00    -0.269 OA
ATOM     13  C   UNL     1       7.814   0.939  25.618  0.00  0.00    +0.110 A 
ATOM     14  N   UNL     1       7.352  -0.257  26.138  0.00  0.00    -0.339 N 
ATOM     15  C   UNL     1       8.049  -1.320  25.575  0.00  0.00    +0.051 A 
ATOM     16  C   UNL     1       8.877  -0.790  24.586  0.00  0.00    +0.005 A 
ATOM     17  C   UNL     1       9.757  -1.643  23.890  0.00  0.00    +0.012 A 
ATOM     18  C   UNL     1       9.784  -3.006  24.197  0.00  0.00    +0.021 A 
ATOM     19  C   UNL     1       8.929  -3.522  25.162  0.00  0.00    +0.043 A 
ATOM     20 CL   UNL     1       8.975  -5.208  25.513  0.00  0.00    -0.083 Cl
ATOM     21  C   UNL     1       8.043  -2.697  25.867  0.00  0.00    +0.046 A 
ATOM     22  C   UNL     1       6.363  -0.445  27.181  0.00  0.00    +0.149 C 
ATOM     23  C   UNL     1       8.627   0.615  24.546  0.00  0.00    +0.009 A 
ENDROOT
BRANCH   1  24
ATOM     24  C   UNL     1       9.160   1.305  22.264  0.00  0.00    +0.073 C 
ATOM     25  N   UNL     1       9.033   1.014  21.142  0.00  0.00    -0.196 NA
ENDBRANCH   1  24
TORSDOF 1
ENDMDL
MODEL 7
REMARK VINA RESULT:      -6.6      3.591      6.580
REMARK  Name = 
REMARK  2 active torsions:
REMARK  status: ('A' for Active; 'I' for Inactive)
REMARK    1  A    between atoms: C_2  and  C_3
REMARK    2  A    between atoms: N_7  and  C_8
REMARK                            x       y       z     vdW  Elec       q    Type
REMARK                         _______ _______ _______ _____ _____    ______ ____
ROOT
ATOM      1  C   UNL     1       9.020  -0.934  24.481  0.00  0.00    +0.147 C 
ATOM      2  C   UNL     1       8.843   0.555  23.940  0.00  0.00    +0.057 C 
ATOM      3  C   UNL     1       8.457   0.668  22.439  0.00  0.00    +0.042 C 
ATOM      4  C   UNL     1       8.723   2.054  21.839  0.00  0.00    +0.083 C 
ATOM      5  N   UNL     1      10.071   2.555  22.026  0.00  0.00    -0.316 NA
ATOM      6  H   UNL     1      10.716   2.226  21.310  0.00  0.00    +0.122 HD
ATOM      7  C   UNL     1      10.614   2.436  23.362  0.00  0.00    +0.083 C 
ATOM      8  C   UNL     1      10.244   1.191  24.155  0.00  0.00    +0.042 C 
ATOM      9  N   UNL     1       7.800   1.296  24.726  0.00  0.00    -0.303 N 
ATOM     10  H   UNL     1       7.689   2.289  24.552  0.00  0.00    +0.150 HD
ATOM     11  C   UNL     1       6.637   0.732  25.233  0.00  0.00    +0.261 C 
ATOM     12  O   UNL     1       5.677   1.449  25.500  0.00  0.00    -0.269 OA
ATOM     13  C   UNL     1       6.715  -0.688  25.493  0.00  0.00    +0.110 A 
ATOM     14  N   UNL     1       5.807  -1.521  26.123  0.00  0.00    -0.339 N 
ATOM     15  C   UNL     1       6.416  -2.727  26.450  0.00  0.00    +0.051 A 
ATOM     16  C   UNL     1       7.696  -2.703  25.899  0.00  0.00    +0.005 A 
ATOM     17  C   UNL     1       8.572  -3.783  26.134  0.00  0.00    +0.012 A 
ATOM     18  C   UNL     1       8.142  -4.862  26.910  0.00  0.00    +0.021 A 
ATOM     19  C   UNL     1       6.852  -4.884  27.424  0.00  0.00    +0.043 A 
ATOM     20 CL   UNL     1       6.345  -6.233  28.368  0.00  0.00    -0.083 Cl
ATOM     21  C   UNL     1       5.961  -3.826  27.203  0.00  0.00    +0.046 A 
ATOM     22  C   UNL     1       4.442  -1.215  26.503  0.00  0.00    +0.149 C 
ATOM     23  C   UNL     1       7.822  -1.465  25.200  0.00  0.00    +0.009 A 
ENDROOT
BRANCH   1  24
ATOM     24  C   UNL     1       9.466  -1.877  23.440  0.00  0.00    +0.073 C 
ATOM     25  N   UNL     1       9.818  -2.647  22.638  0.00  0.00    -0.196 NA
ENDBRANCH   1  24
TORSDOF 1
ENDMDL
MODEL 8
REMARK VINA RESULT:      -6.5      2.372      3.322
REMARK  Name = 
REMARK  2 active torsions:
REMARK  status: ('A' for Active; 'I' for Inactive)
REMARK    1  A    between atoms: C_2  and  C_3
REMARK    2  A    between atoms: N_7  and  C_8
REMARK                            x       y       z     vdW  Elec       q    Type
REMARK                         _______ _______ _______ _____ _____    ______ ____
ROOT
ATOM      1  C   UNL     1       7.728  -1.704  22.510  0.00  0.00    +0.147 C 
ATOM      2  C   UNL     1       7.332  -3.109  23.153  0.00  0.00    +0.057 C 
ATOM      3  C   UNL     1       8.404  -3.728  24.092  0.00  0.00    +0.042 C 
ATOM      4  C   UNL     1       8.213  -5.231  24.335  0.00  0.00    +0.083 C 
ATOM      5  N   UNL     1       8.103  -6.037  23.135  0.00  0.00    -0.316 NA
ATOM      6  H   UNL     1       9.009  -6.310  22.760  0.00  0.00    +0.122 HD
ATOM      7  C   UNL     1       7.204  -5.542  22.115  0.00  0.00    +0.083 C 
ATOM      8  C   UNL     1       7.139  -4.034  21.920  0.00  0.00    +0.042 C 
ATOM      9  N   UNL     1       6.057  -3.004  23.939  0.00  0.00    -0.303 N 
ATOM     10  H   UNL     1       5.644  -3.861  24.291  0.00  0.00    +0.150 HD
ATOM     11  C   UNL     1       5.679  -1.904  24.697  0.00  0.00    +0.261 C 
ATOM     12  O   UNL     1       4.859  -2.038  25.601  0.00  0.00    -0.269 OA
ATOM     13  C   UNL     1       6.245  -0.645  24.264  0.00  0.00    +0.110 A 
ATOM     14  N   UNL     1       5.968   0.641  24.694  0.00  0.00    -0.339 N 
ATOM     15  C   UNL     1       6.487   1.564  23.794  0.00  0.00    +0.051 A 
ATOM     16  C   UNL     1       7.216   0.848  22.845  0.00  0.00    +0.005 A 
ATOM     17  C   UNL     1       7.802   1.533  21.762  0.00  0.00    +0.012 A 
ATOM     18  C   UNL     1       7.649   2.918  21.656  0.00  0.00    +0.021 A 
ATOM     19  C   UNL     1       6.947   3.619  22.628  0.00  0.00    +0.043 A 
ATOM     20 CL   UNL     1       6.782   5.327  22.480  0.00  0.00    -0.083 Cl
ATOM     21  C   UNL     1       6.356   2.964  23.716  0.00  0.00    +0.046 A 
ATOM     22  C   UNL     1       5.182   1.039  25.846  0.00  0.00    +0.149 C 
ATOM     23  C   UNL     1       7.152  -0.526  23.226  0.00  0.00    +0.009 A 
ENDROOT
BRANCH   1  24
ATOM     24  C   UNL     1       9.182  -1.545  22.324  0.00  0.00    +0.073 C 
ATOM     25  N   UNL     1      10.335  -1.451  22.182  0.00  0.00    -0.196 NA
ENDBRANCH   1  24
TORSDOF 1
ENDMDL
MODEL 9
REMARK VINA RESULT:      -6.4      5.330      7.492
REMARK  Name = 
REMARK  2 active torsions:
REMARK  status: ('A' for Active; 'I' for Inactive)
REMARK    1  A    between atoms: C_2  and  C_3
REMARK    2  A    between atoms: N_7  and  C_8
REMARK                            x       y       z     vdW  Elec       q    Type
REMARK                         _______ _______ _______ _____ _____    ______ ____
ROOT
ATOM      1  C   UNL     1       8.274   1.258  24.713  0.00  0.00    +0.147 C 
ATOM      2  C   UNL     1       9.266   0.715  23.589  0.00  0.00    +0.057 C 
ATOM      3  C   UNL     1       8.630   0.530  22.184  0.00  0.00    +0.042 C 
ATOM      4  C   UNL     1       9.442  -0.385  21.259  0.00  0.00    +0.083 C 
ATOM      5  N   UNL     1       9.768  -1.685  21.813  0.00  0.00    -0.316 NA
ATOM      6  H   UNL     1       9.025  -2.368  21.678  0.00  0.00    +0.122 HD
ATOM      7  C   UNL     1      10.290  -1.689  23.162  0.00  0.00    +0.083 C 
ATOM      8  C   UNL     1       9.713  -0.669  24.134  0.00  0.00    +0.042 C 
ATOM      9  N   UNL     1      10.449   1.626  23.428  0.00  0.00    -0.303 N 
ATOM     10  H   UNL     1      11.207   1.318  22.828  0.00  0.00    +0.150 HD
ATOM     11  C   UNL     1      10.407   3.009  23.530  0.00  0.00    +0.261 C 
ATOM     12  O   UNL     1      11.286   3.688  23.007  0.00  0.00    -0.269 OA
ATOM     13  C   UNL     1       9.339   3.524  24.359  0.00  0.00    +0.110 A 
ATOM     14  N   UNL     1       9.099   4.818  24.787  0.00  0.00    -0.339 N 
ATOM     15  C   UNL     1       8.170   4.812  25.821  0.00  0.00    +0.051 A 
ATOM     16  C   UNL     1       7.719   3.500  25.959  0.00  0.00    +0.005 A 
ATOM     17  C   UNL     1       6.810   3.186  26.991  0.00  0.00    +0.012 A 
ATOM     18  C   UNL     1       6.372   4.194  27.854  0.00  0.00    +0.021 A 
ATOM     19  C   UNL     1       6.806   5.501  27.680  0.00  0.00    +0.043 A 
ATOM     20 CL   UNL     1       6.241   6.726  28.752  0.00  0.00    -0.083 Cl
ATOM     21  C   UNL     1       7.707   5.841  26.662  0.00  0.00    +0.046 A 
ATOM     22  C   UNL     1       9.750   6.033  24.337  0.00  0.00    +0.149 C 
ATOM     23  C   UNL     1       8.375   2.729  24.954  0.00  0.00    +0.009 A 
ENDROOT
BRANCH   1  24
ATOM     24  C   UNL     1       6.872   0.860  24.485  0.00  0.00    +0.073 C 
ATOM     25  N   UNL     1       5.755   0.577  24.309  0.00  0.00    -0.196 NA
ENDBRANCH   1  24
TORSDOF 1
ENDMDL
