MODEL 1
REMARK VINA RESULT:      -7.8      0.000      0.000
REMARK  Name = 
REMARK  6 active torsions:
REMARK  status: ('A' for Active; 'I' for Inactive)
REMARK    1  A    between atoms: C_1  and  C_2
REMARK    2  A    between atoms: C_2  and  C_3
REMARK    3  A    between atoms: C_2  and  C_4
REMARK    4  A    between atoms: C_11  and  N_12
REMARK    5  A    between atoms: C_13  and  C_15
REMARK    6  A    between atoms: C_20  and  C_25
REMARK                            x       y       z     vdW  Elec       q    Type
REMARK                         _______ _______ _______ _____ _____    ______ ____
ROOT
ATOM      1  N   UNL     1       7.650  -1.702  23.227  0.00  0.00    -0.281 N 
ATOM      2  H   UNL     1       8.456  -1.866  22.639  0.00  0.00    +0.155 HD
ATOM      3  C   UNL     1       7.397  -0.399  23.632  0.00  0.00    +0.248 C 
ATOM      4  O   UNL     1       6.344   0.008  24.113  0.00  0.00    -0.270 OA
ENDROOT
BRANCH   1   8
ATOM      5  C   UNL     1       5.738  -5.423  25.997  0.00  0.00    +0.046 C 
ATOM      6  C   UNL     1       5.829  -4.619  24.742  0.00  0.00    +0.001 A 
ATOM      7  C   UNL     1       6.743  -3.571  24.570  0.00  0.00    +0.033 A 
ATOM      8  C   UNL     1       6.761  -2.791  23.407  0.00  0.00    +0.034 A 
ATOM      9  C   UNL     1       5.875  -3.101  22.377  0.00  0.00    +0.023 A 
ATOM     10  C   UNL     1       4.970  -4.155  22.528  0.00  0.00    +0.006 A 
ATOM     11  C   UNL     1       4.944  -4.920  23.706  0.00  0.00    -0.037 A 
ATOM     12  C   UNL     1       3.955  -6.037  23.830  0.00  0.00    +0.059 C 
ATOM     13  C   UNL     1       4.046  -6.885  25.091  0.00  0.00    +0.146 C 
ATOM     14  N   UNL     1       4.935  -6.418  26.141  0.00  0.00    -0.287 NA
BRANCH   5  16
ATOM     15  C   UNL     1       6.084  -5.815  28.457  0.00  0.00    +0.014 C 
ATOM     16  C   UNL     1       6.616  -5.088  27.221  0.00  0.00    +0.032 C 
ATOM     17  C   UNL     1       8.067  -5.477  26.942  0.00  0.00    +0.014 C 
ENDBRANCH   5  16
ENDBRANCH   1   8
BRANCH   3  18
ATOM     18  C   UNL     1       8.478   0.603  23.429  0.00  0.00    +0.038 A 
ATOM     19  C   UNL     1       8.230   1.906  23.892  0.00  0.00    +0.021 A 
ATOM     20  C   UNL     1       9.224   2.891  23.860  0.00  0.00    -0.017 A 
ATOM     21  C   UNL     1      10.491   2.572  23.326  0.00  0.00    -0.017 A 
ATOM     22  C   UNL     1      11.492   3.560  23.319  0.00  0.00    +0.024 A 
ATOM     23  C   UNL     1      11.246   4.835  23.850  0.00  0.00    +0.065 A 
ATOM     24  C   UNL     1       9.988   5.141  24.374  0.00  0.00    +0.016 A 
ATOM     25  C   UNL     1      10.726   1.270  22.844  0.00  0.00    +0.009 A 
ATOM     26  C   UNL     1       8.982   4.174  24.373  0.00  0.00    +0.009 A 
ATOM     27  C   UNL     1       9.731   0.286  22.902  0.00  0.00    +0.013 A 
BRANCH  23  28
ATOM     28  C   UNL     1      12.331   5.853  23.840  0.00  0.00    +0.308 C 
ATOM     29  N   UNL     1      12.567   6.646  24.836  0.00  0.00    -0.099 NA
ATOM     30  H   UNL     1      11.955   6.444  25.632  0.00  0.00    +0.363 HD
ATOM     31  N   UNL     1      13.134   5.989  22.747  0.00  0.00    -0.247 N 
ATOM     32  H   UNL     1      13.674   6.847  22.804  0.00  0.00    +0.288 HD
ATOM     33  H   UNL     1      12.683   5.873  21.848  0.00  0.00    +0.288 HD
ENDBRANCH  23  28
ENDBRANCH   3  18
TORSDOF 4
ENDMDL
MODEL 2
REMARK VINA RESULT:      -7.8      1.730     10.265
REMARK  Name = 
REMARK  6 active torsions:
REMARK  status: ('A' for Active; 'I' for Inactive)
REMARK    1  A    between atoms: C_1  and  C_2
REMARK    2  A    between atoms: C_2  and  C_3
REMARK    3  A    between atoms: C_2  and  C_4
REMARK    4  A    between atoms: C_11  and  N_12
REMARK    5  A    between atoms: C_13  and  C_15
REMARK    6  A    between atoms: C_20  and  C_25
REMARK                            x       y       z     vdW  Elec       q    Type
REMARK                         _______ _______ _______ _____ _____    ______ ____
ROOT
ATOM      1  N   UNL     1       8.193  -0.072  23.519  0.00  0.00    -0.281 N 
ATOM      2  H   UNL     1       7.385  -0.092  24.127  0.00  0.00    +0.155 HD
ATOM      3  C   UNL     1       8.345  -1.104  22.605  0.00  0.00    +0.248 C 
ATOM      4  O   UNL     1       9.101  -1.097  21.639  0.00  0.00    -0.270 OA
ENDROOT
BRANCH   1   8
ATOM      5  C   UNL     1       8.633   4.926  23.399  0.00  0.00    +0.046 C 
ATOM      6  C   UNL     1       9.204   3.548  23.470  0.00  0.00    +0.001 A 
ATOM      7  C   UNL     1       8.417   2.390  23.406  0.00  0.00    +0.033 A 
ATOM      8  C   UNL     1       8.974   1.112  23.540  0.00  0.00    +0.034 A 
ATOM      9  C   UNL     1      10.354   0.992  23.693  0.00  0.00    +0.023 A 
ATOM     10  C   UNL     1      11.152   2.138  23.740  0.00  0.00    +0.006 A 
ATOM     11  C   UNL     1      10.585   3.418  23.624  0.00  0.00    -0.037 A 
ATOM     12  C   UNL     1      11.475   4.620  23.685  0.00  0.00    +0.059 C 
ATOM     13  C   UNL     1      10.807   5.969  23.458  0.00  0.00    +0.146 C 
ATOM     14  N   UNL     1       9.355   5.990  23.407  0.00  0.00    -0.287 NA
BRANCH   5  16
ATOM     15  C   UNL     1       6.581   5.591  24.691  0.00  0.00    +0.014 C 
ATOM     16  C   UNL     1       7.109   5.151  23.324  0.00  0.00    +0.032 C 
ATOM     17  C   UNL     1       6.788   6.194  22.255  0.00  0.00    +0.014 C 
ENDBRANCH   5  16
ENDBRANCH   1   8
BRANCH   3  18
ATOM     18  C   UNL     1       7.485  -2.306  22.781  0.00  0.00    +0.038 A 
ATOM     19  C   UNL     1       7.571  -2.971  24.015  0.00  0.00    +0.021 A 
ATOM     20  C   UNL     1       6.719  -4.037  24.328  0.00  0.00    -0.017 A 
ATOM     21  C   UNL     1       5.774  -4.466  23.371  0.00  0.00    -0.017 A 
ATOM     22  C   UNL     1       4.906  -5.521  23.702  0.00  0.00    +0.024 A 
ATOM     23  C   UNL     1       4.961  -6.127  24.966  0.00  0.00    +0.065 A 
ATOM     24  C   UNL     1       5.901  -5.697  25.905  0.00  0.00    +0.016 A 
ATOM     25  C   UNL     1       5.708  -3.808  22.128  0.00  0.00    +0.009 A 
ATOM     26  C   UNL     1       6.778  -4.660  25.583  0.00  0.00    +0.009 A 
ATOM     27  C   UNL     1       6.550  -2.728  21.834  0.00  0.00    +0.013 A 
BRANCH  23  28
ATOM     28  C   UNL     1       4.018  -7.232  25.289  0.00  0.00    +0.308 C 
ATOM     29  N   UNL     1       3.488  -7.996  24.388  0.00  0.00    -0.099 NA
ATOM     30  H   UNL     1       3.840  -7.776  23.452  0.00  0.00    +0.363 HD
ATOM     31  N   UNL     1       3.669  -7.479  26.583  0.00  0.00    -0.247 N 
ATOM     32  H   UNL     1       2.872  -8.108  26.625  0.00  0.00    +0.288 HD
ATOM     33  H   UNL     1       3.554  -6.666  27.175  0.00  0.00    +0.288 HD
ENDBRANCH  23  28
ENDBRANCH   3  18
TORSDOF 4
ENDMDL
MODEL 3
REMARK VINA RESULT:      -7.8      1.744     10.215
REMARK  Name = 
REMARK  6 active torsions:
REMARK  status: ('A' for Active; 'I' for Inactive)
REMARK    1  A    between atoms: C_1  and  C_2
REMARK    2  A    between atoms: C_2  and  C_3
REMARK    3  A    between atoms: C_2  and  C_4
REMARK    4  A    between atoms: C_11  and  N_12
REMARK    5  A    between atoms: C_13  and  C_15
REMARK    6  A    between atoms: C_20  and  C_25
REMARK                            x       y       z     vdW  Elec       q    Type
REMARK                         _______ _______ _______ _____ _____    ______ ____
ROOT
ATOM      1  N   UNL     1       7.804  -0.551  22.941  0.00  0.00    -0.281 N 
ATOM      2  H   UNL     1       7.157  -0.609  22.166  0.00  0.00    +0.155 HD
ATOM      3  C   UNL     1       8.034  -1.700  23.683  0.00  0.00    +0.248 C 
ATOM      4  O   UNL     1       8.962  -1.870  24.468  0.00  0.00    -0.270 OA
ENDROOT
BRANCH   1   8
ATOM      5  C   UNL     1       8.477   4.062  24.798  0.00  0.00    +0.046 C 
ATOM      6  C   UNL     1       8.884   2.906  23.945  0.00  0.00    +0.001 A 
ATOM      7  C   UNL     1       8.112   1.745  23.812  0.00  0.00    +0.033 A 
ATOM      8  C   UNL     1       8.550   0.649  23.057  0.00  0.00    +0.034 A 
ATOM      9  C   UNL     1       9.767   0.741  22.384  0.00  0.00    +0.023 A 
ATOM     10  C   UNL     1      10.538   1.901  22.493  0.00  0.00    +0.006 A 
ATOM     11  C   UNL     1      10.101   2.988  23.268  0.00  0.00    -0.037 A 
ATOM     12  C   UNL     1      10.962   4.210  23.364  0.00  0.00    +0.059 C 
ATOM     13  C   UNL     1      10.385   5.385  24.141  0.00  0.00    +0.146 C 
ATOM     14  N   UNL     1       9.158   5.150  24.884  0.00  0.00    -0.287 NA
BRANCH   5  16
ATOM     15  C   UNL     1       7.399   4.782  26.953  0.00  0.00    +0.014 C 
ATOM     16  C   UNL     1       7.193   4.006  25.651  0.00  0.00    +0.032 C 
ATOM     17  C   UNL     1       6.016   4.576  24.859  0.00  0.00    +0.014 C 
ENDBRANCH   5  16
ENDBRANCH   1   8
BRANCH   3  18
ATOM     18  C   UNL     1       7.102  -2.843  23.481  0.00  0.00    +0.038 A 
ATOM     19  C   UNL     1       6.926  -3.717  24.567  0.00  0.00    +0.021 A 
ATOM     20  C   UNL     1       5.982  -4.750  24.524  0.00  0.00    -0.017 A 
ATOM     21  C   UNL     1       5.214  -4.930  23.354  0.00  0.00    -0.017 A 
ATOM     22  C   UNL     1       4.251  -5.955  23.327  0.00  0.00    +0.024 A 
ATOM     23  C   UNL     1       4.042  -6.773  24.447  0.00  0.00    +0.065 A 
ATOM     24  C   UNL     1       4.809  -6.588  25.599  0.00  0.00    +0.016 A 
ATOM     25  C   UNL     1       5.411  -4.064  22.262  0.00  0.00    +0.009 A 
ATOM     26  C   UNL     1       5.778  -5.584  25.633  0.00  0.00    +0.009 A 
ATOM     27  C   UNL     1       6.341  -3.019  22.324  0.00  0.00    +0.013 A 
BRANCH  23  28
ATOM     28  C   UNL     1       3.005  -7.839  24.390  0.00  0.00    +0.308 C 
ATOM     29  N   UNL     1       2.808  -8.687  25.349  0.00  0.00    -0.099 NA
ATOM     30  H   UNL     1       3.411  -8.493  26.153  0.00  0.00    +0.363 HD
ATOM     31  N   UNL     1       2.209  -7.964  23.291  0.00  0.00    -0.247 N 
ATOM     32  H   UNL     1       1.710  -8.848  23.309  0.00  0.00    +0.288 HD
ATOM     33  H   UNL     1       2.653  -7.787  22.399  0.00  0.00    +0.288 HD
ENDBRANCH  23  28
ENDBRANCH   3  18
TORSDOF 4
ENDMDL
MODEL 4
REMARK VINA RESULT:      -7.7      1.957     10.229
REMARK  Name = 
REMARK  6 active torsions:
REMARK  status: ('A' for Active; 'I' for Inactive)
REMARK    1  A    between atoms: C_1  and  C_2
REMARK    2  A    between atoms: C_2  and  C_3
REMARK    3  A    between atoms: C_2  and  C_4
REMARK    4  A    between atoms: C_11  and  N_12
REMARK    5  A    between atoms: C_13  and  C_15
REMARK    6  A    between atoms: C_20  and  C_25
REMARK                            x       y       z     vdW  Elec       q    Type
REMARK                         _______ _______ _______ _____ _____    ______ ____
ROOT
ATOM      1  N   UNL     1       7.839  -1.373  24.311  0.00  0.00    -0.281 N 
ATOM      2  H   UNL     1       7.337  -1.742  23.515  0.00  0.00    +0.155 HD
ATOM      3  C   UNL     1       7.912  -2.158  25.453  0.00  0.00    +0.248 C 
ATOM      4  O   UNL     1       8.683  -1.984  26.391  0.00  0.00    -0.270 OA
ENDROOT
BRANCH   1   8
ATOM      5  C   UNL     1       8.444   3.583  24.816  0.00  0.00    +0.046 C 
ATOM      6  C   UNL     1       8.877   2.239  24.330  0.00  0.00    +0.001 A 
ATOM      7  C   UNL     1       8.114   1.078  24.512  0.00  0.00    +0.033 A 
ATOM      8  C   UNL     1       8.575  -0.180  24.102  0.00  0.00    +0.034 A 
ATOM      9  C   UNL     1       9.806  -0.266  23.454  0.00  0.00    +0.023 A 
ATOM     10  C   UNL     1      10.569   0.887  23.250  0.00  0.00    +0.006 A 
ATOM     11  C   UNL     1      10.109   2.142  23.681  0.00  0.00    -0.037 A 
ATOM     12  C   UNL     1      10.960   3.352  23.448  0.00  0.00    +0.059 C 
ATOM     13  C   UNL     1      10.360   4.690  23.854  0.00  0.00    +0.146 C 
ATOM     14  N   UNL     1       9.118   4.659  24.608  0.00  0.00    -0.287 NA
BRANCH   5  16
ATOM     15  C   UNL     1       7.359   4.763  26.753  0.00  0.00    +0.014 C 
ATOM     16  C   UNL     1       7.142   3.753  25.625  0.00  0.00    +0.032 C 
ATOM     17  C   UNL     1       6.011   4.203  24.701  0.00  0.00    +0.014 C 
ENDBRANCH   5  16
ENDBRANCH   1   8
BRANCH   3  18
ATOM     18  C   UNL     1       7.009  -3.338  25.531  0.00  0.00    +0.038 A 
ATOM     19  C   UNL     1       5.945  -3.384  24.616  0.00  0.00    +0.021 A 
ATOM     20  C   UNL     1       5.111  -4.505  24.524  0.00  0.00    -0.017 A 
ATOM     21  C   UNL     1       5.332  -5.598  25.388  0.00  0.00    -0.017 A 
ATOM     22  C   UNL     1       4.506  -6.730  25.274  0.00  0.00    +0.024 A 
ATOM     23  C   UNL     1       3.492  -6.784  24.306  0.00  0.00    +0.065 A 
ATOM     24  C   UNL     1       3.281  -5.696  23.456  0.00  0.00    +0.016 A 
ATOM     25  C   UNL     1       6.387  -5.536  26.319  0.00  0.00    +0.009 A 
ATOM     26  C   UNL     1       4.085  -4.561  23.570  0.00  0.00    +0.009 A 
ATOM     27  C   UNL     1       7.229  -4.420  26.387  0.00  0.00    +0.013 A 
BRANCH  23  28
ATOM     28  C   UNL     1       2.645  -8.003  24.201  0.00  0.00    +0.308 C 
ATOM     29  N   UNL     1       2.595  -8.911  25.123  0.00  0.00    -0.099 NA
ATOM     30  H   UNL     1       3.161  -8.654  25.937  0.00  0.00    +0.363 HD
ATOM     31  N   UNL     1       1.875  -8.211  23.096  0.00  0.00    -0.247 N 
ATOM     32  H   UNL     1       1.528  -9.165  23.076  0.00  0.00    +0.288 HD
ATOM     33  H   UNL     1       2.280  -7.925  22.214  0.00  0.00    +0.288 HD
ENDBRANCH  23  28
ENDBRANCH   3  18
TORSDOF 4
ENDMDL
MODEL 5
REMARK VINA RESULT:      -7.6      2.084     10.247
REMARK  Name = 
REMARK  6 active torsions:
REMARK  status: ('A' for Active; 'I' for Inactive)
REMARK    1  A    between atoms: C_1  and  C_2
REMARK    2  A    between atoms: C_2  and  C_3
REMARK    3  A    between atoms: C_2  and  C_4
REMARK    4  A    between atoms: C_11  and  N_12
REMARK    5  A    between atoms: C_13  and  C_15
REMARK    6  A    between atoms: C_20  and  C_25
REMARK                            x       y       z     vdW  Elec       q    Type
REMARK                         _______ _______ _______ _____ _____    ______ ____
ROOT
ATOM      1  N   UNL     1       8.400  -0.661  24.039  0.00  0.00    -0.281 N 
ATOM      2  H   UNL     1       7.850  -0.788  24.878  0.00  0.00    +0.155 HD
ATOM      3  C   UNL     1       8.264  -1.600  23.026  0.00  0.00    +0.248 C 
ATOM      4  O   UNL     1       8.644  -1.461  21.868  0.00  0.00    -0.270 OA
ENDROOT
BRANCH   1   8
ATOM      5  C   UNL     1       8.512   4.349  23.795  0.00  0.00    +0.046 C 
ATOM      6  C   UNL     1       9.169   3.008  23.783  0.00  0.00    +0.001 A 
ATOM      7  C   UNL     1       8.454   1.806  23.865  0.00  0.00    +0.033 A 
ATOM      8  C   UNL     1       9.101   0.565  23.916  0.00  0.00    +0.034 A 
ATOM      9  C   UNL     1      10.492   0.528  23.837  0.00  0.00    +0.023 A 
ATOM     10  C   UNL     1      11.216   1.718  23.738  0.00  0.00    +0.006 A 
ATOM     11  C   UNL     1      10.562   2.961  23.705  0.00  0.00    -0.037 A 
ATOM     12  C   UNL     1      11.376   4.214  23.604  0.00  0.00    +0.059 C 
ATOM     13  C   UNL     1      10.600   5.517  23.478  0.00  0.00    +0.146 C 
ATOM     14  N   UNL     1       9.161   5.453  23.671  0.00  0.00    -0.287 NA
BRANCH   5  16
ATOM     15  C   UNL     1       6.670   5.713  24.830  0.00  0.00    +0.014 C 
ATOM     16  C   UNL     1       6.986   4.485  23.975  0.00  0.00    +0.032 C 
ATOM     17  C   UNL     1       6.308   4.583  22.609  0.00  0.00    +0.014 C 
ENDBRANCH   5  16
ENDBRANCH   1   8
BRANCH   3  18
ATOM     18  C   UNL     1       7.557  -2.867  23.357  0.00  0.00    +0.038 A 
ATOM     19  C   UNL     1       6.170  -2.784  23.562  0.00  0.00    +0.021 A 
ATOM     20  C   UNL     1       5.393  -3.933  23.758  0.00  0.00    -0.017 A 
ATOM     21  C   UNL     1       6.025  -5.195  23.776  0.00  0.00    -0.017 A 
ATOM     22  C   UNL     1       5.236  -6.345  23.950  0.00  0.00    +0.024 A 
ATOM     23  C   UNL     1       3.843  -6.247  24.083  0.00  0.00    +0.065 A 
ATOM     24  C   UNL     1       3.228  -4.993  24.066  0.00  0.00    +0.016 A 
ATOM     25  C   UNL     1       7.419  -5.268  23.592  0.00  0.00    +0.009 A 
ATOM     26  C   UNL     1       4.002  -3.843  23.909  0.00  0.00    +0.009 A 
ATOM     27  C   UNL     1       8.183  -4.115  23.374  0.00  0.00    +0.013 A 
BRANCH  23  28
ATOM     28  C   UNL     1       3.035  -7.485  24.251  0.00  0.00    +0.308 C 
ATOM     29  N   UNL     1       3.076  -8.218  25.318  0.00  0.00    -0.099 NA
ATOM     30  H   UNL     1       3.682  -7.808  26.034  0.00  0.00    +0.363 HD
ATOM     31  N   UNL     1       2.205  -7.903  23.254  0.00  0.00    -0.247 N 
ATOM     32  H   UNL     1       1.892  -8.854  23.424  0.00  0.00    +0.288 HD
ATOM     33  H   UNL     1       2.543  -7.768  22.310  0.00  0.00    +0.288 HD
ENDBRANCH  23  28
ENDBRANCH   3  18
TORSDOF 4
ENDMDL
MODEL 6
REMARK VINA RESULT:      -7.3      1.081      1.821
REMARK  Name = 
REMARK  6 active torsions:
REMARK  status: ('A' for Active; 'I' for Inactive)
REMARK    1  A    between atoms: C_1  and  C_2
REMARK    2  A    between atoms: C_2  and  C_3
REMARK    3  A    between atoms: C_2  and  C_4
REMARK    4  A    between atoms: C_11  and  N_12
REMARK    5  A    between atoms: C_13  and  C_15
REMARK    6  A    between atoms: C_20  and  C_25
REMARK                            x       y       z     vdW  Elec       q    Type
REMARK                         _______ _______ _______ _____ _____    ______ ____
ROOT
ATOM      1  N   UNL     1       6.735  -1.315  24.110  0.00  0.00    -0.281 N 
ATOM      2  H   UNL     1       7.553  -1.220  23.523  0.00  0.00    +0.155 HD
ATOM      3  C   UNL     1       6.211  -0.166  24.685  0.00  0.00    +0.248 C 
ATOM      4  O   UNL     1       5.100  -0.064  25.194  0.00  0.00    -0.270 OA
ENDROOT
BRANCH   1   8
ATOM      5  C   UNL     1       5.240  -5.481  26.474  0.00  0.00    +0.046 C 
ATOM      6  C   UNL     1       5.379  -4.627  25.257  0.00  0.00    +0.001 A 
ATOM      7  C   UNL     1       6.044  -3.394  25.261  0.00  0.00    +0.033 A 
ATOM      8  C   UNL     1       6.103  -2.584  24.119  0.00  0.00    +0.034 A 
ATOM      9  C   UNL     1       5.522  -3.043  22.939  0.00  0.00    +0.023 A 
ATOM     10  C   UNL     1       4.872  -4.279  22.916  0.00  0.00    +0.006 A 
ATOM     11  C   UNL     1       4.800  -5.078  24.070  0.00  0.00    -0.037 A 
ATOM     12  C   UNL     1       4.088  -6.394  24.005  0.00  0.00    +0.059 C 
ATOM     13  C   UNL     1       4.131  -7.249  25.264  0.00  0.00    +0.146 C 
ATOM     14  N   UNL     1       4.674  -6.636  26.464  0.00  0.00    -0.287 NA
BRANCH   5  16
ATOM     15  C   UNL     1       4.702  -4.173  28.553  0.00  0.00    +0.014 C 
ATOM     16  C   UNL     1       5.770  -5.006  27.842  0.00  0.00    +0.032 C 
ATOM     17  C   UNL     1       6.174  -6.211  28.691  0.00  0.00    +0.014 C 
ENDBRANCH   5  16
ENDBRANCH   1   8
BRANCH   3  18
ATOM     18  C   UNL     1       7.050   1.063  24.645  0.00  0.00    +0.038 A 
ATOM     19  C   UNL     1       8.401   0.897  24.297  0.00  0.00    +0.021 A 
ATOM     20  C   UNL     1       9.245   1.999  24.111  0.00  0.00    -0.017 A 
ATOM     21  C   UNL     1       8.731   3.299  24.304  0.00  0.00    -0.017 A 
ATOM     22  C   UNL     1       9.579   4.400  24.092  0.00  0.00    +0.024 A 
ATOM     23  C   UNL     1      10.906   4.216  23.677  0.00  0.00    +0.065 A 
ATOM     24  C   UNL     1      11.405   2.925  23.490  0.00  0.00    +0.016 A 
ATOM     25  C   UNL     1       7.382   3.457  24.674  0.00  0.00    +0.009 A 
ATOM     26  C   UNL     1      10.578   1.824  23.712  0.00  0.00    +0.009 A 
ATOM     27  C   UNL     1       6.540   2.349  24.835  0.00  0.00    +0.013 A 
BRANCH  23  28
ATOM     28  C   UNL     1      11.772   5.404  23.448  0.00  0.00    +0.308 C 
ATOM     29  N   UNL     1      11.936   6.341  24.327  0.00  0.00    -0.099 NA
ATOM     30  H   UNL     1      11.444   6.129  25.200  0.00  0.00    +0.363 HD
ATOM     31  N   UNL     1      12.437   5.551  22.267  0.00  0.00    -0.247 N 
ATOM     32  H   UNL     1      12.806   6.493  22.179  0.00  0.00    +0.288 HD
ATOM     33  H   UNL     1      11.941   5.248  21.439  0.00  0.00    +0.288 HD
ENDBRANCH  23  28
ENDBRANCH   3  18
TORSDOF 4
ENDMDL
MODEL 7
REMARK VINA RESULT:      -7.2      1.632      2.281
REMARK  Name = 
REMARK  6 active torsions:
REMARK  status: ('A' for Active; 'I' for Inactive)
REMARK    1  A    between atoms: C_1  and  C_2
REMARK    2  A    between atoms: C_2  and  C_3
REMARK    3  A    between atoms: C_2  and  C_4
REMARK    4  A    between atoms: C_11  and  N_12
REMARK    5  A    between atoms: C_13  and  C_15
REMARK    6  A    between atoms: C_20  and  C_25
REMARK                            x       y       z     vdW  Elec       q    Type
REMARK                         _______ _______ _______ _____ _____    ______ ____
ROOT
ATOM      1  N   UNL     1       7.254  -1.278  23.824  0.00  0.00    -0.281 N 
ATOM      2  H   UNL     1       8.130  -1.619  23.450  0.00  0.00    +0.155 HD
ATOM      3  C   UNL     1       7.054   0.095  23.856  0.00  0.00    +0.248 C 
ATOM      4  O   UNL     1       5.976   0.656  24.025  0.00  0.00    -0.270 OA
ENDROOT
BRANCH   1   8
ATOM      5  C   UNL     1       5.238  -5.827  23.175  0.00  0.00    +0.046 C 
ATOM      6  C   UNL     1       5.253  -4.458  23.773  0.00  0.00    +0.001 A 
ATOM      7  C   UNL     1       6.228  -3.500  23.465  0.00  0.00    +0.033 A 
ATOM      8  C   UNL     1       6.255  -2.247  24.090  0.00  0.00    +0.034 A 
ATOM      9  C   UNL     1       5.255  -1.933  25.008  0.00  0.00    +0.023 A 
ATOM     10  C   UNL     1       4.265  -2.872  25.311  0.00  0.00    +0.006 A 
ATOM     11  C   UNL     1       4.256  -4.134  24.694  0.00  0.00    -0.037 A 
ATOM     12  C   UNL     1       3.182  -5.114  25.052  0.00  0.00    +0.059 C 
ATOM     13  C   UNL     1       3.176  -6.425  24.277  0.00  0.00    +0.146 C 
ATOM     14  N   UNL     1       4.317  -6.692  23.417  0.00  0.00    -0.287 NA
BRANCH   5  16
ATOM     15  C   UNL     1       6.137  -5.698  20.831  0.00  0.00    +0.014 C 
ATOM     16  C   UNL     1       6.359  -6.290  22.223  0.00  0.00    +0.032 C 
ATOM     17  C   UNL     1       7.720  -5.874  22.781  0.00  0.00    +0.014 C 
ENDBRANCH   5  16
ENDBRANCH   1   8
BRANCH   3  18
ATOM     18  C   UNL     1       8.239   0.965  23.624  0.00  0.00    +0.038 A 
ATOM     19  C   UNL     1       8.080   2.336  23.885  0.00  0.00    +0.021 A 
ATOM     20  C   UNL     1       9.163   3.220  23.816  0.00  0.00    -0.017 A 
ATOM     21  C   UNL     1      10.433   2.725  23.450  0.00  0.00    -0.017 A 
ATOM     22  C   UNL     1      11.520   3.615  23.406  0.00  0.00    +0.024 A 
ATOM     23  C   UNL     1      11.355   4.968  23.738  0.00  0.00    +0.065 A 
ATOM     24  C   UNL     1      10.094   5.449  24.097  0.00  0.00    +0.016 A 
ATOM     25  C   UNL     1      10.580   1.353  23.169  0.00  0.00    +0.009 A 
ATOM     26  C   UNL     1       9.004   4.578  24.129  0.00  0.00    +0.009 A 
ATOM     27  C   UNL     1       9.495   0.473  23.263  0.00  0.00    +0.013 A 
BRANCH  23  28
ATOM     28  C   UNL     1      12.529   5.880  23.695  0.00  0.00    +0.308 C 
ATOM     29  N   UNL     1      12.809   6.719  24.641  0.00  0.00    -0.099 NA
ATOM     30  H   UNL     1      12.159   6.632  25.427  0.00  0.00    +0.363 HD
ATOM     31  N   UNL     1      13.372   5.864  22.623  0.00  0.00    -0.247 N 
ATOM     32  H   UNL     1      13.988   6.672  22.640  0.00  0.00    +0.288 HD
ATOM     33  H   UNL     1      12.938   5.725  21.720  0.00  0.00    +0.288 HD
ENDBRANCH  23  28
ENDBRANCH   3  18
TORSDOF 4
ENDMDL
MODEL 8
REMARK VINA RESULT:      -6.9      1.536      3.001
REMARK  Name = 
REMARK  6 active torsions:
REMARK  status: ('A' for Active; 'I' for Inactive)
REMARK    1  A    between atoms: C_1  and  C_2
REMARK    2  A    between atoms: C_2  and  C_3
REMARK    3  A    between atoms: C_2  and  C_4
REMARK    4  A    between atoms: C_11  and  N_12
REMARK    5  A    between atoms: C_13  and  C_15
REMARK    6  A    between atoms: C_20  and  C_25
REMARK                            x       y       z     vdW  Elec       q    Type
REMARK                         _______ _______ _______ _____ _____    ______ ____
ROOT
ATOM      1  N   UNL     1       7.029  -1.071  25.470  0.00  0.00    -0.281 N 
ATOM      2  H   UNL     1       8.037  -1.119  25.398  0.00  0.00    +0.155 HD
ATOM      3  C   UNL     1       6.414   0.138  25.178  0.00  0.00    +0.248 C 
ATOM      4  O   UNL     1       5.217   0.296  24.963  0.00  0.00    -0.270 OA
ENDROOT
BRANCH   1   8
ATOM      5  C   UNL     1       5.509  -5.585  23.891  0.00  0.00    +0.046 C 
ATOM      6  C   UNL     1       5.588  -4.496  24.910  0.00  0.00    +0.001 A 
ATOM      7  C   UNL     1       6.232  -3.275  24.675  0.00  0.00    +0.033 A 
ATOM      8  C   UNL     1       6.347  -2.297  25.672  0.00  0.00    +0.034 A 
ATOM      9  C   UNL     1       5.762  -2.533  26.915  0.00  0.00    +0.023 A 
ATOM     10  C   UNL     1       5.101  -3.740  27.157  0.00  0.00    +0.006 A 
ATOM     11  C   UNL     1       5.006  -4.723  26.158  0.00  0.00    -0.037 A 
ATOM     12  C   UNL     1       4.293  -6.005  26.460  0.00  0.00    +0.059 C 
ATOM     13  C   UNL     1       4.146  -6.986  25.305  0.00  0.00    +0.146 C 
ATOM     14  N   UNL     1       4.876  -6.687  24.084  0.00  0.00    -0.287 NA
BRANCH   5  16
ATOM     15  C   UNL     1       7.684  -5.831  22.654  0.00  0.00    +0.014 C 
ATOM     16  C   UNL     1       6.210  -5.445  22.524  0.00  0.00    +0.032 C 
ATOM     17  C   UNL     1       5.507  -6.320  21.487  0.00  0.00    +0.014 C 
ENDBRANCH   5  16
ENDBRANCH   1   8
BRANCH   3  18
ATOM     18  C   UNL     1       7.284   1.340  25.073  0.00  0.00    +0.038 A 
ATOM     19  C   UNL     1       8.567   1.150  24.534  0.00  0.00    +0.021 A 
ATOM     20  C   UNL     1       9.418   2.232  24.279  0.00  0.00    -0.017 A 
ATOM     21  C   UNL     1       8.984   3.537  24.597  0.00  0.00    -0.017 A 
ATOM     22  C   UNL     1       9.834   4.621  24.316  0.00  0.00    +0.024 A 
ATOM     23  C   UNL     1      11.084   4.416  23.712  0.00  0.00    +0.065 A 
ATOM     24  C   UNL     1      11.505   3.120  23.403  0.00  0.00    +0.016 A 
ATOM     25  C   UNL     1       7.706   3.719  25.157  0.00  0.00    +0.009 A 
ATOM     26  C   UNL     1      10.676   2.035  23.691  0.00  0.00    +0.009 A 
ATOM     27  C   UNL     1       6.853   2.631  25.387  0.00  0.00    +0.013 A 
BRANCH  23  28
ATOM     28  C   UNL     1      11.954   5.586  23.415  0.00  0.00    +0.308 C 
ATOM     29  N   UNL     1      12.421   5.839  22.235  0.00  0.00    -0.099 NA
ATOM     30  H   UNL     1      12.074   5.171  21.540  0.00  0.00    +0.363 HD
ATOM     31  N   UNL     1      12.300   6.453  24.408  0.00  0.00    -0.247 N 
ATOM     32  H   UNL     1      13.052   7.064  24.104  0.00  0.00    +0.288 HD
ATOM     33  H   UNL     1      12.476   6.041  25.316  0.00  0.00    +0.288 HD
ENDBRANCH  23  28
ENDBRANCH   3  18
TORSDOF 4
ENDMDL
MODEL 9
REMARK VINA RESULT:      -6.8      1.867      2.923
REMARK  Name = 
REMARK  6 active torsions:
REMARK  status: ('A' for Active; 'I' for Inactive)
REMARK    1  A    between atoms: C_1  and  C_2
REMARK    2  A    between atoms: C_2  and  C_3
REMARK    3  A    between atoms: C_2  and  C_4
REMARK    4  A    between atoms: C_11  and  N_12
REMARK    5  A    between atoms: C_13  and  C_15
REMARK    6  A    between atoms: C_20  and  C_25
REMARK                            x       y       z     vdW  Elec       q    Type
REMARK                         _______ _______ _______ _____ _____    ______ ____
ROOT
ATOM      1  N   UNL     1       7.893  -2.303  25.593  0.00  0.00    -0.281 N 
ATOM      2  H   UNL     1       8.800  -2.129  26.005  0.00  0.00    +0.155 HD
ATOM      3  C   UNL     1       7.568  -1.621  24.429  0.00  0.00    +0.248 C 
ATOM      4  O   UNL     1       6.645  -1.901  23.671  0.00  0.00    -0.270 OA
ENDROOT
BRANCH   1   8
ATOM      5  C   UNL     1       3.523  -4.570  26.562  0.00  0.00    +0.046 C 
ATOM      6  C   UNL     1       5.011  -4.478  26.635  0.00  0.00    +0.001 A 
ATOM      7  C   UNL     1       5.737  -3.396  26.119  0.00  0.00    +0.033 A 
ATOM      8  C   UNL     1       7.137  -3.368  26.144  0.00  0.00    +0.034 A 
ATOM      9  C   UNL     1       7.820  -4.426  26.741  0.00  0.00    +0.023 A 
ATOM     10  C   UNL     1       7.108  -5.502  27.276  0.00  0.00    +0.006 A 
ATOM     11  C   UNL     1       5.704  -5.533  27.230  0.00  0.00    -0.037 A 
ATOM     12  C   UNL     1       4.980  -6.709  27.809  0.00  0.00    +0.059 C 
ATOM     13  C   UNL     1       3.460  -6.633  27.811  0.00  0.00    +0.146 C 
ATOM     14  N   UNL     1       2.849  -5.537  27.078  0.00  0.00    -0.287 NA
BRANCH   5  16
ATOM     15  C   UNL     1       1.660  -4.152  24.925  0.00  0.00    +0.014 C 
ATOM     16  C   UNL     1       2.695  -3.490  25.835  0.00  0.00    +0.032 C 
ATOM     17  C   UNL     1       2.017  -2.578  26.857  0.00  0.00    +0.014 C 
ENDBRANCH   5  16
ENDBRANCH   1   8
BRANCH   3  18
ATOM     18  C   UNL     1       8.438  -0.478  24.040  0.00  0.00    +0.038 A 
ATOM     19  C   UNL     1       7.985   0.808  24.378  0.00  0.00    +0.021 A 
ATOM     20  C   UNL     1       8.782   1.939  24.167  0.00  0.00    -0.017 A 
ATOM     21  C   UNL     1      10.055   1.783  23.578  0.00  0.00    -0.017 A 
ATOM     22  C   UNL     1      10.860   2.921  23.392  0.00  0.00    +0.024 A 
ATOM     23  C   UNL     1      10.417   4.188  23.800  0.00  0.00    +0.065 A 
ATOM     24  C   UNL     1       9.154   4.332  24.380  0.00  0.00    +0.016 A 
ATOM     25  C   UNL     1      10.494   0.494  23.222  0.00  0.00    +0.009 A 
ATOM     26  C   UNL     1       8.341   3.212  24.556  0.00  0.00    +0.009 A 
ATOM     27  C   UNL     1       9.699  -0.634  23.459  0.00  0.00    +0.013 A 
BRANCH  23  28
ATOM     28  C   UNL     1      11.299   5.370  23.601  0.00  0.00    +0.308 C 
ATOM     29  N   UNL     1      11.294   6.398  24.389  0.00  0.00    -0.099 NA
ATOM     30  H   UNL     1      10.656   6.264  25.179  0.00  0.00    +0.363 HD
ATOM     31  N   UNL     1      12.163   5.412  22.548  0.00  0.00    -0.247 N 
ATOM     32  H   UNL     1      12.533   6.349  22.426  0.00  0.00    +0.288 HD
ATOM     33  H   UNL     1      11.827   5.010  21.682  0.00  0.00    +0.288 HD
ENDBRANCH  23  28
ENDBRANCH   3  18
TORSDOF 4
ENDMDL
