MODEL 1
REMARK VINA RESULT:      -7.2      0.000      0.000
REMARK  Name = 
REMARK  3 active torsions:
REMARK  status: ('A' for Active; 'I' for Inactive)
REMARK    1  A    between atoms: C_8  and  C_18
REMARK    2  A    between atoms: C_15  and  O_16
REMARK    3  A    between atoms: C_21  and  O_22
REMARK                            x       y       z     vdW  Elec       q    Type
REMARK                         _______ _______ _______ _____ _____    ______ ____
ROOT
ATOM      1  C   UNL     1      10.176   1.252  23.414  0.00  0.00    +0.033 C 
ATOM      2  C   UNL     1       9.343   2.223  24.220  0.00  0.00    +0.039 A 
ATOM      3  C   UNL     1       8.421   1.756  25.167  0.00  0.00    +0.128 A 
ATOM      4  C   UNL     1       7.599   2.649  25.861  0.00  0.00    +0.046 A 
ATOM      5  C   UNL     1       7.721   4.022  25.657  0.00  0.00    +0.007 A 
ATOM      6  C   UNL     1       8.680   4.507  24.774  0.00  0.00    +0.046 A 
ATOM      7  O   UNL     1       8.229   0.431  25.463  0.00  0.00    -0.484 OA
ATOM      8  C   UNL     1       9.323  -0.420  25.088  0.00  0.00    +0.207 C 
ATOM      9  C   UNL     1       9.489   3.611  24.074  0.00  0.00    +0.124 A 
ATOM     10  C   UNL     1       9.732  -0.199  23.629  0.00  0.00    +0.042 C 
ATOM     11  C   UNL     1       8.598  -0.393  22.611  0.00  0.00    +0.008 C 
ATOM     12  C   UNL     1       8.985   0.453  21.410  0.00  0.00    +0.001 C 
ATOM     13  C   UNL     1      10.071   1.413  21.888  0.00  0.00    +0.009 C 
ENDROOT
BRANCH   8  14
ATOM     14  C   UNL     1       8.965  -1.882  25.332  0.00  0.00    -0.007 A 
ATOM     15  C   UNL     1       9.591  -2.921  24.623  0.00  0.00    +0.011 A 
ATOM     16  C   UNL     1       9.323  -4.257  24.933  0.00  0.00    +0.046 A 
ATOM     17  C   UNL     1       8.426  -4.563  25.947  0.00  0.00    +0.117 A 
ATOM     18  C   UNL     1       7.774  -3.554  26.647  0.00  0.00    +0.046 A 
ATOM     19  C   UNL     1       8.045  -2.218  26.340  0.00  0.00    +0.011 A 
BRANCH  17  20
ATOM     20  O   UNL     1       8.218  -5.879  26.238  0.00  0.00    -0.507 OA
ATOM     21  H   UNL     1       7.425  -6.178  25.767  0.00  0.00    +0.292 HD
ENDBRANCH  17  20
ENDBRANCH   8  14
BRANCH   9  22
ATOM     22  O   UNL     1      10.461   4.093  23.240  0.00  0.00    -0.506 OA
ATOM     23  H   UNL     1      10.380   3.657  22.377  0.00  0.00    +0.292 HD
ENDBRANCH   9  22
TORSDOF 3
ENDMDL
MODEL 2
REMARK VINA RESULT:      -7.0      2.572      7.012
REMARK  Name = 
REMARK  3 active torsions:
REMARK  status: ('A' for Active; 'I' for Inactive)
REMARK    1  A    between atoms: C_8  and  C_18
REMARK    2  A    between atoms: C_15  and  O_16
REMARK    3  A    between atoms: C_21  and  O_22
REMARK                            x       y       z     vdW  Elec       q    Type
REMARK                         _______ _______ _______ _____ _____    ______ ____
ROOT
ATOM      1  C   UNL     1       7.047  -3.222  25.253  0.00  0.00    +0.033 C 
ATOM      2  C   UNL     1       6.763  -4.101  24.056  0.00  0.00    +0.039 A 
ATOM      3  C   UNL     1       7.185  -3.721  22.775  0.00  0.00    +0.128 A 
ATOM      4  C   UNL     1       6.859  -4.496  21.658  0.00  0.00    +0.046 A 
ATOM      5  C   UNL     1       6.152  -5.687  21.809  0.00  0.00    +0.007 A 
ATOM      6  C   UNL     1       5.787  -6.117  23.082  0.00  0.00    +0.046 A 
ATOM      7  O   UNL     1       7.900  -2.581  22.510  0.00  0.00    -0.484 OA
ATOM      8  C   UNL     1       8.579  -2.035  23.651  0.00  0.00    +0.207 C 
ATOM      9  C   UNL     1       6.103  -5.333  24.191  0.00  0.00    +0.124 A 
ATOM     10  C   UNL     1       7.631  -1.866  24.841  0.00  0.00    +0.042 C 
ATOM     11  C   UNL     1       6.393  -1.003  24.555  0.00  0.00    +0.008 C 
ATOM     12  C   UNL     1       5.338  -1.471  25.543  0.00  0.00    +0.001 C 
ATOM     13  C   UNL     1       5.812  -2.820  26.077  0.00  0.00    +0.009 C 
ENDROOT
BRANCH   8  14
ATOM     14  C   UNL     1       9.233  -0.705  23.291  0.00  0.00    -0.007 A 
ATOM     15  C   UNL     1       9.059  -0.117  22.027  0.00  0.00    +0.011 A 
ATOM     16  C   UNL     1       9.582   1.148  21.751  0.00  0.00    +0.046 A 
ATOM     17  C   UNL     1      10.285   1.833  22.732  0.00  0.00    +0.117 A 
ATOM     18  C   UNL     1      10.494   1.264  23.984  0.00  0.00    +0.046 A 
ATOM     19  C   UNL     1       9.967  -0.001  24.261  0.00  0.00    +0.011 A 
BRANCH  17  20
ATOM     20  O   UNL     1      10.750   3.078  22.431  0.00  0.00    -0.507 OA
ATOM     21  H   UNL     1      11.154   3.458  23.227  0.00  0.00    +0.292 HD
ENDBRANCH  17  20
ENDBRANCH   8  14
BRANCH   9  22
ATOM     22  O   UNL     1       5.781  -5.780  25.444  0.00  0.00    -0.506 OA
ATOM     23  H   UNL     1       6.553  -6.230  25.825  0.00  0.00    +0.292 HD
ENDBRANCH   9  22
TORSDOF 3
ENDMDL
MODEL 3
REMARK VINA RESULT:      -6.9      2.743      3.795
REMARK  Name = 
REMARK  3 active torsions:
REMARK  status: ('A' for Active; 'I' for Inactive)
REMARK    1  A    between atoms: C_8  and  C_18
REMARK    2  A    between atoms: C_15  and  O_16
REMARK    3  A    between atoms: C_21  and  O_22
REMARK                            x       y       z     vdW  Elec       q    Type
REMARK                         _______ _______ _______ _____ _____    ______ ____
ROOT
ATOM      1  C   UNL     1       7.469   0.369  25.090  0.00  0.00    +0.033 C 
ATOM      2  C   UNL     1       8.423   0.976  24.087  0.00  0.00    +0.039 A 
ATOM      3  C   UNL     1       8.745   0.295  22.905  0.00  0.00    +0.128 A 
ATOM      4  C   UNL     1       9.682   0.821  22.012  0.00  0.00    +0.046 A 
ATOM      5  C   UNL     1      10.274   2.058  22.260  0.00  0.00    +0.007 A 
ATOM      6  C   UNL     1       9.914   2.781  23.393  0.00  0.00    +0.046 A 
ATOM      7  O   UNL     1       8.211  -0.918  22.549  0.00  0.00    -0.484 OA
ATOM      8  C   UNL     1       6.982  -1.238  23.218  0.00  0.00    +0.207 C 
ATOM      9  C   UNL     1       8.987   2.245  24.287  0.00  0.00    +0.124 A 
ATOM     10  C   UNL     1       7.110  -1.079  24.735  0.00  0.00    +0.042 C 
ATOM     11  C   UNL     1       8.237  -1.905  25.373  0.00  0.00    +0.008 C 
ATOM     12  C   UNL     1       8.610  -1.164  26.646  0.00  0.00    +0.001 C 
ATOM     13  C   UNL     1       8.020   0.238  26.520  0.00  0.00    +0.009 C 
ENDROOT
BRANCH   8  14
ATOM     14  C   UNL     1       6.538  -2.653  22.861  0.00  0.00    -0.007 A 
ATOM     15  C   UNL     1       7.400  -3.552  22.211  0.00  0.00    +0.011 A 
ATOM     16  C   UNL     1       7.010  -4.875  21.984  0.00  0.00    +0.046 A 
ATOM     17  C   UNL     1       5.758  -5.305  22.399  0.00  0.00    +0.117 A 
ATOM     18  C   UNL     1       4.876  -4.429  23.022  0.00  0.00    +0.046 A 
ATOM     19  C   UNL     1       5.268  -3.107  23.253  0.00  0.00    +0.011 A 
BRANCH  17  20
ATOM     20  O   UNL     1       5.431  -6.612  22.187  0.00  0.00    -0.507 OA
ATOM     21  H   UNL     1       6.198  -7.162  22.405  0.00  0.00    +0.292 HD
ENDBRANCH  17  20
ENDBRANCH   8  14
BRANCH   9  22
ATOM     22  O   UNL     1       8.602   2.979  25.377  0.00  0.00    -0.506 OA
ATOM     23  H   UNL     1       8.482   3.904  25.107  0.00  0.00    +0.292 HD
ENDBRANCH   9  22
TORSDOF 3
ENDMDL
MODEL 4
REMARK VINA RESULT:      -6.9      2.670      6.987
REMARK  Name = 
REMARK  3 active torsions:
REMARK  status: ('A' for Active; 'I' for Inactive)
REMARK    1  A    between atoms: C_8  and  C_18
REMARK    2  A    between atoms: C_15  and  O_16
REMARK    3  A    between atoms: C_21  and  O_22
REMARK                            x       y       z     vdW  Elec       q    Type
REMARK                         _______ _______ _______ _____ _____    ______ ____
ROOT
ATOM      1  C   UNL     1       5.486  -3.724  23.712  0.00  0.00    +0.033 C 
ATOM      2  C   UNL     1       6.163  -4.264  24.952  0.00  0.00    +0.039 A 
ATOM      3  C   UNL     1       7.375  -3.720  25.398  0.00  0.00    +0.128 A 
ATOM      4  C   UNL     1       8.038  -4.266  26.501  0.00  0.00    +0.046 A 
ATOM      5  C   UNL     1       7.477  -5.329  27.204  0.00  0.00    +0.007 A 
ATOM      6  C   UNL     1       6.240  -5.836  26.819  0.00  0.00    +0.046 A 
ATOM      7  O   UNL     1       8.009  -2.663  24.795  0.00  0.00    -0.484 OA
ATOM      8  C   UNL     1       7.155  -1.860  23.967  0.00  0.00    +0.207 C 
ATOM      9  C   UNL     1       5.588  -5.296  25.710  0.00  0.00    +0.124 A 
ATOM     10  C   UNL     1       6.373  -2.717  22.969  0.00  0.00    +0.042 C 
ATOM     11  C   UNL     1       7.244  -3.595  22.058  0.00  0.00    +0.008 C 
ATOM     12  C   UNL     1       6.358  -4.761  21.654  0.00  0.00    +0.001 C 
ATOM     13  C   UNL     1       5.181  -4.769  22.626  0.00  0.00    +0.009 C 
ENDROOT
BRANCH   8  14
ATOM     14  C   UNL     1       7.971  -0.797  23.239  0.00  0.00    -0.007 A 
ATOM     15  C   UNL     1       7.360   0.311  22.628  0.00  0.00    +0.011 A 
ATOM     16  C   UNL     1       8.131   1.325  22.055  0.00  0.00    +0.046 A 
ATOM     17  C   UNL     1       9.516   1.238  22.085  0.00  0.00    +0.117 A 
ATOM     18  C   UNL     1      10.147   0.140  22.661  0.00  0.00    +0.046 A 
ATOM     19  C   UNL     1       9.375  -0.872  23.237  0.00  0.00    +0.011 A 
BRANCH  17  20
ATOM     20  O   UNL     1      10.230   2.265  21.543  0.00  0.00    -0.507 OA
ATOM     21  H   UNL     1       9.686   3.067  21.569  0.00  0.00    +0.292 HD
ENDBRANCH  17  20
ENDBRANCH   8  14
BRANCH   9  22
ATOM     22  O   UNL     1       4.352  -5.767  25.361  0.00  0.00    -0.506 OA
ATOM     23  H   UNL     1       4.359  -6.005  24.420  0.00  0.00    +0.292 HD
ENDBRANCH   9  22
TORSDOF 3
ENDMDL
MODEL 5
REMARK VINA RESULT:      -6.8      2.493      3.802
REMARK  Name = 
REMARK  3 active torsions:
REMARK  status: ('A' for Active; 'I' for Inactive)
REMARK    1  A    between atoms: C_8  and  C_18
REMARK    2  A    between atoms: C_15  and  O_16
REMARK    3  A    between atoms: C_21  and  O_22
REMARK                            x       y       z     vdW  Elec       q    Type
REMARK                         _______ _______ _______ _____ _____    ______ ____
ROOT
ATOM      1  C   UNL     1       6.930   3.391  22.014  0.00  0.00    +0.033 C 
ATOM      2  C   UNL     1       7.786   4.467  22.642  0.00  0.00    +0.039 A 
ATOM      3  C   UNL     1       8.918   4.130  23.396  0.00  0.00    +0.128 A 
ATOM      4  C   UNL     1       9.668   5.120  24.037  0.00  0.00    +0.046 A 
ATOM      5  C   UNL     1       9.328   6.464  23.895  0.00  0.00    +0.007 A 
ATOM      6  C   UNL     1       8.250   6.822  23.092  0.00  0.00    +0.046 A 
ATOM      7  O   UNL     1       9.356   2.844  23.589  0.00  0.00    -0.484 OA
ATOM      8  C   UNL     1       8.867   1.905  22.620  0.00  0.00    +0.207 C 
ATOM      9  C   UNL     1       7.497   5.829  22.465  0.00  0.00    +0.124 A 
ATOM     10  C   UNL     1       7.345   1.989  22.475  0.00  0.00    +0.042 C 
ATOM     11  C   UNL     1       6.565   1.784  23.783  0.00  0.00    +0.008 C 
ATOM     12  C   UNL     1       5.246   2.511  23.584  0.00  0.00    +0.001 C 
ATOM     13  C   UNL     1       5.439   3.440  22.388  0.00  0.00    +0.009 C 
ENDROOT
BRANCH   8  14
ATOM     14  C   UNL     1       9.295   0.489  22.991  0.00  0.00    -0.007 A 
ATOM     15  C   UNL     1       9.578   0.131  24.320  0.00  0.00    +0.011 A 
ATOM     16  C   UNL     1       9.870  -1.194  24.654  0.00  0.00    +0.046 A 
ATOM     17  C   UNL     1       9.885  -2.167  23.665  0.00  0.00    +0.117 A 
ATOM     18  C   UNL     1       9.634  -1.835  22.337  0.00  0.00    +0.046 A 
ATOM     19  C   UNL     1       9.338  -0.510  22.004  0.00  0.00    +0.011 A 
BRANCH  17  20
ATOM     20  O   UNL     1      10.143  -3.452  24.039  0.00  0.00    -0.507 OA
ATOM     21  H   UNL     1      10.580  -3.441  24.905  0.00  0.00    +0.292 HD
ENDBRANCH  17  20
ENDBRANCH   8  14
BRANCH   9  22
ATOM     22  O   UNL     1       6.465   6.188  21.641  0.00  0.00    -0.506 OA
ATOM     23  H   UNL     1       6.726   6.973  21.133  0.00  0.00    +0.292 HD
ENDBRANCH   9  22
TORSDOF 3
ENDMDL
MODEL 6
REMARK VINA RESULT:      -6.8      1.275      1.942
REMARK  Name = 
REMARK  3 active torsions:
REMARK  status: ('A' for Active; 'I' for Inactive)
REMARK    1  A    between atoms: C_8  and  C_18
REMARK    2  A    between atoms: C_15  and  O_16
REMARK    3  A    between atoms: C_21  and  O_22
REMARK                            x       y       z     vdW  Elec       q    Type
REMARK                         _______ _______ _______ _____ _____    ______ ____
ROOT
ATOM      1  C   UNL     1      10.059  -0.386  24.090  0.00  0.00    +0.033 C 
ATOM      2  C   UNL     1       9.324   0.851  24.553  0.00  0.00    +0.039 A 
ATOM      3  C   UNL     1       8.218   0.746  25.408  0.00  0.00    +0.128 A 
ATOM      4  C   UNL     1       7.494   1.883  25.777  0.00  0.00    +0.046 A 
ATOM      5  C   UNL     1       7.891   3.145  25.341  0.00  0.00    +0.007 A 
ATOM      6  C   UNL     1       9.029   3.275  24.550  0.00  0.00    +0.046 A 
ATOM      7  O   UNL     1       7.748  -0.440  25.913  0.00  0.00    -0.484 OA
ATOM      8  C   UNL     1       8.706  -1.509  25.888  0.00  0.00    +0.207 C 
ATOM      9  C   UNL     1       9.741   2.136  24.173  0.00  0.00    +0.124 A 
ATOM     10  C   UNL     1       9.331  -1.672  24.500  0.00  0.00    +0.042 C 
ATOM     11  C   UNL     1       8.320  -1.901  23.366  0.00  0.00    +0.008 C 
ATOM     12  C   UNL     1       9.007  -1.402  22.106  0.00  0.00    +0.001 C 
ATOM     13  C   UNL     1      10.182  -0.542  22.565  0.00  0.00    +0.009 C 
ENDROOT
BRANCH   8  14
ATOM     14  C   UNL     1       8.056  -2.812  26.342  0.00  0.00    -0.007 A 
ATOM     15  C   UNL     1       6.700  -2.870  26.707  0.00  0.00    +0.011 A 
ATOM     16  C   UNL     1       6.098  -4.090  27.022  0.00  0.00    +0.046 A 
ATOM     17  C   UNL     1       6.846  -5.259  26.978  0.00  0.00    +0.117 A 
ATOM     18  C   UNL     1       8.195  -5.227  26.644  0.00  0.00    +0.046 A 
ATOM     19  C   UNL     1       8.796  -4.006  26.325  0.00  0.00    +0.011 A 
BRANCH  17  20
ATOM     20  O   UNL     1       6.211  -6.432  27.261  0.00  0.00    -0.507 OA
ATOM     21  H   UNL     1       5.286  -6.239  27.478  0.00  0.00    +0.292 HD
ENDBRANCH  17  20
ENDBRANCH   8  14
BRANCH   9  22
ATOM     22  O   UNL     1      10.884   2.273  23.432  0.00  0.00    -0.506 OA
ATOM     23  H   UNL     1      10.684   2.797  22.641  0.00  0.00    +0.292 HD
ENDBRANCH   9  22
TORSDOF 3
ENDMDL
MODEL 7
REMARK VINA RESULT:      -6.8      2.399      6.923
REMARK  Name = 
REMARK  3 active torsions:
REMARK  status: ('A' for Active; 'I' for Inactive)
REMARK    1  A    between atoms: C_8  and  C_18
REMARK    2  A    between atoms: C_15  and  O_16
REMARK    3  A    between atoms: C_21  and  O_22
REMARK                            x       y       z     vdW  Elec       q    Type
REMARK                         _______ _______ _______ _____ _____    ______ ____
ROOT
ATOM      1  C   UNL     1       8.944  -2.790  24.363  0.00  0.00    +0.033 C 
ATOM      2  C   UNL     1       7.986  -3.519  23.449  0.00  0.00    +0.039 A 
ATOM      3  C   UNL     1       7.146  -2.807  22.581  0.00  0.00    +0.128 A 
ATOM      4  C   UNL     1       6.209  -3.476  21.789  0.00  0.00    +0.046 A 
ATOM      5  C   UNL     1       6.130  -4.867  21.814  0.00  0.00    +0.007 A 
ATOM      6  C   UNL     1       7.004  -5.594  22.616  0.00  0.00    +0.046 A 
ATOM      7  O   UNL     1       7.149  -1.441  22.461  0.00  0.00    -0.484 OA
ATOM      8  C   UNL     1       8.352  -0.812  22.928  0.00  0.00    +0.207 C 
ATOM      9  C   UNL     1       7.930  -4.921  23.414  0.00  0.00    +0.124 A 
ATOM     10  C   UNL     1       8.715  -1.274  24.341  0.00  0.00    +0.042 C 
ATOM     11  C   UNL     1       7.615  -1.052  25.390  0.00  0.00    +0.008 C 
ATOM     12  C   UNL     1       7.869  -2.092  26.468  0.00  0.00    +0.001 C 
ATOM     13  C   UNL     1       8.809  -3.129  25.857  0.00  0.00    +0.009 C 
ENDROOT
BRANCH   8  14
ATOM     14  C   UNL     1       8.209   0.706  22.878  0.00  0.00    -0.007 A 
ATOM     15  C   UNL     1       9.227   1.556  23.342  0.00  0.00    +0.011 A 
ATOM     16  C   UNL     1       9.120   2.941  23.194  0.00  0.00    +0.046 A 
ATOM     17  C   UNL     1       7.997   3.486  22.587  0.00  0.00    +0.117 A 
ATOM     18  C   UNL     1       6.964   2.668  22.141  0.00  0.00    +0.046 A 
ATOM     19  C   UNL     1       7.073   1.282  22.286  0.00  0.00    +0.011 A 
BRANCH  17  20
ATOM     20  O   UNL     1       7.949   4.840  22.434  0.00  0.00    -0.507 OA
ATOM     21  H   UNL     1       8.829   5.153  22.173  0.00  0.00    +0.292 HD
ENDBRANCH  17  20
ENDBRANCH   8  14
BRANCH   9  22
ATOM     22  O   UNL     1       8.817  -5.641  24.168  0.00  0.00    -0.506 OA
ATOM     23  H   UNL     1       8.325  -6.147  24.834  0.00  0.00    +0.292 HD
ENDBRANCH   9  22
TORSDOF 3
ENDMDL
MODEL 8
REMARK VINA RESULT:      -6.7      3.465      7.570
REMARK  Name = 
REMARK  3 active torsions:
REMARK  status: ('A' for Active; 'I' for Inactive)
REMARK    1  A    between atoms: C_8  and  C_18
REMARK    2  A    between atoms: C_15  and  O_16
REMARK    3  A    between atoms: C_21  and  O_22
REMARK                            x       y       z     vdW  Elec       q    Type
REMARK                         _______ _______ _______ _____ _____    ______ ____
ROOT
ATOM      1  C   UNL     1       5.279  -5.010  22.788  0.00  0.00    +0.033 C 
ATOM      2  C   UNL     1       5.135  -5.591  24.176  0.00  0.00    +0.039 A 
ATOM      3  C   UNL     1       5.861  -5.062  25.251  0.00  0.00    +0.128 A 
ATOM      4  C   UNL     1       5.784  -5.645  26.519  0.00  0.00    +0.046 A 
ATOM      5  C   UNL     1       4.943  -6.732  26.744  0.00  0.00    +0.007 A 
ATOM      6  C   UNL     1       4.160  -7.227  25.706  0.00  0.00    +0.046 A 
ATOM      7  O   UNL     1       6.705  -3.984  25.150  0.00  0.00    -0.484 OA
ATOM      8  C   UNL     1       6.463  -3.154  24.005  0.00  0.00    +0.207 C 
ATOM      9  C   UNL     1       4.250  -6.649  24.439  0.00  0.00    +0.124 A 
ATOM     10  C   UNL     1       6.410  -3.977  22.715  0.00  0.00    +0.042 C 
ATOM     11  C   UNL     1       7.664  -4.823  22.444  0.00  0.00    +0.008 C 
ATOM     12  C   UNL     1       7.193  -5.975  21.573  0.00  0.00    +0.001 C 
ATOM     13  C   UNL     1       5.672  -6.017  21.694  0.00  0.00    +0.009 C 
ENDROOT
BRANCH   8  14
ATOM     14  C   UNL     1       7.527  -2.066  23.906  0.00  0.00    -0.007 A 
ATOM     15  C   UNL     1       8.710  -2.123  24.661  0.00  0.00    +0.011 A 
ATOM     16  C   UNL     1       9.717  -1.171  24.482  0.00  0.00    +0.046 A 
ATOM     17  C   UNL     1       9.547  -0.156  23.551  0.00  0.00    +0.117 A 
ATOM     18  C   UNL     1       8.376  -0.062  22.807  0.00  0.00    +0.046 A 
ATOM     19  C   UNL     1       7.370  -1.016  22.985  0.00  0.00    +0.011 A 
BRANCH  17  20
ATOM     20  O   UNL     1      10.568   0.733  23.384  0.00  0.00    -0.507 OA
ATOM     21  H   UNL     1      11.126   0.715  24.177  0.00  0.00    +0.292 HD
ENDBRANCH  17  20
ENDBRANCH   8  14
BRANCH   9  22
ATOM     22  O   UNL     1       3.446  -7.109  23.431  0.00  0.00    -0.506 OA
ATOM     23  H   UNL     1       3.338  -8.069  23.529  0.00  0.00    +0.292 HD
ENDBRANCH   9  22
TORSDOF 3
ENDMDL
MODEL 9
REMARK VINA RESULT:      -6.7      3.001      4.943
REMARK  Name = 
REMARK  3 active torsions:
REMARK  status: ('A' for Active; 'I' for Inactive)
REMARK    1  A    between atoms: C_8  and  C_18
REMARK    2  A    between atoms: C_15  and  O_16
REMARK    3  A    between atoms: C_21  and  O_22
REMARK                            x       y       z     vdW  Elec       q    Type
REMARK                         _______ _______ _______ _____ _____    ______ ____
ROOT
ATOM      1  C   UNL     1       7.809  -3.750  22.980  0.00  0.00    +0.033 C 
ATOM      2  C   UNL     1       8.518  -2.597  23.653  0.00  0.00    +0.039 A 
ATOM      3  C   UNL     1       8.449  -2.430  25.043  0.00  0.00    +0.128 A 
ATOM      4  C   UNL     1       9.043  -1.324  25.657  0.00  0.00    +0.046 A 
ATOM      5  C   UNL     1       9.756  -0.396  24.901  0.00  0.00    +0.007 A 
ATOM      6  C   UNL     1       9.895  -0.585  23.529  0.00  0.00    +0.046 A 
ATOM      7  O   UNL     1       7.791  -3.288  25.887  0.00  0.00    -0.484 OA
ATOM      8  C   UNL     1       7.562  -4.594  25.337  0.00  0.00    +0.207 C 
ATOM      9  C   UNL     1       9.290  -1.684  22.919  0.00  0.00    +0.124 A 
ATOM     10  C   UNL     1       6.906  -4.515  23.956  0.00  0.00    +0.042 C 
ATOM     11  C   UNL     1       5.582  -3.737  23.920  0.00  0.00    +0.008 C 
ATOM     12  C   UNL     1       5.449  -3.231  22.494  0.00  0.00    +0.001 C 
ATOM     13  C   UNL     1       6.832  -3.354  21.860  0.00  0.00    +0.009 C 
ENDROOT
BRANCH   8  14
ATOM     14  C   UNL     1       6.713  -5.428  26.290  0.00  0.00    -0.007 A 
ATOM     15  C   UNL     1       6.956  -5.440  27.673  0.00  0.00    +0.011 A 
ATOM     16  C   UNL     1       6.105  -6.130  28.541  0.00  0.00    +0.046 A 
ATOM     17  C   UNL     1       5.010  -6.814  28.032  0.00  0.00    +0.117 A 
ATOM     18  C   UNL     1       4.761  -6.840  26.664  0.00  0.00    +0.046 A 
ATOM     19  C   UNL     1       5.611  -6.146  25.797  0.00  0.00    +0.011 A 
BRANCH  17  20
ATOM     20  O   UNL     1       4.188  -7.447  28.916  0.00  0.00    -0.507 OA
ATOM     21  H   UNL     1       4.209  -6.965  29.758  0.00  0.00    +0.292 HD
ENDBRANCH  17  20
ENDBRANCH   8  14
BRANCH   9  22
ATOM     22  O   UNL     1       9.466  -1.889  21.577  0.00  0.00    -0.506 OA
ATOM     23  H   UNL     1       8.922  -2.644  21.300  0.00  0.00    +0.292 HD
ENDBRANCH   9  22
TORSDOF 3
ENDMDL
