MODEL 1
REMARK VINA RESULT:      -5.9      0.000      0.000
REMARK  Name = 
REMARK  16 active torsions:
REMARK  status: ('A' for Active; 'I' for Inactive)
REMARK    1  A    between atoms: C_1  and  O_2
REMARK    2  A    between atoms: O_2  and  C_3
REMARK    3  A    between atoms: C_4  and  O_5
REMARK    4  A    between atoms: O_5  and  C_6
REMARK    5  A    between atoms: C_9  and  C_10
REMARK    6  A    between atoms: C_10  and  C_11
REMARK    7  A    between atoms: C_11  and  C_12
REMARK    8  A    between atoms: C_12  and  C_13
REMARK    9  A    between atoms: C_13  and  C_14
REMARK   10  A    between atoms: C_14  and  C_15
REMARK   11  A    between atoms: C_15  and  C_16
REMARK   12  A    between atoms: C_16  and  C_17
REMARK   13  A    between atoms: C_17  and  C_18
REMARK   14  A    between atoms: C_18  and  C_19
REMARK   15  A    between atoms: C_19  and  O_20
REMARK   16  A    between atoms: C_21  and  C_22
REMARK                            x       y       z     vdW  Elec       q    Type
REMARK                         _______ _______ _______ _____ _____    ______ ____
ROOT
ATOM      1  C   UNL     1       8.196  -3.022  25.370  0.00  0.00    +0.213 C 
ATOM      2  C   UNL     1       8.750  -1.656  25.656  0.00  0.00    +0.227 C 
ATOM      3  O   UNL     1       8.662  -1.110  26.751  0.00  0.00    -0.284 OA
ATOM      4  C   UNL     1       9.495  -0.980  24.561  0.00  0.00    +0.007 C 
ATOM      5  C   UNL     1      10.387   0.150  24.994  0.00  0.00    +0.048 C 
ATOM      6  C   UNL     1       9.322  -1.390  23.297  0.00  0.00    +0.010 C 
ATOM      7  C   UNL     1       8.338  -2.468  22.992  0.00  0.00    +0.228 C 
ATOM      8  O   UNL     1       7.870  -2.566  21.863  0.00  0.00    -0.284 OA
ATOM      9  C   UNL     1       8.005  -3.416  24.099  0.00  0.00    +0.213 C 
ENDROOT
BRANCH   1  11
ATOM     10  C   UNL     1       6.656  -3.811  27.031  0.00  0.00    +0.277 C 
ATOM     11  O   UNL     1       7.923  -3.926  26.396  0.00  0.00    -0.488 OA
ENDBRANCH   1  11
BRANCH   9  12
ATOM     12  O   UNL     1       7.492  -4.691  23.869  0.00  0.00    -0.488 OA
ATOM     13  C   UNL     1       6.115  -4.817  23.544  0.00  0.00    +0.277 C 
ENDBRANCH   9  12
BRANCH   6  14
ATOM     14  C   UNL     1      10.075  -0.860  22.113  0.00  0.00    +0.039 C 
BRANCH  14  15
ATOM     15  C   UNL     1       9.953   0.656  21.950  0.00  0.00    +0.005 C 
BRANCH  15  16
ATOM     16  C   UNL     1       8.548   1.071  21.508  0.00  0.00    +0.000 C 
BRANCH  16  17
ATOM     17  C   UNL     1       8.173   2.450  22.040  0.00  0.00    +0.000 C 
BRANCH  17  18
ATOM     18  C   UNL     1       9.294   3.081  22.848  0.00  0.00    +0.000 C 
BRANCH  18  19
ATOM     19  C   UNL     1       8.707   4.124  23.794  0.00  0.00    +0.000 C 
BRANCH  19  20
ATOM     20  C   UNL     1       9.812   4.901  24.491  0.00  0.00    +0.000 C 
BRANCH  20  21
ATOM     21  C   UNL     1      10.488   5.866  23.523  0.00  0.00    +0.002 C 
BRANCH  21  22
ATOM     22  C   UNL     1      11.967   6.006  23.862  0.00  0.00    +0.028 C 
BRANCH  22  23
ATOM     23  C   UNL     1      12.758   4.789  23.411  0.00  0.00    +0.156 C 
BRANCH  23  24
ATOM     24  O   UNL     1      14.108   5.162  23.173  0.00  0.00    -0.395 OA
ATOM     25  H   UNL     1      14.672   4.450  23.519  0.00  0.00    +0.209 HD
ENDBRANCH  23  24
ENDBRANCH  22  23
ENDBRANCH  21  22
ENDBRANCH  20  21
ENDBRANCH  19  20
ENDBRANCH  18  19
ENDBRANCH  17  18
ENDBRANCH  16  17
ENDBRANCH  15  16
ENDBRANCH  14  15
ENDBRANCH   6  14
TORSDOF 13
ENDMDL
MODEL 2
REMARK VINA RESULT:      -5.8      2.388      4.437
REMARK  Name = 
REMARK  16 active torsions:
REMARK  status: ('A' for Active; 'I' for Inactive)
REMARK    1  A    between atoms: C_1  and  O_2
REMARK    2  A    between atoms: O_2  and  C_3
REMARK    3  A    between atoms: C_4  and  O_5
REMARK    4  A    between atoms: O_5  and  C_6
REMARK    5  A    between atoms: C_9  and  C_10
REMARK    6  A    between atoms: C_10  and  C_11
REMARK    7  A    between atoms: C_11  and  C_12
REMARK    8  A    between atoms: C_12  and  C_13
REMARK    9  A    between atoms: C_13  and  C_14
REMARK   10  A    between atoms: C_14  and  C_15
REMARK   11  A    between atoms: C_15  and  C_16
REMARK   12  A    between atoms: C_16  and  C_17
REMARK   13  A    between atoms: C_17  and  C_18
REMARK   14  A    between atoms: C_18  and  C_19
REMARK   15  A    between atoms: C_19  and  O_20
REMARK   16  A    between atoms: C_21  and  C_22
REMARK                            x       y       z     vdW  Elec       q    Type
REMARK                         _______ _______ _______ _____ _____    ______ ____
ROOT
ATOM      1  C   UNL     1       5.386  -5.502  24.696  0.00  0.00    +0.213 C 
ATOM      2  C   UNL     1       5.691  -4.905  23.352  0.00  0.00    +0.227 C 
ATOM      3  O   UNL     1       4.944  -5.011  22.384  0.00  0.00    -0.284 OA
ATOM      4  C   UNL     1       6.932  -4.097  23.231  0.00  0.00    +0.007 C 
ATOM      5  C   UNL     1       6.987  -3.178  22.043  0.00  0.00    +0.048 C 
ATOM      6  C   UNL     1       7.903  -4.242  24.144  0.00  0.00    +0.010 C 
ATOM      7  C   UNL     1       7.760  -5.255  25.229  0.00  0.00    +0.228 C 
ATOM      8  O   UNL     1       8.758  -5.686  25.796  0.00  0.00    -0.284 OA
ATOM      9  C   UNL     1       6.371  -5.663  25.598  0.00  0.00    +0.213 C 
ENDROOT
BRANCH   1  11
ATOM     10  C   UNL     1       3.637  -7.143  24.690  0.00  0.00    +0.277 C 
ATOM     11  O   UNL     1       4.085  -5.846  25.062  0.00  0.00    -0.488 OA
ENDBRANCH   1  11
BRANCH   9  12
ATOM     12  O   UNL     1       6.052  -6.216  26.837  0.00  0.00    -0.488 OA
ATOM     13  C   UNL     1       6.099  -5.378  27.983  0.00  0.00    +0.277 C 
ENDBRANCH   9  12
BRANCH   6  14
ATOM     14  C   UNL     1       9.161  -3.427  24.194  0.00  0.00    +0.039 C 
BRANCH  14  15
ATOM     15  C   UNL     1       8.998  -2.112  24.959  0.00  0.00    +0.005 C 
BRANCH  15  16
ATOM     16  C   UNL     1       9.580  -0.926  24.186  0.00  0.00    +0.000 C 
BRANCH  16  17
ATOM     17  C   UNL     1      10.195  -1.364  22.861  0.00  0.00    +0.000 C 
BRANCH  17  18
ATOM     18  C   UNL     1       9.701  -0.529  21.692  0.00  0.00    +0.000 C 
BRANCH  18  19
ATOM     19  C   UNL     1       8.504   0.304  22.139  0.00  0.00    +0.000 C 
BRANCH  19  20
ATOM     20  C   UNL     1       8.757   1.783  21.896  0.00  0.00    +0.000 C 
BRANCH  20  21
ATOM     21  C   UNL     1      10.223   2.128  22.137  0.00  0.00    +0.002 C 
BRANCH  21  22
ATOM     22  C   UNL     1      10.419   2.644  23.556  0.00  0.00    +0.028 C 
BRANCH  22  23
ATOM     23  C   UNL     1       9.136   3.238  24.114  0.00  0.00    +0.156 C 
BRANCH  23  24
ATOM     24  O   UNL     1       8.749   2.523  25.279  0.00  0.00    -0.395 OA
ATOM     25  H   UNL     1       7.781   2.584  25.350  0.00  0.00    +0.209 HD
ENDBRANCH  23  24
ENDBRANCH  22  23
ENDBRANCH  21  22
ENDBRANCH  20  21
ENDBRANCH  19  20
ENDBRANCH  18  19
ENDBRANCH  17  18
ENDBRANCH  16  17
ENDBRANCH  15  16
ENDBRANCH  14  15
ENDBRANCH   6  14
TORSDOF 13
ENDMDL
MODEL 3
REMARK VINA RESULT:      -5.8      3.783      5.048
REMARK  Name = 
REMARK  16 active torsions:
REMARK  status: ('A' for Active; 'I' for Inactive)
REMARK    1  A    between atoms: C_1  and  O_2
REMARK    2  A    between atoms: O_2  and  C_3
REMARK    3  A    between atoms: C_4  and  O_5
REMARK    4  A    between atoms: O_5  and  C_6
REMARK    5  A    between atoms: C_9  and  C_10
REMARK    6  A    between atoms: C_10  and  C_11
REMARK    7  A    between atoms: C_11  and  C_12
REMARK    8  A    between atoms: C_12  and  C_13
REMARK    9  A    between atoms: C_13  and  C_14
REMARK   10  A    between atoms: C_14  and  C_15
REMARK   11  A    between atoms: C_15  and  C_16
REMARK   12  A    between atoms: C_16  and  C_17
REMARK   13  A    between atoms: C_17  and  C_18
REMARK   14  A    between atoms: C_18  and  C_19
REMARK   15  A    between atoms: C_19  and  O_20
REMARK   16  A    between atoms: C_21  and  C_22
REMARK                            x       y       z     vdW  Elec       q    Type
REMARK                         _______ _______ _______ _____ _____    ______ ____
ROOT
ATOM      1  C   UNL     1       6.035  -5.672  26.133  0.00  0.00    +0.213 C 
ATOM      2  C   UNL     1       7.430  -5.122  26.218  0.00  0.00    +0.227 C 
ATOM      3  O   UNL     1       8.123  -5.201  27.228  0.00  0.00    -0.284 OA
ATOM      4  C   UNL     1       8.000  -4.517  24.987  0.00  0.00    +0.007 C 
ATOM      5  C   UNL     1       9.496  -4.380  24.972  0.00  0.00    +0.048 C 
ATOM      6  C   UNL     1       7.176  -4.126  24.004  0.00  0.00    +0.010 C 
ATOM      7  C   UNL     1       5.700  -4.238  24.181  0.00  0.00    +0.228 C 
ATOM      8  O   UNL     1       4.950  -3.534  23.514  0.00  0.00    -0.284 OA
ATOM      9  C   UNL     1       5.209  -5.258  25.157  0.00  0.00    +0.213 C 
ENDROOT
BRANCH   1  11
ATOM     10  C   UNL     1       5.070  -6.209  28.262  0.00  0.00    +0.277 C 
ATOM     11  O   UNL     1       5.585  -6.656  27.014  0.00  0.00    -0.488 OA
ENDBRANCH   1  11
BRANCH   9  12
ATOM     12  O   UNL     1       3.922  -5.791  25.105  0.00  0.00    -0.488 OA
ATOM     13  C   UNL     1       3.607  -6.693  24.053  0.00  0.00    +0.277 C 
ENDBRANCH   9  12
BRANCH   6  14
ATOM     14  C   UNL     1       7.621  -3.587  22.677  0.00  0.00    +0.039 C 
BRANCH  14  15
ATOM     15  C   UNL     1       7.841  -2.073  22.684  0.00  0.00    +0.005 C 
BRANCH  15  16
ATOM     16  C   UNL     1       9.114  -1.679  21.932  0.00  0.00    +0.000 C 
BRANCH  16  17
ATOM     17  C   UNL     1      10.282  -1.446  22.884  0.00  0.00    +0.000 C 
BRANCH  17  18
ATOM     18  C   UNL     1      10.364  -0.004  23.356  0.00  0.00    +0.000 C 
BRANCH  18  19
ATOM     19  C   UNL     1      10.324   0.030  24.880  0.00  0.00    +0.000 C 
BRANCH  19  20
ATOM     20  C   UNL     1       8.895   0.177  25.379  0.00  0.00    +0.000 C 
BRANCH  20  21
ATOM     21  C   UNL     1       8.455  -1.071  26.136  0.00  0.00    +0.002 C 
BRANCH  21  22
ATOM     22  C   UNL     1       6.945  -1.068  26.331  0.00  0.00    +0.028 C 
BRANCH  22  23
ATOM     23  C   UNL     1       6.267  -0.071  25.405  0.00  0.00    +0.156 C 
BRANCH  23  24
ATOM     24  O   UNL     1       5.312  -0.747  24.597  0.00  0.00    -0.395 OA
ATOM     25  H   UNL     1       5.794  -1.162  23.862  0.00  0.00    +0.209 HD
ENDBRANCH  23  24
ENDBRANCH  22  23
ENDBRANCH  21  22
ENDBRANCH  20  21
ENDBRANCH  19  20
ENDBRANCH  18  19
ENDBRANCH  17  18
ENDBRANCH  16  17
ENDBRANCH  15  16
ENDBRANCH  14  15
ENDBRANCH   6  14
TORSDOF 13
ENDMDL
MODEL 4
REMARK VINA RESULT:      -5.7      2.782      4.480
REMARK  Name = 
REMARK  16 active torsions:
REMARK  status: ('A' for Active; 'I' for Inactive)
REMARK    1  A    between atoms: C_1  and  O_2
REMARK    2  A    between atoms: O_2  and  C_3
REMARK    3  A    between atoms: C_4  and  O_5
REMARK    4  A    between atoms: O_5  and  C_6
REMARK    5  A    between atoms: C_9  and  C_10
REMARK    6  A    between atoms: C_10  and  C_11
REMARK    7  A    between atoms: C_11  and  C_12
REMARK    8  A    between atoms: C_12  and  C_13
REMARK    9  A    between atoms: C_13  and  C_14
REMARK   10  A    between atoms: C_14  and  C_15
REMARK   11  A    between atoms: C_15  and  C_16
REMARK   12  A    between atoms: C_16  and  C_17
REMARK   13  A    between atoms: C_17  and  C_18
REMARK   14  A    between atoms: C_18  and  C_19
REMARK   15  A    between atoms: C_19  and  O_20
REMARK   16  A    between atoms: C_21  and  C_22
REMARK                            x       y       z     vdW  Elec       q    Type
REMARK                         _______ _______ _______ _____ _____    ______ ____
ROOT
ATOM      1  C   UNL     1       5.794  -6.023  26.427  0.00  0.00    +0.213 C 
ATOM      2  C   UNL     1       7.145  -5.369  26.379  0.00  0.00    +0.227 C 
ATOM      3  O   UNL     1       7.886  -5.286  27.353  0.00  0.00    -0.284 OA
ATOM      4  C   UNL     1       7.612  -4.864  25.062  0.00  0.00    +0.007 C 
ATOM      5  C   UNL     1       9.091  -4.622  24.954  0.00  0.00    +0.048 C 
ATOM      6  C   UNL     1       6.717  -4.643  24.088  0.00  0.00    +0.010 C 
ATOM      7  C   UNL     1       5.263  -4.840  24.353  0.00  0.00    +0.228 C 
ATOM      8  O   UNL     1       4.433  -4.269  23.655  0.00  0.00    -0.284 OA
ATOM      9  C   UNL     1       4.895  -5.778  25.456  0.00  0.00    +0.213 C 
ENDROOT
BRANCH   1  11
ATOM     10  C   UNL     1       4.962  -6.389  28.646  0.00  0.00    +0.277 C 
ATOM     11  O   UNL     1       5.460  -6.933  27.430  0.00  0.00    -0.488 OA
ENDBRANCH   1  11
BRANCH   9  12
ATOM     12  O   UNL     1       3.653  -6.405  25.529  0.00  0.00    -0.488 OA
ATOM     13  C   UNL     1       3.380  -7.471  24.630  0.00  0.00    +0.277 C 
ENDBRANCH   9  12
BRANCH   6  14
ATOM     14  C   UNL     1       7.060  -4.224  22.689  0.00  0.00    +0.039 C 
BRANCH  14  15
ATOM     15  C   UNL     1       6.722  -2.760  22.399  0.00  0.00    +0.005 C 
BRANCH  15  16
ATOM     16  C   UNL     1       7.764  -1.806  22.986  0.00  0.00    +0.000 C 
BRANCH  16  17
ATOM     17  C   UNL     1       9.095  -1.901  22.247  0.00  0.00    +0.000 C 
BRANCH  17  18
ATOM     18  C   UNL     1      10.275  -1.545  23.135  0.00  0.00    +0.000 C 
BRANCH  18  19
ATOM     19  C   UNL     1       9.801  -0.627  24.257  0.00  0.00    +0.000 C 
BRANCH  19  20
ATOM     20  C   UNL     1      10.803   0.490  24.499  0.00  0.00    +0.000 C 
BRANCH  20  21
ATOM     21  C   UNL     1      10.365   1.770  23.795  0.00  0.00    +0.002 C 
BRANCH  21  22
ATOM     22  C   UNL     1       8.862   1.752  23.550  0.00  0.00    +0.028 C 
BRANCH  22  23
ATOM     23  C   UNL     1       8.521   2.243  22.152  0.00  0.00    +0.156 C 
BRANCH  23  24
ATOM     24  O   UNL     1       9.232   1.475  21.192  0.00  0.00    -0.395 OA
ATOM     25  H   UNL     1       8.575   0.998  20.656  0.00  0.00    +0.209 HD
ENDBRANCH  23  24
ENDBRANCH  22  23
ENDBRANCH  21  22
ENDBRANCH  20  21
ENDBRANCH  19  20
ENDBRANCH  18  19
ENDBRANCH  17  18
ENDBRANCH  16  17
ENDBRANCH  15  16
ENDBRANCH  14  15
ENDBRANCH   6  14
TORSDOF 13
ENDMDL
MODEL 5
REMARK VINA RESULT:      -5.7      3.350      4.828
REMARK  Name = 
REMARK  16 active torsions:
REMARK  status: ('A' for Active; 'I' for Inactive)
REMARK    1  A    between atoms: C_1  and  O_2
REMARK    2  A    between atoms: O_2  and  C_3
REMARK    3  A    between atoms: C_4  and  O_5
REMARK    4  A    between atoms: O_5  and  C_6
REMARK    5  A    between atoms: C_9  and  C_10
REMARK    6  A    between atoms: C_10  and  C_11
REMARK    7  A    between atoms: C_11  and  C_12
REMARK    8  A    between atoms: C_12  and  C_13
REMARK    9  A    between atoms: C_13  and  C_14
REMARK   10  A    between atoms: C_14  and  C_15
REMARK   11  A    between atoms: C_15  and  C_16
REMARK   12  A    between atoms: C_16  and  C_17
REMARK   13  A    between atoms: C_17  and  C_18
REMARK   14  A    between atoms: C_18  and  C_19
REMARK   15  A    between atoms: C_19  and  O_20
REMARK   16  A    between atoms: C_21  and  C_22
REMARK                            x       y       z     vdW  Elec       q    Type
REMARK                         _______ _______ _______ _____ _____    ______ ____
ROOT
ATOM      1  C   UNL     1       5.889  -5.198  24.569  0.00  0.00    +0.213 C 
ATOM      2  C   UNL     1       6.080  -4.479  23.265  0.00  0.00    +0.227 C 
ATOM      3  O   UNL     1       5.294  -4.568  22.327  0.00  0.00    -0.284 OA
ATOM      4  C   UNL     1       7.250  -3.569  23.153  0.00  0.00    +0.007 C 
ATOM      5  C   UNL     1       7.175  -2.561  22.041  0.00  0.00    +0.048 C 
ATOM      6  C   UNL     1       8.273  -3.706  24.007  0.00  0.00    +0.010 C 
ATOM      7  C   UNL     1       8.262  -4.807  25.013  0.00  0.00    +0.228 C 
ATOM      8  O   UNL     1       9.317  -5.201  25.498  0.00  0.00    -0.284 OA
ATOM      9  C   UNL     1       6.928  -5.350  25.410  0.00  0.00    +0.213 C 
ENDROOT
BRANCH   1  11
ATOM     10  C   UNL     1       4.264  -6.960  24.500  0.00  0.00    +0.277 C 
ATOM     11  O   UNL     1       4.637  -5.669  24.965  0.00  0.00    -0.488 OA
ENDBRANCH   1  11
BRANCH   9  12
ATOM     12  O   UNL     1       6.714  -6.019  26.614  0.00  0.00    -0.488 OA
ATOM     13  C   UNL     1       6.505  -5.247  27.788  0.00  0.00    +0.277 C 
ENDBRANCH   9  12
BRANCH   6  14
ATOM     14  C   UNL     1       9.469  -2.802  24.065  0.00  0.00    +0.039 C 
BRANCH  14  15
ATOM     15  C   UNL     1       9.204  -1.500  24.825  0.00  0.00    +0.005 C 
BRANCH  15  16
ATOM     16  C   UNL     1      10.132  -0.373  24.367  0.00  0.00    +0.000 C 
BRANCH  16  17
ATOM     17  C   UNL     1      10.314  -0.374  22.853  0.00  0.00    +0.000 C 
BRANCH  17  18
ATOM     18  C   UNL     1      10.050   0.991  22.239  0.00  0.00    +0.000 C 
BRANCH  18  19
ATOM     19  C   UNL     1       8.744   0.944  21.452  0.00  0.00    +0.000 C 
BRANCH  19  20
ATOM     20  C   UNL     1       7.672   1.777  22.135  0.00  0.00    +0.000 C 
BRANCH  20  21
ATOM     21  C   UNL     1       6.812   0.908  23.047  0.00  0.00    +0.002 C 
BRANCH  21  22
ATOM     22  C   UNL     1       6.819   1.461  24.466  0.00  0.00    +0.028 C 
BRANCH  22  23
ATOM     23  C   UNL     1       5.637   2.387  24.708  0.00  0.00    +0.156 C 
BRANCH  23  24
ATOM     24  O   UNL     1       4.570   2.033  23.838  0.00  0.00    -0.395 OA
ATOM     25  H   UNL     1       4.188   1.203  24.170  0.00  0.00    +0.209 HD
ENDBRANCH  23  24
ENDBRANCH  22  23
ENDBRANCH  21  22
ENDBRANCH  20  21
ENDBRANCH  19  20
ENDBRANCH  18  19
ENDBRANCH  17  18
ENDBRANCH  16  17
ENDBRANCH  15  16
ENDBRANCH  14  15
ENDBRANCH   6  14
TORSDOF 13
ENDMDL
MODEL 6
REMARK VINA RESULT:      -5.7      3.001      4.794
REMARK  Name = 
REMARK  16 active torsions:
REMARK  status: ('A' for Active; 'I' for Inactive)
REMARK    1  A    between atoms: C_1  and  O_2
REMARK    2  A    between atoms: O_2  and  C_3
REMARK    3  A    between atoms: C_4  and  O_5
REMARK    4  A    between atoms: O_5  and  C_6
REMARK    5  A    between atoms: C_9  and  C_10
REMARK    6  A    between atoms: C_10  and  C_11
REMARK    7  A    between atoms: C_11  and  C_12
REMARK    8  A    between atoms: C_12  and  C_13
REMARK    9  A    between atoms: C_13  and  C_14
REMARK   10  A    between atoms: C_14  and  C_15
REMARK   11  A    between atoms: C_15  and  C_16
REMARK   12  A    between atoms: C_16  and  C_17
REMARK   13  A    between atoms: C_17  and  C_18
REMARK   14  A    between atoms: C_18  and  C_19
REMARK   15  A    between atoms: C_19  and  O_20
REMARK   16  A    between atoms: C_21  and  C_22
REMARK                            x       y       z     vdW  Elec       q    Type
REMARK                         _______ _______ _______ _____ _____    ______ ____
ROOT
ATOM      1  C   UNL     1       5.376  -5.896  24.129  0.00  0.00    +0.213 C 
ATOM      2  C   UNL     1       5.911  -5.674  25.515  0.00  0.00    +0.227 C 
ATOM      3  O   UNL     1       5.367  -6.114  26.524  0.00  0.00    -0.284 OA
ATOM      4  C   UNL     1       7.197  -4.941  25.641  0.00  0.00    +0.007 C 
ATOM      5  C   UNL     1       7.908  -5.111  26.953  0.00  0.00    +0.048 C 
ATOM      6  C   UNL     1       7.624  -4.183  24.621  0.00  0.00    +0.010 C 
ATOM      7  C   UNL     1       6.778  -4.028  23.403  0.00  0.00    +0.228 C 
ATOM      8  O   UNL     1       6.933  -3.056  22.672  0.00  0.00    -0.284 OA
ATOM      9  C   UNL     1       5.794  -5.116  23.117  0.00  0.00    +0.213 C 
ENDROOT
BRANCH   1  11
ATOM     10  C   UNL     1       3.109  -6.672  24.049  0.00  0.00    +0.277 C 
ATOM     11  O   UNL     1       4.491  -6.936  23.848  0.00  0.00    -0.488 OA
ENDBRANCH   1  11
BRANCH   9  12
ATOM     12  O   UNL     1       5.281  -5.351  21.843  0.00  0.00    -0.488 OA
ATOM     13  C   UNL     1       6.157  -5.856  20.844  0.00  0.00    +0.277 C 
ENDBRANCH   9  12
BRANCH   6  14
ATOM     14  C   UNL     1       8.941  -3.466  24.579  0.00  0.00    +0.039 C 
BRANCH  14  15
ATOM     15  C   UNL     1       8.900  -2.090  25.247  0.00  0.00    +0.005 C 
BRANCH  15  16
ATOM     16  C   UNL     1       9.477  -0.999  24.343  0.00  0.00    +0.000 C 
BRANCH  16  17
ATOM     17  C   UNL     1      10.053  -1.580  23.056  0.00  0.00    +0.000 C 
BRANCH  17  18
ATOM     18  C   UNL     1       9.702  -0.743  21.837  0.00  0.00    +0.000 C 
BRANCH  18  19
ATOM     19  C   UNL     1      10.045   0.717  22.114  0.00  0.00    +0.000 C 
BRANCH  19  20
ATOM     20  C   UNL     1       8.967   1.637  21.564  0.00  0.00    +0.000 C 
BRANCH  20  21
ATOM     21  C   UNL     1       8.523   2.642  22.622  0.00  0.00    +0.002 C 
BRANCH  21  22
ATOM     22  C   UNL     1       7.499   2.010  23.555  0.00  0.00    +0.028 C 
BRANCH  22  23
ATOM     23  C   UNL     1       6.423   1.268  22.780  0.00  0.00    +0.156 C 
BRANCH  23  24
ATOM     24  O   UNL     1       6.365  -0.082  23.219  0.00  0.00    -0.395 OA
ATOM     25  H   UNL     1       6.916  -0.152  24.017  0.00  0.00    +0.209 HD
ENDBRANCH  23  24
ENDBRANCH  22  23
ENDBRANCH  21  22
ENDBRANCH  20  21
ENDBRANCH  19  20
ENDBRANCH  18  19
ENDBRANCH  17  18
ENDBRANCH  16  17
ENDBRANCH  15  16
ENDBRANCH  14  15
ENDBRANCH   6  14
TORSDOF 13
ENDMDL
MODEL 7
REMARK VINA RESULT:      -5.7      3.259      5.099
REMARK  Name = 
REMARK  16 active torsions:
REMARK  status: ('A' for Active; 'I' for Inactive)
REMARK    1  A    between atoms: C_1  and  O_2
REMARK    2  A    between atoms: O_2  and  C_3
REMARK    3  A    between atoms: C_4  and  O_5
REMARK    4  A    between atoms: O_5  and  C_6
REMARK    5  A    between atoms: C_9  and  C_10
REMARK    6  A    between atoms: C_10  and  C_11
REMARK    7  A    between atoms: C_11  and  C_12
REMARK    8  A    between atoms: C_12  and  C_13
REMARK    9  A    between atoms: C_13  and  C_14
REMARK   10  A    between atoms: C_14  and  C_15
REMARK   11  A    between atoms: C_15  and  C_16
REMARK   12  A    between atoms: C_16  and  C_17
REMARK   13  A    between atoms: C_17  and  C_18
REMARK   14  A    between atoms: C_18  and  C_19
REMARK   15  A    between atoms: C_19  and  O_20
REMARK   16  A    between atoms: C_21  and  C_22
REMARK                            x       y       z     vdW  Elec       q    Type
REMARK                         _______ _______ _______ _____ _____    ______ ____
ROOT
ATOM      1  C   UNL     1       4.901  -5.321  24.684  0.00  0.00    +0.213 C 
ATOM      2  C   UNL     1       5.489  -4.730  23.435  0.00  0.00    +0.227 C 
ATOM      3  O   UNL     1       4.931  -4.775  22.343  0.00  0.00    -0.284 OA
ATOM      4  C   UNL     1       6.778  -4.003  23.566  0.00  0.00    +0.007 C 
ATOM      5  C   UNL     1       7.111  -3.076  22.431  0.00  0.00    +0.048 C 
ATOM      6  C   UNL     1       7.550  -4.221  24.640  0.00  0.00    +0.010 C 
ATOM      7  C   UNL     1       7.144  -5.235  25.655  0.00  0.00    +0.228 C 
ATOM      8  O   UNL     1       7.989  -5.737  26.388  0.00  0.00    -0.284 OA
ATOM      9  C   UNL     1       5.688  -5.557  25.749  0.00  0.00    +0.213 C 
ENDROOT
BRANCH   1  11
ATOM     10  C   UNL     1       2.677  -4.458  24.924  0.00  0.00    +0.277 C 
ATOM     11  O   UNL     1       3.536  -5.584  24.793  0.00  0.00    -0.488 OA
ENDBRANCH   1  11
BRANCH   9  12
ATOM     12  O   UNL     1       5.109  -6.102  26.894  0.00  0.00    -0.488 OA
ATOM     13  C   UNL     1       4.965  -5.273  28.039  0.00  0.00    +0.277 C 
ENDBRANCH   9  12
BRANCH   6  14
ATOM     14  C   UNL     1       8.824  -3.490  24.943  0.00  0.00    +0.039 C 
BRANCH  14  15
ATOM     15  C   UNL     1       8.617  -2.253  25.819  0.00  0.00    +0.005 C 
BRANCH  15  16
ATOM     16  C   UNL     1       8.618  -0.964  24.996  0.00  0.00    +0.000 C 
BRANCH  16  17
ATOM     17  C   UNL     1       9.893  -0.156  25.214  0.00  0.00    +0.000 C 
BRANCH  17  18
ATOM     18  C   UNL     1      10.573   0.213  23.907  0.00  0.00    +0.000 C 
BRANCH  18  19
ATOM     19  C   UNL     1      10.211  -0.818  22.843  0.00  0.00    +0.000 C 
BRANCH  19  20
ATOM     20  C   UNL     1       9.708  -0.135  21.581  0.00  0.00    +0.000 C 
BRANCH  20  21
ATOM     21  C   UNL     1       9.505   1.358  21.818  0.00  0.00    +0.002 C 
BRANCH  21  22
ATOM     22  C   UNL     1       8.054   1.742  21.566  0.00  0.00    +0.028 C 
BRANCH  22  23
ATOM     23  C   UNL     1       7.260   1.798  22.861  0.00  0.00    +0.156 C 
BRANCH  23  24
ATOM     24  O   UNL     1       6.151   0.913  22.779  0.00  0.00    -0.395 OA
ATOM     25  H   UNL     1       5.925   0.645  23.685  0.00  0.00    +0.209 HD
ENDBRANCH  23  24
ENDBRANCH  22  23
ENDBRANCH  21  22
ENDBRANCH  20  21
ENDBRANCH  19  20
ENDBRANCH  18  19
ENDBRANCH  17  18
ENDBRANCH  16  17
ENDBRANCH  15  16
ENDBRANCH  14  15
ENDBRANCH   6  14
TORSDOF 13
ENDMDL
MODEL 8
REMARK VINA RESULT:      -5.6      2.598      3.361
REMARK  Name = 
REMARK  16 active torsions:
REMARK  status: ('A' for Active; 'I' for Inactive)
REMARK    1  A    between atoms: C_1  and  O_2
REMARK    2  A    between atoms: O_2  and  C_3
REMARK    3  A    between atoms: C_4  and  O_5
REMARK    4  A    between atoms: O_5  and  C_6
REMARK    5  A    between atoms: C_9  and  C_10
REMARK    6  A    between atoms: C_10  and  C_11
REMARK    7  A    between atoms: C_11  and  C_12
REMARK    8  A    between atoms: C_12  and  C_13
REMARK    9  A    between atoms: C_13  and  C_14
REMARK   10  A    between atoms: C_14  and  C_15
REMARK   11  A    between atoms: C_15  and  C_16
REMARK   12  A    between atoms: C_16  and  C_17
REMARK   13  A    between atoms: C_17  and  C_18
REMARK   14  A    between atoms: C_18  and  C_19
REMARK   15  A    between atoms: C_19  and  O_20
REMARK   16  A    between atoms: C_21  and  C_22
REMARK                            x       y       z     vdW  Elec       q    Type
REMARK                         _______ _______ _______ _____ _____    ______ ____
ROOT
ATOM      1  C   UNL     1       8.182  -3.147  25.261  0.00  0.00    +0.213 C 
ATOM      2  C   UNL     1       8.703  -1.779  25.599  0.00  0.00    +0.227 C 
ATOM      3  O   UNL     1       8.581  -1.269  26.708  0.00  0.00    -0.284 OA
ATOM      4  C   UNL     1       9.456  -1.055  24.541  0.00  0.00    +0.007 C 
ATOM      5  C   UNL     1      10.314   0.079  25.026  0.00  0.00    +0.048 C 
ATOM      6  C   UNL     1       9.316  -1.430  23.262  0.00  0.00    +0.010 C 
ATOM      7  C   UNL     1       8.362  -2.518  22.904  0.00  0.00    +0.228 C 
ATOM      8  O   UNL     1       7.919  -2.591  21.763  0.00  0.00    -0.284 OA
ATOM      9  C   UNL     1       8.026  -3.506  23.975  0.00  0.00    +0.213 C 
ENDROOT
BRANCH   1  11
ATOM     10  C   UNL     1       8.993  -4.899  26.682  0.00  0.00    +0.277 C 
ATOM     11  O   UNL     1       7.908  -4.088  26.253  0.00  0.00    -0.488 OA
ENDBRANCH   1  11
BRANCH   9  12
ATOM     12  O   UNL     1       7.544  -4.784  23.696  0.00  0.00    -0.488 OA
ATOM     13  C   UNL     1       6.148  -4.950  23.490  0.00  0.00    +0.277 C 
ENDBRANCH   9  12
BRANCH   6  14
ATOM     14  C   UNL     1      10.083  -0.850  22.111  0.00  0.00    +0.039 C 
BRANCH  14  15
ATOM     15  C   UNL     1       9.347   0.297  21.414  0.00  0.00    +0.005 C 
BRANCH  15  16
ATOM     16  C   UNL     1       9.851   1.664  21.881  0.00  0.00    +0.000 C 
BRANCH  16  17
ATOM     17  C   UNL     1       8.750   2.467  22.566  0.00  0.00    +0.000 C 
BRANCH  17  18
ATOM     18  C   UNL     1       7.408   2.316  21.871  0.00  0.00    +0.000 C 
BRANCH  18  19
ATOM     19  C   UNL     1       6.311   2.171  22.921  0.00  0.00    +0.000 C 
BRANCH  19  20
ATOM     20  C   UNL     1       6.650   1.065  23.906  0.00  0.00    +0.000 C 
BRANCH  20  21
ATOM     21  C   UNL     1       6.096   1.385  25.291  0.00  0.00    +0.002 C 
BRANCH  21  22
ATOM     22  C   UNL     1       7.207   1.887  26.203  0.00  0.00    +0.028 C 
BRANCH  22  23
ATOM     23  C   UNL     1       6.673   2.845  27.255  0.00  0.00    +0.156 C 
BRANCH  23  24
ATOM     24  O   UNL     1       7.494   2.787  28.413  0.00  0.00    -0.395 OA
ATOM     25  H   UNL     1       7.305   1.944  28.860  0.00  0.00    +0.209 HD
ENDBRANCH  23  24
ENDBRANCH  22  23
ENDBRANCH  21  22
ENDBRANCH  20  21
ENDBRANCH  19  20
ENDBRANCH  18  19
ENDBRANCH  17  18
ENDBRANCH  16  17
ENDBRANCH  15  16
ENDBRANCH  14  15
ENDBRANCH   6  14
TORSDOF 13
ENDMDL
MODEL 9
REMARK VINA RESULT:      -5.5      2.527      3.449
REMARK  Name = 
REMARK  16 active torsions:
REMARK  status: ('A' for Active; 'I' for Inactive)
REMARK    1  A    between atoms: C_1  and  O_2
REMARK    2  A    between atoms: O_2  and  C_3
REMARK    3  A    between atoms: C_4  and  O_5
REMARK    4  A    between atoms: O_5  and  C_6
REMARK    5  A    between atoms: C_9  and  C_10
REMARK    6  A    between atoms: C_10  and  C_11
REMARK    7  A    between atoms: C_11  and  C_12
REMARK    8  A    between atoms: C_12  and  C_13
REMARK    9  A    between atoms: C_13  and  C_14
REMARK   10  A    between atoms: C_14  and  C_15
REMARK   11  A    between atoms: C_15  and  C_16
REMARK   12  A    between atoms: C_16  and  C_17
REMARK   13  A    between atoms: C_17  and  C_18
REMARK   14  A    between atoms: C_18  and  C_19
REMARK   15  A    between atoms: C_19  and  O_20
REMARK   16  A    between atoms: C_21  and  C_22
REMARK                            x       y       z     vdW  Elec       q    Type
REMARK                         _______ _______ _______ _____ _____    ______ ____
ROOT
ATOM      1  C   UNL     1       7.095  -3.228  24.240  0.00  0.00    +0.213 C 
ATOM      2  C   UNL     1       6.697  -1.784  24.347  0.00  0.00    +0.227 C 
ATOM      3  O   UNL     1       5.555  -1.384  24.142  0.00  0.00    -0.284 OA
ATOM      4  C   UNL     1       7.739  -0.821  24.788  0.00  0.00    +0.007 C 
ATOM      5  C   UNL     1       7.223   0.496  25.296  0.00  0.00    +0.048 C 
ATOM      6  C   UNL     1       9.032  -1.162  24.694  0.00  0.00    +0.010 C 
ATOM      7  C   UNL     1       9.415  -2.470  24.089  0.00  0.00    +0.228 C 
ATOM      8  O   UNL     1      10.539  -2.621  23.623  0.00  0.00    -0.284 OA
ATOM      9  C   UNL     1       8.393  -3.560  24.124  0.00  0.00    +0.213 C 
ENDROOT
BRANCH   1  11
ATOM     10  C   UNL     1       5.639  -4.555  25.607  0.00  0.00    +0.277 C 
ATOM     11  O   UNL     1       6.150  -4.251  24.315  0.00  0.00    -0.488 OA
ENDBRANCH   1  11
BRANCH   9  12
ATOM     12  O   UNL     1       8.727  -4.909  24.031  0.00  0.00    -0.488 OA
ATOM     13  C   UNL     1       9.269  -5.552  25.176  0.00  0.00    +0.277 C 
ENDBRANCH   9  12
BRANCH   6  14
ATOM     14  C   UNL     1      10.177  -0.327  25.186  0.00  0.00    +0.039 C 
BRANCH  14  15
ATOM     15  C   UNL     1      10.887   0.440  24.068  0.00  0.00    +0.005 C 
BRANCH  15  16
ATOM     16  C   UNL     1      10.509   1.922  24.064  0.00  0.00    +0.000 C 
BRANCH  16  17
ATOM     17  C   UNL     1       9.995   2.369  22.700  0.00  0.00    +0.000 C 
BRANCH  17  18
ATOM     18  C   UNL     1       9.697   1.196  21.782  0.00  0.00    +0.000 C 
BRANCH  18  19
ATOM     19  C   UNL     1       8.191   1.095  21.566  0.00  0.00    +0.000 C 
BRANCH  19  20
ATOM     20  C   UNL     1       7.557   2.477  21.541  0.00  0.00    +0.000 C 
BRANCH  20  21
ATOM     21  C   UNL     1       6.363   2.540  22.489  0.00  0.00    +0.002 C 
BRANCH  21  22
ATOM     22  C   UNL     1       6.125   3.974  22.945  0.00  0.00    +0.028 C 
BRANCH  22  23
ATOM     23  C   UNL     1       7.122   4.931  22.313  0.00  0.00    +0.156 C 
BRANCH  23  24
ATOM     24  O   UNL     1       8.100   5.302  23.274  0.00  0.00    -0.395 OA
ATOM     25  H   UNL     1       8.040   6.265  23.393  0.00  0.00    +0.209 HD
ENDBRANCH  23  24
ENDBRANCH  22  23
ENDBRANCH  21  22
ENDBRANCH  20  21
ENDBRANCH  19  20
ENDBRANCH  18  19
ENDBRANCH  17  18
ENDBRANCH  16  17
ENDBRANCH  15  16
ENDBRANCH  14  15
ENDBRANCH   6  14
TORSDOF 13
ENDMDL
