MODEL 1
REMARK VINA RESULT:      -6.4      0.000      0.000
REMARK  Name = 
REMARK  7 active torsions:
REMARK  status: ('A' for Active; 'I' for Inactive)
REMARK    1  A    between atoms: C_1  and  N_2
REMARK    2  A    between atoms: C_10  and  O_13
REMARK    3  A    between atoms: O_13  and  C_14
REMARK    4  A    between atoms: C_14  and  C_16
REMARK    5  A    between atoms: C_16  and  C_17
REMARK    6  A    between atoms: C_16  and  C_19
REMARK    7  A    between atoms: C_17  and  O_18
REMARK                            x       y       z     vdW  Elec       q    Type
REMARK                         _______ _______ _______ _____ _____    ______ ____
ROOT
ATOM      1  C   UNL     1       9.238  -4.245  24.972  0.00  0.00    +0.317 C 
ATOM      2  O   UNL     1      10.389  -4.555  24.684  0.00  0.00    -0.250 OA
ENDROOT
BRANCH   1   3
ATOM      3  O   UNL     1       8.783  -2.965  25.050  0.00  0.00    -0.461 OA
BRANCH   3   8
ATOM      4  C   UNL     1       9.399   0.038  21.498  0.00  0.00    +0.105 C 
ATOM      5  N   UNL     1       8.636   0.431  22.671  0.00  0.00    -0.299 NA
ATOM      6  C   UNL     1       7.422  -0.343  22.933  0.00  0.00    +0.060 C 
ATOM      7  C   UNL     1       7.686  -1.839  23.118  0.00  0.00    +0.063 C 
ATOM      8  C   UNL     1       8.995  -2.191  23.853  0.00  0.00    +0.179 C 
ATOM      9  C   UNL     1       9.919  -1.020  24.236  0.00  0.00    +0.063 C 
ATOM     10  C   UNL     1       6.952   0.286  24.246  0.00  0.00    +0.020 C 
ATOM     11  C   UNL     1       8.238   0.733  24.934  0.00  0.00    +0.020 C 
ATOM     12  C   UNL     1       9.352   0.373  23.945  0.00  0.00    +0.060 C 
ENDBRANCH   3   8
ENDBRANCH   1   3
BRANCH   1  13
ATOM     13  C   UNL     1       8.142  -5.228  25.331  0.00  0.00    +0.153 C 
BRANCH  13  14
ATOM     14  C   UNL     1       7.107  -5.338  24.218  0.00  0.00    -0.032 A 
ATOM     15  C   UNL     1       7.479  -5.582  22.886  0.00  0.00    +0.004 A 
ATOM     16  C   UNL     1       6.517  -5.713  21.883  0.00  0.00    +0.000 A 
ATOM     17  C   UNL     1       5.166  -5.604  22.195  0.00  0.00    +0.000 A 
ATOM     18  C   UNL     1       4.776  -5.365  23.511  0.00  0.00    +0.000 A 
ATOM     19  C   UNL     1       5.738  -5.236  24.516  0.00  0.00    +0.004 A 
ENDBRANCH  13  14
BRANCH  13  20
ATOM     20  C   UNL     1       7.581  -4.875  26.714  0.00  0.00    +0.175 C 
BRANCH  20  21
ATOM     21  O   UNL     1       7.712  -5.907  27.690  0.00  0.00    -0.394 OA
ATOM     22  H   UNL     1       8.132  -5.529  28.485  0.00  0.00    +0.209 HD
ENDBRANCH  20  21
ENDBRANCH  13  20
ENDBRANCH   1  13
TORSDOF 6
ENDMDL
MODEL 2
REMARK VINA RESULT:      -6.4      2.111      3.638
REMARK  Name = 
REMARK  7 active torsions:
REMARK  status: ('A' for Active; 'I' for Inactive)
REMARK    1  A    between atoms: C_1  and  N_2
REMARK    2  A    between atoms: C_10  and  O_13
REMARK    3  A    between atoms: O_13  and  C_14
REMARK    4  A    between atoms: C_14  and  C_16
REMARK    5  A    between atoms: C_16  and  C_17
REMARK    6  A    between atoms: C_16  and  C_19
REMARK    7  A    between atoms: C_17  and  O_18
REMARK                            x       y       z     vdW  Elec       q    Type
REMARK                         _______ _______ _______ _____ _____    ______ ____
ROOT
ATOM      1  C   UNL     1       5.960  -3.596  22.449  0.00  0.00    +0.317 C 
ATOM      2  O   UNL     1       5.616  -3.467  21.279  0.00  0.00    -0.250 OA
ENDROOT
BRANCH   1   3
ATOM      3  O   UNL     1       6.306  -2.566  23.268  0.00  0.00    -0.461 OA
BRANCH   3   8
ATOM      4  C   UNL     1       9.218   0.658  21.495  0.00  0.00    +0.105 C 
ATOM      5  N   UNL     1       9.434   0.123  22.829  0.00  0.00    -0.299 NA
ATOM      6  C   UNL     1       8.369   0.377  23.800  0.00  0.00    +0.060 C 
ATOM      7  C   UNL     1       7.011  -0.179  23.368  0.00  0.00    +0.063 C 
ATOM      8  C   UNL     1       7.059  -1.524  22.617  0.00  0.00    +0.179 C 
ATOM      9  C   UNL     1       8.453  -2.105  22.310  0.00  0.00    +0.063 C 
ATOM     10  C   UNL     1       8.899  -0.382  25.019  0.00  0.00    +0.020 C 
ATOM     11  C   UNL     1       9.707  -1.532  24.428  0.00  0.00    +0.020 C 
ATOM     12  C   UNL     1       9.625  -1.325  22.912  0.00  0.00    +0.060 C 
ENDBRANCH   3   8
ENDBRANCH   1   3
BRANCH   1  13
ATOM     13  C   UNL     1       6.102  -4.923  23.166  0.00  0.00    +0.153 C 
BRANCH  13  14
ATOM     14  C   UNL     1       7.064  -4.818  24.345  0.00  0.00    -0.032 A 
ATOM     15  C   UNL     1       6.621  -4.455  25.627  0.00  0.00    +0.004 A 
ATOM     16  C   UNL     1       7.508  -4.396  26.703  0.00  0.00    +0.000 A 
ATOM     17  C   UNL     1       8.853  -4.699  26.515  0.00  0.00    +0.000 A 
ATOM     18  C   UNL     1       9.311  -5.064  25.251  0.00  0.00    +0.000 A 
ATOM     19  C   UNL     1       8.423  -5.127  24.174  0.00  0.00    +0.004 A 
ENDBRANCH  13  14
BRANCH  13  20
ATOM     20  C   UNL     1       6.437  -6.017  22.144  0.00  0.00    +0.175 C 
BRANCH  20  21
ATOM     21  O   UNL     1       5.380  -6.325  21.235  0.00  0.00    -0.394 OA
ATOM     22  H   UNL     1       5.559  -7.198  20.839  0.00  0.00    +0.209 HD
ENDBRANCH  20  21
ENDBRANCH  13  20
ENDBRANCH   1  13
TORSDOF 6
ENDMDL
MODEL 3
REMARK VINA RESULT:      -6.2      1.397      2.323
REMARK  Name = 
REMARK  7 active torsions:
REMARK  status: ('A' for Active; 'I' for Inactive)
REMARK    1  A    between atoms: C_1  and  N_2
REMARK    2  A    between atoms: C_10  and  O_13
REMARK    3  A    between atoms: O_13  and  C_14
REMARK    4  A    between atoms: C_14  and  C_16
REMARK    5  A    between atoms: C_16  and  C_17
REMARK    6  A    between atoms: C_16  and  C_19
REMARK    7  A    between atoms: C_17  and  O_18
REMARK                            x       y       z     vdW  Elec       q    Type
REMARK                         _______ _______ _______ _____ _____    ______ ____
ROOT
ATOM      1  C   UNL     1       8.840  -2.925  25.054  0.00  0.00    +0.317 C 
ATOM      2  O   UNL     1       8.533  -2.709  26.221  0.00  0.00    -0.250 OA
ENDROOT
BRANCH   1   3
ATOM      3  O   UNL     1       9.129  -1.956  24.143  0.00  0.00    -0.461 OA
BRANCH   3   8
ATOM      4  C   UNL     1       8.243   2.550  25.108  0.00  0.00    +0.105 C 
ATOM      5  N   UNL     1       8.690   2.154  23.782  0.00  0.00    -0.299 NA
ATOM      6  C   UNL     1      10.017   1.541  23.711  0.00  0.00    +0.060 C 
ATOM      7  C   UNL     1      10.147   0.278  24.564  0.00  0.00    +0.063 C 
ATOM      8  C   UNL     1       8.891  -0.615  24.614  0.00  0.00    +0.179 C 
ATOM      9  C   UNL     1       7.637  -0.100  23.884  0.00  0.00    +0.063 C 
ATOM     10  C   UNL     1      10.100   1.196  22.223  0.00  0.00    +0.020 C 
ATOM     11  C   UNL     1       8.655   0.932  21.813  0.00  0.00    +0.020 C 
ATOM     12  C   UNL     1       7.839   1.190  23.085  0.00  0.00    +0.060 C 
ENDBRANCH   3   8
ENDBRANCH   1   3
BRANCH   1  13
ATOM     13  C   UNL     1       8.909  -4.298  24.418  0.00  0.00    +0.153 C 
BRANCH  13  14
ATOM     14  C   UNL     1       7.592  -4.664  23.741  0.00  0.00    -0.032 A 
ATOM     15  C   UNL     1       7.527  -5.639  22.733  0.00  0.00    +0.004 A 
ATOM     16  C   UNL     1       6.309  -5.987  22.147  0.00  0.00    +0.000 A 
ATOM     17  C   UNL     1       5.134  -5.365  22.560  0.00  0.00    +0.000 A 
ATOM     18  C   UNL     1       5.178  -4.397  23.561  0.00  0.00    +0.000 A 
ATOM     19  C   UNL     1       6.397  -4.051  24.150  0.00  0.00    +0.004 A 
ENDBRANCH  13  14
BRANCH  13  20
ATOM     20  C   UNL     1       9.416  -5.310  25.453  0.00  0.00    +0.175 C 
BRANCH  20  21
ATOM     21  O   UNL     1       8.427  -5.764  26.376  0.00  0.00    -0.394 OA
ATOM     22  H   UNL     1       8.586  -5.332  27.236  0.00  0.00    +0.209 HD
ENDBRANCH  20  21
ENDBRANCH  13  20
ENDBRANCH   1  13
TORSDOF 6
ENDMDL
MODEL 4
REMARK VINA RESULT:      -6.2      1.281      2.097
REMARK  Name = 
REMARK  7 active torsions:
REMARK  status: ('A' for Active; 'I' for Inactive)
REMARK    1  A    between atoms: C_1  and  N_2
REMARK    2  A    between atoms: C_10  and  O_13
REMARK    3  A    between atoms: O_13  and  C_14
REMARK    4  A    between atoms: C_14  and  C_16
REMARK    5  A    between atoms: C_16  and  C_17
REMARK    6  A    between atoms: C_16  and  C_19
REMARK    7  A    between atoms: C_17  and  O_18
REMARK                            x       y       z     vdW  Elec       q    Type
REMARK                         _______ _______ _______ _____ _____    ______ ____
ROOT
ATOM      1  C   UNL     1       7.014  -2.701  25.714  0.00  0.00    +0.317 C 
ATOM      2  O   UNL     1       5.839  -2.361  25.784  0.00  0.00    -0.250 OA
ENDROOT
BRANCH   1   3
ATOM      3  O   UNL     1       8.058  -1.838  25.580  0.00  0.00    -0.461 OA
BRANCH   3   8
ATOM      4  C   UNL     1       9.347  -0.202  21.376  0.00  0.00    +0.105 C 
ATOM      5  N   UNL     1       9.803   0.451  22.592  0.00  0.00    -0.299 NA
ATOM      6  C   UNL     1       8.757   1.018  23.444  0.00  0.00    +0.060 C 
ATOM      7  C   UNL     1       7.731  -0.017  23.913  0.00  0.00    +0.063 C 
ATOM      8  C   UNL     1       8.302  -1.415  24.224  0.00  0.00    +0.179 C 
ATOM      9  C   UNL     1       9.801  -1.636  23.949  0.00  0.00    +0.063 C 
ATOM     10  C   UNL     1       9.586   1.526  24.625  0.00  0.00    +0.020 C 
ATOM     11  C   UNL     1      10.775   0.574  24.692  0.00  0.00    +0.020 C 
ATOM     12  C   UNL     1      10.570  -0.386  23.515  0.00  0.00    +0.060 C 
ENDBRANCH   3   8
ENDBRANCH   1   3
BRANCH   1  13
ATOM     13  C   UNL     1       7.501  -4.136  25.719  0.00  0.00    +0.153 C 
BRANCH  13  14
ATOM     14  C   UNL     1       6.997  -4.898  24.499  0.00  0.00    -0.032 A 
ATOM     15  C   UNL     1       5.708  -5.453  24.457  0.00  0.00    +0.004 A 
ATOM     16  C   UNL     1       5.249  -6.120  23.320  0.00  0.00    +0.000 A 
ATOM     17  C   UNL     1       6.072  -6.243  22.204  0.00  0.00    +0.000 A 
ATOM     18  C   UNL     1       7.353  -5.696  22.226  0.00  0.00    +0.000 A 
ATOM     19  C   UNL     1       7.812  -5.026  23.362  0.00  0.00    +0.004 A 
ENDBRANCH  13  14
BRANCH  13  20
ATOM     20  C   UNL     1       7.172  -4.776  27.073  0.00  0.00    +0.175 C 
BRANCH  20  21
ATOM     21  O   UNL     1       8.017  -5.866  27.437  0.00  0.00    -0.394 OA
ATOM     22  H   UNL     1       7.779  -6.638  26.888  0.00  0.00    +0.209 HD
ENDBRANCH  20  21
ENDBRANCH  13  20
ENDBRANCH   1  13
TORSDOF 6
ENDMDL
MODEL 5
REMARK VINA RESULT:      -6.2      3.513      7.584
REMARK  Name = 
REMARK  7 active torsions:
REMARK  status: ('A' for Active; 'I' for Inactive)
REMARK    1  A    between atoms: C_1  and  N_2
REMARK    2  A    between atoms: C_10  and  O_13
REMARK    3  A    between atoms: O_13  and  C_14
REMARK    4  A    between atoms: C_14  and  C_16
REMARK    5  A    between atoms: C_16  and  C_17
REMARK    6  A    between atoms: C_16  and  C_19
REMARK    7  A    between atoms: C_17  and  O_18
REMARK                            x       y       z     vdW  Elec       q    Type
REMARK                         _______ _______ _______ _____ _____    ______ ____
ROOT
ATOM      1  C   UNL     1      10.338   1.160  23.893  0.00  0.00    +0.317 C 
ATOM      2  O   UNL     1      11.326   0.920  24.576  0.00  0.00    -0.250 OA
ENDROOT
BRANCH   1   3
ATOM      3  O   UNL     1       9.158   0.487  23.982  0.00  0.00    -0.461 OA
BRANCH   3   8
ATOM      4  C   UNL     1       9.196  -4.131  24.811  0.00  0.00    +0.105 C 
ATOM      5  N   UNL     1       8.021  -3.495  24.238  0.00  0.00    -0.299 NA
ATOM      6  C   UNL     1       7.371  -2.483  25.072  0.00  0.00    +0.060 C 
ATOM      7  C   UNL     1       8.298  -1.328  25.455  0.00  0.00    +0.063 C 
ATOM      8  C   UNL     1       9.297  -0.896  24.364  0.00  0.00    +0.179 C 
ATOM      9  C   UNL     1       9.312  -1.719  23.063  0.00  0.00    +0.063 C 
ATOM     10  C   UNL     1       6.265  -1.997  24.133  0.00  0.00    +0.020 C 
ATOM     11  C   UNL     1       6.848  -2.177  22.736  0.00  0.00    +0.020 C 
ATOM     12  C   UNL     1       8.229  -2.798  22.969  0.00  0.00    +0.060 C 
ENDBRANCH   3   8
ENDBRANCH   1   3
BRANCH   1  13
ATOM     13  C   UNL     1      10.274   2.213  22.805  0.00  0.00    +0.153 C 
BRANCH  13  14
ATOM     14  C   UNL     1      10.560   3.604  23.359  0.00  0.00    -0.032 A 
ATOM     15  C   UNL     1      11.830   4.193  23.251  0.00  0.00    +0.004 A 
ATOM     16  C   UNL     1      12.068   5.481  23.734  0.00  0.00    +0.000 A 
ATOM     17  C   UNL     1      11.039   6.202  24.333  0.00  0.00    +0.000 A 
ATOM     18  C   UNL     1       9.772   5.635  24.446  0.00  0.00    +0.000 A 
ATOM     19  C   UNL     1       9.532   4.347  23.960  0.00  0.00    +0.004 A 
ENDBRANCH  13  14
BRANCH  13  20
ATOM     20  C   UNL     1       8.950   2.071  22.042  0.00  0.00    +0.175 C 
BRANCH  20  21
ATOM     21  O   UNL     1       8.973   1.117  20.982  0.00  0.00    -0.394 OA
ATOM     22  H   UNL     1       8.152   0.592  21.021  0.00  0.00    +0.209 HD
ENDBRANCH  20  21
ENDBRANCH  13  20
ENDBRANCH   1  13
TORSDOF 6
ENDMDL
MODEL 6
REMARK VINA RESULT:      -6.1      2.664      6.549
REMARK  Name = 
REMARK  7 active torsions:
REMARK  status: ('A' for Active; 'I' for Inactive)
REMARK    1  A    between atoms: C_1  and  N_2
REMARK    2  A    between atoms: C_10  and  O_13
REMARK    3  A    between atoms: O_13  and  C_14
REMARK    4  A    between atoms: C_14  and  C_16
REMARK    5  A    between atoms: C_16  and  C_17
REMARK    6  A    between atoms: C_16  and  C_19
REMARK    7  A    between atoms: C_17  and  O_18
REMARK                            x       y       z     vdW  Elec       q    Type
REMARK                         _______ _______ _______ _____ _____    ______ ____
ROOT
ATOM      1  C   UNL     1       9.582  -0.255  24.040  0.00  0.00    +0.317 C 
ATOM      2  O   UNL     1      10.152  -0.092  25.113  0.00  0.00    -0.250 OA
ENDROOT
BRANCH   1   3
ATOM      3  O   UNL     1       8.630  -1.200  23.810  0.00  0.00    -0.461 OA
BRANCH   3   8
ATOM      4  C   UNL     1       8.212  -4.850  26.729  0.00  0.00    +0.105 C 
ATOM      5  N   UNL     1       7.567  -4.870  25.426  0.00  0.00    -0.299 NA
ATOM      6  C   UNL     1       6.554  -3.839  25.198  0.00  0.00    +0.060 C 
ATOM      7  C   UNL     1       7.094  -2.416  25.348  0.00  0.00    +0.063 C 
ATOM      8  C   UNL     1       8.534  -2.201  24.842  0.00  0.00    +0.179 C 
ATOM      9  C   UNL     1       9.289  -3.443  24.332  0.00  0.00    +0.063 C 
ATOM     10  C   UNL     1       6.174  -4.120  23.742  0.00  0.00    +0.020 C 
ATOM     11  C   UNL     1       7.448  -4.681  23.120  0.00  0.00    +0.020 C 
ATOM     12  C   UNL     1       8.456  -4.727  24.273  0.00  0.00    +0.060 C 
ENDBRANCH   3   8
ENDBRANCH   1   3
BRANCH   1  13
ATOM     13  C   UNL     1       9.869   0.536  22.780  0.00  0.00    +0.153 C 
BRANCH  13  14
ATOM     14  C   UNL     1       9.162   1.886  22.797  0.00  0.00    -0.032 A 
ATOM     15  C   UNL     1       7.995   2.117  22.051  0.00  0.00    +0.004 A 
ATOM     16  C   UNL     1       7.341   3.349  22.103  0.00  0.00    +0.000 A 
ATOM     17  C   UNL     1       7.842   4.371  22.903  0.00  0.00    +0.000 A 
ATOM     18  C   UNL     1       8.998   4.160  23.652  0.00  0.00    +0.000 A 
ATOM     19  C   UNL     1       9.651   2.927  23.603  0.00  0.00    +0.004 A 
ENDBRANCH  13  14
BRANCH  13  20
ATOM     20  C   UNL     1       9.576  -0.341  21.556  0.00  0.00    +0.175 C 
BRANCH  20  21
ATOM     21  O   UNL     1      10.318  -1.559  21.506  0.00  0.00    -0.394 OA
ATOM     22  H   UNL     1      11.049  -1.502  22.150  0.00  0.00    +0.209 HD
ENDBRANCH  20  21
ENDBRANCH  13  20
ENDBRANCH   1  13
TORSDOF 6
ENDMDL
MODEL 7
REMARK VINA RESULT:      -6.1      2.598      5.966
REMARK  Name = 
REMARK  7 active torsions:
REMARK  status: ('A' for Active; 'I' for Inactive)
REMARK    1  A    between atoms: C_1  and  N_2
REMARK    2  A    between atoms: C_10  and  O_13
REMARK    3  A    between atoms: O_13  and  C_14
REMARK    4  A    between atoms: C_14  and  C_16
REMARK    5  A    between atoms: C_16  and  C_17
REMARK    6  A    between atoms: C_16  and  C_19
REMARK    7  A    between atoms: C_17  and  O_18
REMARK                            x       y       z     vdW  Elec       q    Type
REMARK                         _______ _______ _______ _____ _____    ______ ____
ROOT
ATOM      1  C   UNL     1       9.411  -1.692  22.640  0.00  0.00    +0.317 C 
ATOM      2  O   UNL     1      10.576  -1.842  22.288  0.00  0.00    -0.250 OA
ENDROOT
BRANCH   1   3
ATOM      3  O   UNL     1       8.348  -2.325  22.074  0.00  0.00    -0.461 OA
BRANCH   3   8
ATOM      4  C   UNL     1       5.471  -4.678  24.938  0.00  0.00    +0.105 C 
ATOM      5  N   UNL     1       5.843  -5.234  23.648  0.00  0.00    -0.299 NA
ATOM      6  C   UNL     1       5.434  -4.458  22.476  0.00  0.00    +0.060 C 
ATOM      7  C   UNL     1       5.993  -3.034  22.467  0.00  0.00    +0.063 C 
ATOM      8  C   UNL     1       7.422  -2.884  23.026  0.00  0.00    +0.179 C 
ATOM      9  C   UNL     1       8.083  -4.149  23.604  0.00  0.00    +0.063 C 
ATOM     10  C   UNL     1       6.053  -5.286  21.348  0.00  0.00    +0.020 C 
ATOM     11  C   UNL     1       7.295  -5.912  21.974  0.00  0.00    +0.020 C 
ATOM     12  C   UNL     1       7.275  -5.438  23.431  0.00  0.00    +0.060 C 
ENDBRANCH   3   8
ENDBRANCH   1   3
BRANCH   1  13
ATOM     13  C   UNL     1       8.954  -0.745  23.731  0.00  0.00    +0.153 C 
BRANCH  13  14
ATOM     14  C   UNL     1       8.190   0.442  23.154  0.00  0.00    -0.032 A 
ATOM     15  C   UNL     1       6.927   0.813  23.642  0.00  0.00    +0.004 A 
ATOM     16  C   UNL     1       6.255   1.922  23.126  0.00  0.00    +0.000 A 
ATOM     17  C   UNL     1       6.836   2.680  22.113  0.00  0.00    +0.000 A 
ATOM     18  C   UNL     1       8.090   2.329  21.618  0.00  0.00    +0.000 A 
ATOM     19  C   UNL     1       8.764   1.220  22.136  0.00  0.00    +0.004 A 
ENDBRANCH  13  14
BRANCH  13  20
ATOM     20  C   UNL     1      10.150  -0.384  24.621  0.00  0.00    +0.175 C 
BRANCH  20  21
ATOM     21  O   UNL     1       9.927   0.719  25.499  0.00  0.00    -0.394 OA
ATOM     22  H   UNL     1       9.979   1.543  24.979  0.00  0.00    +0.209 HD
ENDBRANCH  20  21
ENDBRANCH  13  20
ENDBRANCH   1  13
TORSDOF 6
ENDMDL
MODEL 8
REMARK VINA RESULT:      -6.0      2.428      3.789
REMARK  Name = 
REMARK  7 active torsions:
REMARK  status: ('A' for Active; 'I' for Inactive)
REMARK    1  A    between atoms: C_1  and  N_2
REMARK    2  A    between atoms: C_10  and  O_13
REMARK    3  A    between atoms: O_13  and  C_14
REMARK    4  A    between atoms: C_14  and  C_16
REMARK    5  A    between atoms: C_16  and  C_17
REMARK    6  A    between atoms: C_16  and  C_19
REMARK    7  A    between atoms: C_17  and  O_18
REMARK                            x       y       z     vdW  Elec       q    Type
REMARK                         _______ _______ _______ _____ _____    ______ ____
ROOT
ATOM      1  C   UNL     1       5.811  -1.495  24.353  0.00  0.00    +0.317 C 
ATOM      2  O   UNL     1       5.358  -0.856  25.296  0.00  0.00    -0.250 OA
ENDROOT
BRANCH   1   3
ATOM      3  O   UNL     1       6.509  -0.950  23.319  0.00  0.00    -0.461 OA
BRANCH   3   8
ATOM      4  C   UNL     1      10.231   1.787  24.137  0.00  0.00    +0.105 C 
ATOM      5  N   UNL     1      10.345   0.627  23.268  0.00  0.00    -0.299 NA
ATOM      6  C   UNL     1      10.085  -0.670  23.895  0.00  0.00    +0.060 C 
ATOM      7  C   UNL     1       8.689  -0.775  24.511  0.00  0.00    +0.063 C 
ATOM      8  C   UNL     1       7.568  -0.063  23.727  0.00  0.00    +0.179 C 
ATOM      9  C   UNL     1       7.987   0.737  22.479  0.00  0.00    +0.063 C 
ATOM     10  C   UNL     1      10.215  -1.607  22.693  0.00  0.00    +0.020 C 
ATOM     11  C   UNL     1       9.773  -0.761  21.503  0.00  0.00    +0.020 C 
ATOM     12  C   UNL     1       9.465   0.617  22.100  0.00  0.00    +0.060 C 
ENDBRANCH   3   8
ENDBRANCH   1   3
BRANCH   1  13
ATOM     13  C   UNL     1       5.634  -2.987  24.155  0.00  0.00    +0.153 C 
BRANCH  13  14
ATOM     14  C   UNL     1       6.778  -3.771  24.786  0.00  0.00    -0.032 A 
ATOM     15  C   UNL     1       7.807  -4.327  24.010  0.00  0.00    +0.004 A 
ATOM     16  C   UNL     1       8.866  -5.015  24.606  0.00  0.00    +0.000 A 
ATOM     17  C   UNL     1       8.914  -5.158  25.989  0.00  0.00    +0.000 A 
ATOM     18  C   UNL     1       7.903  -4.610  26.777  0.00  0.00    +0.000 A 
ATOM     19  C   UNL     1       6.845  -3.920  26.181  0.00  0.00    +0.004 A 
ENDBRANCH  13  14
BRANCH  13  20
ATOM     20  C   UNL     1       5.385  -3.273  22.668  0.00  0.00    +0.175 C 
BRANCH  20  21
ATOM     21  O   UNL     1       4.583  -4.424  22.410  0.00  0.00    -0.394 OA
ATOM     22  H   UNL     1       3.946  -4.204  21.705  0.00  0.00    +0.209 HD
ENDBRANCH  20  21
ENDBRANCH  13  20
ENDBRANCH   1  13
TORSDOF 6
ENDMDL
MODEL 9
REMARK VINA RESULT:      -6.0      1.730      2.496
REMARK  Name = 
REMARK  7 active torsions:
REMARK  status: ('A' for Active; 'I' for Inactive)
REMARK    1  A    between atoms: C_1  and  N_2
REMARK    2  A    between atoms: C_10  and  O_13
REMARK    3  A    between atoms: O_13  and  C_14
REMARK    4  A    between atoms: C_14  and  C_16
REMARK    5  A    between atoms: C_16  and  C_17
REMARK    6  A    between atoms: C_16  and  C_19
REMARK    7  A    between atoms: C_17  and  O_18
REMARK                            x       y       z     vdW  Elec       q    Type
REMARK                         _______ _______ _______ _____ _____    ______ ____
ROOT
ATOM      1  C   UNL     1       8.115  -4.173  23.615  0.00  0.00    +0.317 C 
ATOM      2  O   UNL     1       7.540  -4.335  22.544  0.00  0.00    -0.250 OA
ENDROOT
BRANCH   1   3
ATOM      3  O   UNL     1       9.030  -3.195  23.857  0.00  0.00    -0.461 OA
BRANCH   3   8
ATOM      4  C   UNL     1       8.963   0.846  21.473  0.00  0.00    +0.105 C 
ATOM      5  N   UNL     1       9.316   0.827  22.883  0.00  0.00    -0.299 NA
ATOM      6  C   UNL     1       8.274   0.358  23.797  0.00  0.00    +0.060 C 
ATOM      7  C   UNL     1       7.796  -1.063  23.492  0.00  0.00    +0.063 C 
ATOM      8  C   UNL     1       8.890  -2.036  23.011  0.00  0.00    +0.179 C 
ATOM      9  C   UNL     1      10.303  -1.457  22.810  0.00  0.00    +0.063 C 
ATOM     10  C   UNL     1       9.017   0.401  25.134  0.00  0.00    +0.020 C 
ATOM     11  C   UNL     1      10.473   0.133  24.767  0.00  0.00    +0.020 C 
ATOM     12  C   UNL     1      10.470   0.003  23.240  0.00  0.00    +0.060 C 
ENDBRANCH   3   8
ENDBRANCH   1   3
BRANCH   1  13
ATOM     13  C   UNL     1       7.939  -5.057  24.832  0.00  0.00    +0.153 C 
BRANCH  13  14
ATOM     14  C   UNL     1       6.582  -4.834  25.491  0.00  0.00    -0.032 A 
ATOM     15  C   UNL     1       6.056  -3.546  25.676  0.00  0.00    +0.004 A 
ATOM     16  C   UNL     1       4.797  -3.360  26.250  0.00  0.00    +0.000 A 
ATOM     17  C   UNL     1       4.043  -4.459  26.649  0.00  0.00    +0.000 A 
ATOM     18  C   UNL     1       4.548  -5.746  26.471  0.00  0.00    +0.000 A 
ATOM     19  C   UNL     1       5.806  -5.933  25.894  0.00  0.00    +0.004 A 
ENDBRANCH  13  14
BRANCH  13  20
ATOM     20  C   UNL     1       9.151  -4.890  25.757  0.00  0.00    +0.175 C 
BRANCH  20  21
ATOM     21  O   UNL     1      10.331  -5.562  25.319  0.00  0.00    -0.394 OA
ATOM     22  H   UNL     1      10.277  -6.495  25.600  0.00  0.00    +0.209 HD
ENDBRANCH  20  21
ENDBRANCH  13  20
ENDBRANCH   1  13
TORSDOF 6
ENDMDL
