MODEL 1
REMARK VINA RESULT:      -6.2      0.000      0.000
REMARK  Name = 
REMARK  16 active torsions:
REMARK  status: ('A' for Active; 'I' for Inactive)
REMARK    1  A    between atoms: C_1  and  C_2
REMARK    2  A    between atoms: C_2  and  C_3
REMARK    3  A    between atoms: C_3  and  C_4
REMARK    4  A    between atoms: C_4  and  CA_5
REMARK    5  A    between atoms: CA_5  and  N_7
REMARK    6  A    between atoms: CA_5  and  C_23
REMARK    7  A    between atoms: N_7  and  C_8
REMARK    8  A    between atoms: C_8  and  C_9
REMARK    9  A    between atoms: C_10  and  O_11
REMARK   10  A    between atoms: C_12  and  C_13
REMARK   11  A    between atoms: C_16  and  C_17
REMARK   12  A    between atoms: C_17  and  O_18
REMARK   13  A    between atoms: O_18  and  P_19
REMARK   14  A    between atoms: P_19  and  O_20
REMARK   15  A    between atoms: P_19  and  O_21
REMARK   16  A    between atoms: C_23  and  O_24
REMARK                            x       y       z     vdW  Elec       q    Type
REMARK                         _______ _______ _______ _____ _____    ______ ____
ROOT
ATOM      1  C   UNL     1       6.802  -3.607  24.358  0.00  0.00    +0.016 A 
ATOM      2  C   UNL     1       6.187  -4.471  25.281  0.00  0.00    +0.005 A 
ATOM      3  C   UNL     1       5.617  -5.646  24.773  0.00  0.00    +0.117 A 
ATOM      4  N   UNL     1       5.632  -6.026  23.477  0.00  0.00    -0.256 NA
ATOM      5  C   UNL     1       6.253  -5.207  22.600  0.00  0.00    +0.080 A 
ATOM      6  C   UNL     1       6.254  -5.653  21.170  0.00  0.00    +0.069 C 
ATOM      7  C   UNL     1       6.859  -4.020  23.009  0.00  0.00    +0.142 A 
ENDROOT
BRANCH   7   8
ATOM      8  O   UNL     1       7.537  -3.266  22.089  0.00  0.00    -0.505 OA
ATOM      9  H   UNL     1       7.227  -2.352  22.218  0.00  0.00    +0.292 HD
ENDBRANCH   7   8
BRANCH   1  10
ATOM     10  C   UNL     1       7.332  -2.239  24.737  0.00  0.00    +0.121 C 
BRANCH  10  11
ATOM     11  N   UNL     1       8.805  -2.180  24.601  0.00  0.00    -0.300 NA
ATOM     12  H   UNL     1       9.193  -2.242  25.546  0.00  0.00    +0.123 HD
BRANCH  11  13
ATOM     13  CA  UNL     1       9.262  -0.885  24.009  0.00  0.00    +0.164 C 
BRANCH  13  14
ATOM     14  C   UNL     1      10.016  -0.063  25.075  0.00  0.00    +0.322 C 
ATOM     15  OXT UNL     1      11.088   0.496  24.911  0.00  0.00    -0.249 OA
BRANCH  14  16
ATOM     16  O   UNL     1       9.347  -0.028  26.255  0.00  0.00    -0.480 OA
ATOM     17  H   UNL     1       9.853  -0.497  26.948  0.00  0.00    +0.295 HD
ENDBRANCH  14  16
ENDBRANCH  13  14
BRANCH  13  18
ATOM     18  C   UNL     1      10.075  -0.967  22.703  0.00  0.00    +0.030 C 
BRANCH  18  19
ATOM     19  C   UNL     1       9.448  -0.212  21.528  0.00  0.00    +0.002 C 
BRANCH  19  21
ATOM     20  C   UNL     1       8.356   2.045  21.842  0.00  0.00    +0.004 C 
ATOM     21  C   UNL     1       9.668   1.296  21.676  0.00  0.00    -0.003 C 
ENDBRANCH  19  21
ENDBRANCH  18  19
ENDBRANCH  13  18
ENDBRANCH  11  13
ENDBRANCH  10  11
ENDBRANCH   1  10
BRANCH   2  22
ATOM     22  C   UNL     1       6.066  -4.219  26.762  0.00  0.00    +0.209 C 
BRANCH  22  23
ATOM     23  O   UNL     1       5.383  -5.326  27.312  0.00  0.00    -0.282 OA
BRANCH  23  24
ATOM     24  P   UNL     1       6.005  -6.061  28.585  0.00  0.00    +0.473 P 
ATOM     25  O   UNL     1       5.873  -5.399  29.906  0.00  0.00    -0.228 OA
BRANCH  24  26
ATOM     26  O   UNL     1       7.488  -6.241  28.038  0.00  0.00    -0.303 OA
ATOM     27  H   UNL     1       8.024  -5.445  28.230  0.00  0.00    +0.222 HD
ENDBRANCH  24  26
BRANCH  24  28
ATOM     28  O   UNL     1       5.491  -7.563  28.431  0.00  0.00    -0.303 OA
ATOM     29  H   UNL     1       5.450  -7.999  29.304  0.00  0.00    +0.222 HD
ENDBRANCH  24  28
ENDBRANCH  23  24
ENDBRANCH  22  23
ENDBRANCH   2  22
TORSDOF 14
ENDMDL
MODEL 2
REMARK VINA RESULT:      -6.1      1.455      1.879
REMARK  Name = 
REMARK  16 active torsions:
REMARK  status: ('A' for Active; 'I' for Inactive)
REMARK    1  A    between atoms: C_1  and  C_2
REMARK    2  A    between atoms: C_2  and  C_3
REMARK    3  A    between atoms: C_3  and  C_4
REMARK    4  A    between atoms: C_4  and  CA_5
REMARK    5  A    between atoms: CA_5  and  N_7
REMARK    6  A    between atoms: CA_5  and  C_23
REMARK    7  A    between atoms: N_7  and  C_8
REMARK    8  A    between atoms: C_8  and  C_9
REMARK    9  A    between atoms: C_10  and  O_11
REMARK   10  A    between atoms: C_12  and  C_13
REMARK   11  A    between atoms: C_16  and  C_17
REMARK   12  A    between atoms: C_17  and  O_18
REMARK   13  A    between atoms: O_18  and  P_19
REMARK   14  A    between atoms: P_19  and  O_20
REMARK   15  A    between atoms: P_19  and  O_21
REMARK   16  A    between atoms: C_23  and  O_24
REMARK                            x       y       z     vdW  Elec       q    Type
REMARK                         _______ _______ _______ _____ _____    ______ ____
ROOT
ATOM      1  C   UNL     1       7.009  -3.850  24.312  0.00  0.00    +0.016 A 
ATOM      2  C   UNL     1       6.324  -4.576  25.302  0.00  0.00    +0.005 A 
ATOM      3  C   UNL     1       5.557  -5.669  24.876  0.00  0.00    +0.117 A 
ATOM      4  N   UNL     1       5.441  -6.093  23.599  0.00  0.00    -0.256 NA
ATOM      5  C   UNL     1       6.128  -5.410  22.657  0.00  0.00    +0.080 A 
ATOM      6  C   UNL     1       5.981  -5.903  21.249  0.00  0.00    +0.069 C 
ATOM      7  C   UNL     1       6.928  -4.315  22.981  0.00  0.00    +0.142 A 
ENDROOT
BRANCH   7   8
ATOM      8  O   UNL     1       7.658  -3.708  21.996  0.00  0.00    -0.505 OA
ATOM      9  H   UNL     1       7.356  -4.106  21.161  0.00  0.00    +0.292 HD
ENDBRANCH   7   8
BRANCH   1  10
ATOM     10  C   UNL     1       7.760  -2.566  24.602  0.00  0.00    +0.121 C 
BRANCH  10  11
ATOM     11  N   UNL     1       9.212  -2.732  24.373  0.00  0.00    -0.300 NA
ATOM     12  H   UNL     1       9.629  -2.980  25.275  0.00  0.00    +0.123 HD
BRANCH  11  13
ATOM     13  CA  UNL     1       9.856  -1.464  23.913  0.00  0.00    +0.164 C 
BRANCH  13  14
ATOM     14  C   UNL     1       9.311  -1.079  22.521  0.00  0.00    +0.322 C 
ATOM     15  OXT UNL     1       8.377  -0.323  22.310  0.00  0.00    -0.249 OA
BRANCH  14  16
ATOM     16  O   UNL     1       9.997  -1.689  21.522  0.00  0.00    -0.480 OA
ATOM     17  H   UNL     1      10.790  -2.139  21.878  0.00  0.00    +0.295 HD
ENDBRANCH  14  16
ENDBRANCH  13  14
BRANCH  13  18
ATOM     18  C   UNL     1       9.793  -0.264  24.877  0.00  0.00    +0.030 C 
BRANCH  18  19
ATOM     19  C   UNL     1      10.749   0.876  24.518  0.00  0.00    +0.002 C 
BRANCH  19  21
ATOM     20  C   UNL     1      10.824   3.144  23.407  0.00  0.00    +0.004 C 
ATOM     21  C   UNL     1       9.969   2.147  24.172  0.00  0.00    -0.003 C 
ENDBRANCH  19  21
ENDBRANCH  18  19
ENDBRANCH  13  18
ENDBRANCH  11  13
ENDBRANCH  10  11
ENDBRANCH   1  10
BRANCH   2  22
ATOM     22  C   UNL     1       6.326  -4.255  26.774  0.00  0.00    +0.209 C 
BRANCH  22  23
ATOM     23  O   UNL     1       5.475  -5.193  27.400  0.00  0.00    -0.282 OA
BRANCH  23  24
ATOM     24  P   UNL     1       6.038  -6.047  28.625  0.00  0.00    +0.473 P 
ATOM     25  O   UNL     1       5.941  -5.463  29.986  0.00  0.00    -0.228 OA
BRANCH  24  26
ATOM     26  O   UNL     1       7.510  -6.291  28.073  0.00  0.00    -0.303 OA
ATOM     27  H   UNL     1       7.958  -5.437  27.901  0.00  0.00    +0.222 HD
ENDBRANCH  24  26
BRANCH  24  28
ATOM     28  O   UNL     1       5.428  -7.499  28.374  0.00  0.00    -0.303 OA
ATOM     29  H   UNL     1       5.355  -7.677  27.417  0.00  0.00    +0.222 HD
ENDBRANCH  24  28
ENDBRANCH  23  24
ENDBRANCH  22  23
ENDBRANCH   2  22
TORSDOF 14
ENDMDL
MODEL 3
REMARK VINA RESULT:      -6.1      3.317      4.282
REMARK  Name = 
REMARK  16 active torsions:
REMARK  status: ('A' for Active; 'I' for Inactive)
REMARK    1  A    between atoms: C_1  and  C_2
REMARK    2  A    between atoms: C_2  and  C_3
REMARK    3  A    between atoms: C_3  and  C_4
REMARK    4  A    between atoms: C_4  and  CA_5
REMARK    5  A    between atoms: CA_5  and  N_7
REMARK    6  A    between atoms: CA_5  and  C_23
REMARK    7  A    between atoms: N_7  and  C_8
REMARK    8  A    between atoms: C_8  and  C_9
REMARK    9  A    between atoms: C_10  and  O_11
REMARK   10  A    between atoms: C_12  and  C_13
REMARK   11  A    between atoms: C_16  and  C_17
REMARK   12  A    between atoms: C_17  and  O_18
REMARK   13  A    between atoms: O_18  and  P_19
REMARK   14  A    between atoms: P_19  and  O_20
REMARK   15  A    between atoms: P_19  and  O_21
REMARK   16  A    between atoms: C_23  and  O_24
REMARK                            x       y       z     vdW  Elec       q    Type
REMARK                         _______ _______ _______ _____ _____    ______ ____
ROOT
ATOM      1  C   UNL     1       7.231  -3.766  24.296  0.00  0.00    +0.016 A 
ATOM      2  C   UNL     1       6.082  -2.976  24.481  0.00  0.00    +0.005 A 
ATOM      3  C   UNL     1       5.016  -3.181  23.595  0.00  0.00    +0.117 A 
ATOM      4  N   UNL     1       4.993  -4.090  22.596  0.00  0.00    -0.256 NA
ATOM      5  C   UNL     1       6.087  -4.869  22.444  0.00  0.00    +0.080 A 
ATOM      6  C   UNL     1       6.034  -5.867  21.328  0.00  0.00    +0.069 C 
ATOM      7  C   UNL     1       7.195  -4.748  23.282  0.00  0.00    +0.142 A 
ENDROOT
BRANCH   7   8
ATOM      8  O   UNL     1       8.245  -5.612  23.127  0.00  0.00    -0.505 OA
ATOM      9  H   UNL     1       8.972  -5.080  22.758  0.00  0.00    +0.292 HD
ENDBRANCH   7   8
BRANCH   1  10
ATOM     10  C   UNL     1       8.509  -3.559  25.081  0.00  0.00    +0.121 C 
BRANCH  10  11
ATOM     11  N   UNL     1       9.676  -3.428  24.180  0.00  0.00    -0.300 NA
ATOM     12  H   UNL     1      10.488  -3.786  24.691  0.00  0.00    +0.123 HD
BRANCH  11  13
ATOM     13  CA  UNL     1       9.956  -2.003  23.829  0.00  0.00    +0.164 C 
BRANCH  13  14
ATOM     14  C   UNL     1       9.441  -1.705  22.406  0.00  0.00    +0.322 C 
ATOM     15  OXT UNL     1       8.273  -1.550  22.092  0.00  0.00    -0.249 OA
BRANCH  14  16
ATOM     16  O   UNL     1      10.455  -1.635  21.505  0.00  0.00    -0.480 OA
ATOM     17  H   UNL     1      10.102  -1.643  20.594  0.00  0.00    +0.295 HD
ENDBRANCH  14  16
ENDBRANCH  13  14
BRANCH  13  18
ATOM     18  C   UNL     1       9.465  -0.933  24.824  0.00  0.00    +0.030 C 
BRANCH  18  19
ATOM     19  C   UNL     1      10.326   0.332  24.857  0.00  0.00    +0.002 C 
BRANCH  19  21
ATOM     20  C   UNL     1       9.529   2.670  24.325  0.00  0.00    +0.004 C 
ATOM     21  C   UNL     1       9.893   1.308  23.758  0.00  0.00    -0.003 C 
ENDBRANCH  19  21
ENDBRANCH  18  19
ENDBRANCH  13  18
ENDBRANCH  11  13
ENDBRANCH  10  11
ENDBRANCH   1  10
BRANCH   2  22
ATOM     22  C   UNL     1       5.921  -1.909  25.533  0.00  0.00    +0.209 C 
BRANCH  22  23
ATOM     23  O   UNL     1       5.199  -0.851  24.937  0.00  0.00    -0.282 OA
BRANCH  23  24
ATOM     24  P   UNL     1       5.919   0.560  24.743  0.00  0.00    +0.473 P 
ATOM     25  O   UNL     1       6.829   1.033  25.816  0.00  0.00    -0.228 OA
BRANCH  24  26
ATOM     26  O   UNL     1       4.621   1.442  24.488  0.00  0.00    -0.303 OA
ATOM     27  H   UNL     1       4.525   1.644  23.534  0.00  0.00    +0.222 HD
ENDBRANCH  24  26
BRANCH  24  28
ATOM     28  O   UNL     1       6.476   0.487  23.250  0.00  0.00    -0.303 OA
ATOM     29  H   UNL     1       6.767   1.371  22.952  0.00  0.00    +0.222 HD
ENDBRANCH  24  28
ENDBRANCH  23  24
ENDBRANCH  22  23
ENDBRANCH   2  22
TORSDOF 14
ENDMDL
MODEL 4
REMARK VINA RESULT:      -6.0      2.514      5.965
REMARK  Name = 
REMARK  16 active torsions:
REMARK  status: ('A' for Active; 'I' for Inactive)
REMARK    1  A    between atoms: C_1  and  C_2
REMARK    2  A    between atoms: C_2  and  C_3
REMARK    3  A    between atoms: C_3  and  C_4
REMARK    4  A    between atoms: C_4  and  CA_5
REMARK    5  A    between atoms: CA_5  and  N_7
REMARK    6  A    between atoms: CA_5  and  C_23
REMARK    7  A    between atoms: N_7  and  C_8
REMARK    8  A    between atoms: C_8  and  C_9
REMARK    9  A    between atoms: C_10  and  O_11
REMARK   10  A    between atoms: C_12  and  C_13
REMARK   11  A    between atoms: C_16  and  C_17
REMARK   12  A    between atoms: C_17  and  O_18
REMARK   13  A    between atoms: O_18  and  P_19
REMARK   14  A    between atoms: P_19  and  O_20
REMARK   15  A    between atoms: P_19  and  O_21
REMARK   16  A    between atoms: C_23  and  O_24
REMARK                            x       y       z     vdW  Elec       q    Type
REMARK                         _______ _______ _______ _____ _____    ______ ____
ROOT
ATOM      1  C   UNL     1       7.503  -0.947  23.997  0.00  0.00    +0.016 A 
ATOM      2  C   UNL     1       8.588  -1.455  24.735  0.00  0.00    +0.005 A 
ATOM      3  C   UNL     1       9.846  -0.888  24.493  0.00  0.00    +0.117 A 
ATOM      4  N   UNL     1      10.098   0.118  23.628  0.00  0.00    -0.256 NA
ATOM      5  C   UNL     1       9.046   0.624  22.946  0.00  0.00    +0.080 A 
ATOM      6  C   UNL     1       9.354   1.740  21.994  0.00  0.00    +0.069 C 
ATOM      7  C   UNL     1       7.752   0.135  23.125  0.00  0.00    +0.142 A 
ENDROOT
BRANCH   7   8
ATOM      8  O   UNL     1       6.716   0.735  22.463  0.00  0.00    -0.505 OA
ATOM      9  H   UNL     1       5.906   0.431  22.911  0.00  0.00    +0.292 HD
ENDBRANCH   7   8
BRANCH   1  10
ATOM     10  C   UNL     1       6.116  -1.553  24.047  0.00  0.00    +0.121 C 
BRANCH  10  11
ATOM     11  N   UNL     1       5.706  -2.060  22.719  0.00  0.00    -0.300 NA
ATOM     12  H   UNL     1       4.890  -1.511  22.430  0.00  0.00    +0.123 HD
BRANCH  11  13
ATOM     13  CA  UNL     1       5.288  -3.494  22.771  0.00  0.00    +0.164 C 
BRANCH  13  14
ATOM     14  C   UNL     1       6.223  -4.342  21.883  0.00  0.00    +0.322 C 
ATOM     15  OXT UNL     1       5.882  -4.980  20.900  0.00  0.00    -0.249 OA
BRANCH  14  16
ATOM     16  O   UNL     1       7.506  -4.310  22.324  0.00  0.00    -0.480 OA
ATOM     17  H   UNL     1       7.772  -3.393  22.532  0.00  0.00    +0.295 HD
ENDBRANCH  14  16
ENDBRANCH  13  14
BRANCH  13  18
ATOM     18  C   UNL     1       5.140  -4.124  24.169  0.00  0.00    +0.030 C 
BRANCH  18  19
ATOM     19  C   UNL     1       4.253  -5.371  24.202  0.00  0.00    +0.002 C 
BRANCH  19  21
ATOM     20  C   UNL     1       2.259  -6.448  23.084  0.00  0.00    +0.004 C 
ATOM     21  C   UNL     1       2.968  -5.142  23.402  0.00  0.00    -0.003 C 
ENDBRANCH  19  21
ENDBRANCH  18  19
ENDBRANCH  13  18
ENDBRANCH  11  13
ENDBRANCH  10  11
ENDBRANCH   1  10
BRANCH   2  22
ATOM     22  C   UNL     1       8.507  -2.576  25.738  0.00  0.00    +0.209 C 
BRANCH  22  23
ATOM     23  O   UNL     1       8.665  -3.782  25.020  0.00  0.00    -0.282 OA
BRANCH  23  24
ATOM     24  P   UNL     1       8.697  -5.160  25.824  0.00  0.00    +0.473 P 
ATOM     25  O   UNL     1       7.403  -5.818  26.133  0.00  0.00    -0.228 OA
BRANCH  24  26
ATOM     26  O   UNL     1       9.548  -4.671  27.075  0.00  0.00    -0.303 OA
ATOM     27  H   UNL     1       9.909  -5.438  27.566  0.00  0.00    +0.222 HD
ENDBRANCH  24  26
BRANCH  24  28
ATOM     28  O   UNL     1       9.818  -6.004  25.066  0.00  0.00    -0.303 OA
ATOM     29  H   UNL     1      10.662  -5.967  25.557  0.00  0.00    +0.222 HD
ENDBRANCH  24  28
ENDBRANCH  23  24
ENDBRANCH  22  23
ENDBRANCH   2  22
TORSDOF 14
ENDMDL
MODEL 5
REMARK VINA RESULT:      -6.0      2.914      4.832
REMARK  Name = 
REMARK  16 active torsions:
REMARK  status: ('A' for Active; 'I' for Inactive)
REMARK    1  A    between atoms: C_1  and  C_2
REMARK    2  A    between atoms: C_2  and  C_3
REMARK    3  A    between atoms: C_3  and  C_4
REMARK    4  A    between atoms: C_4  and  CA_5
REMARK    5  A    between atoms: CA_5  and  N_7
REMARK    6  A    between atoms: CA_5  and  C_23
REMARK    7  A    between atoms: N_7  and  C_8
REMARK    8  A    between atoms: C_8  and  C_9
REMARK    9  A    between atoms: C_10  and  O_11
REMARK   10  A    between atoms: C_12  and  C_13
REMARK   11  A    between atoms: C_16  and  C_17
REMARK   12  A    between atoms: C_17  and  O_18
REMARK   13  A    between atoms: O_18  and  P_19
REMARK   14  A    between atoms: P_19  and  O_20
REMARK   15  A    between atoms: P_19  and  O_21
REMARK   16  A    between atoms: C_23  and  O_24
REMARK                            x       y       z     vdW  Elec       q    Type
REMARK                         _______ _______ _______ _____ _____    ______ ____
ROOT
ATOM      1  C   UNL     1       5.598  -4.467  25.482  0.00  0.00    +0.016 A 
ATOM      2  C   UNL     1       4.718  -5.117  24.597  0.00  0.00    +0.005 A 
ATOM      3  C   UNL     1       4.180  -6.341  25.017  0.00  0.00    +0.117 A 
ATOM      4  N   UNL     1       4.418  -6.934  26.207  0.00  0.00    -0.256 NA
ATOM      5  C   UNL     1       5.238  -6.288  27.066  0.00  0.00    +0.080 A 
ATOM      6  C   UNL     1       5.484  -6.968  28.378  0.00  0.00    +0.069 C 
ATOM      7  C   UNL     1       5.815  -5.060  26.745  0.00  0.00    +0.142 A 
ENDROOT
BRANCH   7   8
ATOM      8  O   UNL     1       6.578  -4.417  27.681  0.00  0.00    -0.505 OA
ATOM      9  H   UNL     1       6.554  -4.982  28.474  0.00  0.00    +0.292 HD
ENDBRANCH   7   8
BRANCH   1  10
ATOM     10  C   UNL     1       6.364  -3.215  25.109  0.00  0.00    +0.121 C 
BRANCH  10  11
ATOM     11  N   UNL     1       7.484  -3.526  24.193  0.00  0.00    -0.300 NA
ATOM     12  H   UNL     1       7.413  -4.522  23.964  0.00  0.00    +0.123 HD
BRANCH  11  13
ATOM     13  CA  UNL     1       8.814  -3.305  24.838  0.00  0.00    +0.164 C 
BRANCH  13  14
ATOM     14  C   UNL     1       9.310  -4.621  25.472  0.00  0.00    +0.322 C 
ATOM     15  OXT UNL     1       9.405  -4.840  26.669  0.00  0.00    -0.249 OA
BRANCH  14  16
ATOM     16  O   UNL     1       9.647  -5.541  24.533  0.00  0.00    -0.480 OA
ATOM     17  H   UNL     1      10.609  -5.513  24.358  0.00  0.00    +0.295 HD
ENDBRANCH  14  16
ENDBRANCH  13  14
BRANCH  13  18
ATOM     18  C   UNL     1       9.913  -2.670  23.963  0.00  0.00    +0.030 C 
BRANCH  18  19
ATOM     19  C   UNL     1       9.651  -1.207  23.597  0.00  0.00    +0.002 C 
BRANCH  19  21
ATOM     20  C   UNL     1      10.982   0.740  24.502  0.00  0.00    +0.004 C 
ATOM     21  C   UNL     1       9.909  -0.294  24.799  0.00  0.00    -0.003 C 
ENDBRANCH  19  21
ENDBRANCH  18  19
ENDBRANCH  13  18
ENDBRANCH  11  13
ENDBRANCH  10  11
ENDBRANCH   1  10
BRANCH   2  22
ATOM     22  C   UNL     1       4.335  -4.618  23.228  0.00  0.00    +0.209 C 
BRANCH  22  23
ATOM     23  O   UNL     1       4.815  -5.566  22.297  0.00  0.00    -0.282 OA
BRANCH  23  24
ATOM     24  P   UNL     1       6.231  -5.319  21.605  0.00  0.00    +0.473 P 
ATOM     25  O   UNL     1       7.436  -5.885  22.261  0.00  0.00    -0.228 OA
BRANCH  24  26
ATOM     26  O   UNL     1       6.164  -3.733  21.515  0.00  0.00    -0.303 OA
ATOM     27  H   UNL     1       6.307  -3.332  22.398  0.00  0.00    +0.222 HD
ENDBRANCH  24  26
BRANCH  24  28
ATOM     28  O   UNL     1       5.961  -5.674  20.074  0.00  0.00    -0.303 OA
ATOM     29  H   UNL     1       5.014  -5.568  19.862  0.00  0.00    +0.222 HD
ENDBRANCH  24  28
ENDBRANCH  23  24
ENDBRANCH  22  23
ENDBRANCH   2  22
TORSDOF 14
ENDMDL
MODEL 6
REMARK VINA RESULT:      -5.9      2.604      4.895
REMARK  Name = 
REMARK  16 active torsions:
REMARK  status: ('A' for Active; 'I' for Inactive)
REMARK    1  A    between atoms: C_1  and  C_2
REMARK    2  A    between atoms: C_2  and  C_3
REMARK    3  A    between atoms: C_3  and  C_4
REMARK    4  A    between atoms: C_4  and  CA_5
REMARK    5  A    between atoms: CA_5  and  N_7
REMARK    6  A    between atoms: CA_5  and  C_23
REMARK    7  A    between atoms: N_7  and  C_8
REMARK    8  A    between atoms: C_8  and  C_9
REMARK    9  A    between atoms: C_10  and  O_11
REMARK   10  A    between atoms: C_12  and  C_13
REMARK   11  A    between atoms: C_16  and  C_17
REMARK   12  A    between atoms: C_17  and  O_18
REMARK   13  A    between atoms: O_18  and  P_19
REMARK   14  A    between atoms: P_19  and  O_20
REMARK   15  A    between atoms: P_19  and  O_21
REMARK   16  A    between atoms: C_23  and  O_24
REMARK                            x       y       z     vdW  Elec       q    Type
REMARK                         _______ _______ _______ _____ _____    ______ ____
ROOT
ATOM      1  C   UNL     1       6.743  -0.933  24.863  0.00  0.00    +0.016 A 
ATOM      2  C   UNL     1       7.700  -1.375  25.795  0.00  0.00    +0.005 A 
ATOM      3  C   UNL     1       8.738  -0.489  26.114  0.00  0.00    +0.117 A 
ATOM      4  N   UNL     1       8.880   0.759  25.618  0.00  0.00    -0.256 NA
ATOM      5  C   UNL     1       7.939   1.190  24.749  0.00  0.00    +0.080 A 
ATOM      6  C   UNL     1       8.123   2.579  24.216  0.00  0.00    +0.069 C 
ATOM      7  C   UNL     1       6.862   0.387  24.377  0.00  0.00    +0.142 A 
ENDROOT
BRANCH   7   8
ATOM      8  O   UNL     1       5.901   0.902  23.550  0.00  0.00    -0.505 OA
ATOM      9  H   UNL     1       5.300   0.162  23.351  0.00  0.00    +0.292 HD
ENDBRANCH   7   8
BRANCH   1  10
ATOM     10  C   UNL     1       5.651  -1.828  24.316  0.00  0.00    +0.121 C 
BRANCH  10  11
ATOM     11  N   UNL     1       5.865  -2.117  22.880  0.00  0.00    -0.300 NA
ATOM     12  H   UNL     1       5.067  -2.679  22.568  0.00  0.00    +0.123 HD
BRANCH  11  13
ATOM     13  CA  UNL     1       7.102  -2.923  22.649  0.00  0.00    +0.164 C 
BRANCH  13  14
ATOM     14  C   UNL     1       6.734  -4.261  21.974  0.00  0.00    +0.322 C 
ATOM     15  OXT UNL     1       5.836  -4.423  21.164  0.00  0.00    -0.249 OA
BRANCH  14  16
ATOM     16  O   UNL     1       7.534  -5.275  22.390  0.00  0.00    -0.480 OA
ATOM     17  H   UNL     1       7.657  -5.236  23.359  0.00  0.00    +0.295 HD
ENDBRANCH  14  16
ENDBRANCH  13  14
BRANCH  13  18
ATOM     18  C   UNL     1       8.253  -2.228  21.897  0.00  0.00    +0.030 C 
BRANCH  18  19
ATOM     19  C   UNL     1       9.525  -2.048  22.729  0.00  0.00    +0.002 C 
BRANCH  19  21
ATOM     20  C   UNL     1       9.335   0.145  21.489  0.00  0.00    +0.004 C 
ATOM     21  C   UNL     1      10.182  -0.698  22.429  0.00  0.00    -0.003 C 
ENDBRANCH  19  21
ENDBRANCH  18  19
ENDBRANCH  13  18
ENDBRANCH  11  13
ENDBRANCH  10  11
ENDBRANCH   1  10
BRANCH   2  22
ATOM     22  C   UNL     1       7.713  -2.732  26.450  0.00  0.00    +0.209 C 
BRANCH  22  23
ATOM     23  O   UNL     1       8.285  -3.630  25.521  0.00  0.00    -0.282 OA
BRANCH  23  24
ATOM     24  P   UNL     1       8.565  -5.134  25.976  0.00  0.00    +0.473 P 
ATOM     25  O   UNL     1       7.413  -5.952  26.429  0.00  0.00    -0.228 OA
BRANCH  24  26
ATOM     26  O   UNL     1       9.683  -4.835  27.067  0.00  0.00    -0.303 OA
ATOM     27  H   UNL     1       9.570  -5.422  27.844  0.00  0.00    +0.222 HD
ENDBRANCH  24  26
BRANCH  24  28
ATOM     28  O   UNL     1       9.493  -5.705  24.811  0.00  0.00    -0.303 OA
ATOM     29  H   UNL     1       9.522  -6.681  24.847  0.00  0.00    +0.222 HD
ENDBRANCH  24  28
ENDBRANCH  23  24
ENDBRANCH  22  23
ENDBRANCH   2  22
TORSDOF 14
ENDMDL
MODEL 7
REMARK VINA RESULT:      -5.9      1.912      2.457
REMARK  Name = 
REMARK  16 active torsions:
REMARK  status: ('A' for Active; 'I' for Inactive)
REMARK    1  A    between atoms: C_1  and  C_2
REMARK    2  A    between atoms: C_2  and  C_3
REMARK    3  A    between atoms: C_3  and  C_4
REMARK    4  A    between atoms: C_4  and  CA_5
REMARK    5  A    between atoms: CA_5  and  N_7
REMARK    6  A    between atoms: CA_5  and  C_23
REMARK    7  A    between atoms: N_7  and  C_8
REMARK    8  A    between atoms: C_8  and  C_9
REMARK    9  A    between atoms: C_10  and  O_11
REMARK   10  A    between atoms: C_12  and  C_13
REMARK   11  A    between atoms: C_16  and  C_17
REMARK   12  A    between atoms: C_17  and  O_18
REMARK   13  A    between atoms: O_18  and  P_19
REMARK   14  A    between atoms: P_19  and  O_20
REMARK   15  A    between atoms: P_19  and  O_21
REMARK   16  A    between atoms: C_23  and  O_24
REMARK                            x       y       z     vdW  Elec       q    Type
REMARK                         _______ _______ _______ _____ _____    ______ ____
ROOT
ATOM      1  C   UNL     1       5.992  -4.274  24.407  0.00  0.00    +0.016 A 
ATOM      2  C   UNL     1       5.261  -5.321  24.998  0.00  0.00    +0.005 A 
ATOM      3  C   UNL     1       4.879  -6.382  24.167  0.00  0.00    +0.117 A 
ATOM      4  N   UNL     1       5.173  -6.492  22.853  0.00  0.00    -0.256 NA
ATOM      5  C   UNL     1       5.903  -5.498  22.298  0.00  0.00    +0.080 A 
ATOM      6  C   UNL     1       6.215  -5.647  20.840  0.00  0.00    +0.069 C 
ATOM      7  C   UNL     1       6.341  -4.405  23.045  0.00  0.00    +0.142 A 
ENDROOT
BRANCH   7   8
ATOM      8  O   UNL     1       7.138  -3.466  22.449  0.00  0.00    -0.505 OA
ATOM      9  H   UNL     1       6.532  -2.791  22.096  0.00  0.00    +0.292 HD
ENDBRANCH   7   8
BRANCH   1  10
ATOM     10  C   UNL     1       6.349  -3.000  25.144  0.00  0.00    +0.121 C 
BRANCH  10  11
ATOM     11  N   UNL     1       7.465  -3.225  26.090  0.00  0.00    -0.300 NA
ATOM     12  H   UNL     1       7.207  -2.766  26.969  0.00  0.00    +0.123 HD
BRANCH  11  13
ATOM     13  CA  UNL     1       8.738  -2.602  25.613  0.00  0.00    +0.164 C 
BRANCH  13  14
ATOM     14  C   UNL     1       9.537  -3.624  24.778  0.00  0.00    +0.322 C 
ATOM     15  OXT UNL     1       9.687  -4.803  25.053  0.00  0.00    -0.249 OA
BRANCH  14  16
ATOM     16  O   UNL     1      10.079  -3.058  23.670  0.00  0.00    -0.480 OA
ATOM     17  H   UNL     1      10.738  -3.658  23.267  0.00  0.00    +0.295 HD
ENDBRANCH  14  16
ENDBRANCH  13  14
BRANCH  13  18
ATOM     18  C   UNL     1       8.617  -1.259  24.868  0.00  0.00    +0.030 C 
BRANCH  18  19
ATOM     19  C   UNL     1       9.391  -0.110  25.520  0.00  0.00    +0.002 C 
BRANCH  19  21
ATOM     20  C   UNL     1      10.451   1.706  24.121  0.00  0.00    +0.004 C 
ATOM     21  C   UNL     1      10.591   0.292  24.657  0.00  0.00    -0.003 C 
ENDBRANCH  19  21
ENDBRANCH  18  19
ENDBRANCH  13  18
ENDBRANCH  11  13
ENDBRANCH  10  11
ENDBRANCH   1  10
BRANCH   2  22
ATOM     22  C   UNL     1       4.834  -5.375  26.442  0.00  0.00    +0.209 C 
BRANCH  22  23
ATOM     23  O   UNL     1       5.501  -6.475  27.026  0.00  0.00    -0.282 OA
BRANCH  23  24
ATOM     24  P   UNL     1       6.540  -6.208  28.208  0.00  0.00    +0.473 P 
ATOM     25  O   UNL     1       6.620  -7.203  29.305  0.00  0.00    -0.228 OA
BRANCH  24  26
ATOM     26  O   UNL     1       6.045  -4.753  28.618  0.00  0.00    -0.303 OA
ATOM     27  H   UNL     1       6.607  -4.388  29.333  0.00  0.00    +0.222 HD
ENDBRANCH  24  26
BRANCH  24  28
ATOM     28  O   UNL     1       7.881  -5.813  27.438  0.00  0.00    -0.303 OA
ATOM     29  H   UNL     1       7.684  -5.201  26.704  0.00  0.00    +0.222 HD
ENDBRANCH  24  28
ENDBRANCH  23  24
ENDBRANCH  22  23
ENDBRANCH   2  22
TORSDOF 14
ENDMDL
MODEL 8
REMARK VINA RESULT:      -5.9      3.083      6.441
REMARK  Name = 
REMARK  16 active torsions:
REMARK  status: ('A' for Active; 'I' for Inactive)
REMARK    1  A    between atoms: C_1  and  C_2
REMARK    2  A    between atoms: C_2  and  C_3
REMARK    3  A    between atoms: C_3  and  C_4
REMARK    4  A    between atoms: C_4  and  CA_5
REMARK    5  A    between atoms: CA_5  and  N_7
REMARK    6  A    between atoms: CA_5  and  C_23
REMARK    7  A    between atoms: N_7  and  C_8
REMARK    8  A    between atoms: C_8  and  C_9
REMARK    9  A    between atoms: C_10  and  O_11
REMARK   10  A    between atoms: C_12  and  C_13
REMARK   11  A    between atoms: C_16  and  C_17
REMARK   12  A    between atoms: C_17  and  O_18
REMARK   13  A    between atoms: O_18  and  P_19
REMARK   14  A    between atoms: P_19  and  O_20
REMARK   15  A    between atoms: P_19  and  O_21
REMARK   16  A    between atoms: C_23  and  O_24
REMARK                            x       y       z     vdW  Elec       q    Type
REMARK                         _______ _______ _______ _____ _____    ______ ____
ROOT
ATOM      1  C   UNL     1       8.138  -1.209  24.573  0.00  0.00    +0.016 A 
ATOM      2  C   UNL     1       7.813  -1.411  23.219  0.00  0.00    +0.005 A 
ATOM      3  C   UNL     1       8.490  -0.626  22.277  0.00  0.00    +0.117 A 
ATOM      4  N   UNL     1       9.442   0.290  22.560  0.00  0.00    -0.256 NA
ATOM      5  C   UNL     1       9.772   0.455  23.860  0.00  0.00    +0.080 A 
ATOM      6  C   UNL     1      10.831   1.477  24.145  0.00  0.00    +0.069 C 
ATOM      7  C   UNL     1       9.163  -0.286  24.872  0.00  0.00    +0.142 A 
ENDROOT
BRANCH   7   8
ATOM      8  O   UNL     1       9.590  -0.129  26.163  0.00  0.00    -0.505 OA
ATOM      9  H   UNL     1       9.375   0.791  26.401  0.00  0.00    +0.292 HD
ENDBRANCH   7   8
BRANCH   1  10
ATOM     10  C   UNL     1       7.391  -1.880  25.708  0.00  0.00    +0.121 C 
BRANCH  10  11
ATOM     11  N   UNL     1       8.261  -2.837  26.428  0.00  0.00    -0.300 NA
ATOM     12  H   UNL     1       9.229  -2.559  26.240  0.00  0.00    +0.123 HD
BRANCH  11  13
ATOM     13  CA  UNL     1       8.089  -4.235  25.930  0.00  0.00    +0.164 C 
BRANCH  13  14
ATOM     14  C   UNL     1       9.380  -4.699  25.223  0.00  0.00    +0.322 C 
ATOM     15  OXT UNL     1      10.041  -4.033  24.444  0.00  0.00    -0.249 OA
BRANCH  14  16
ATOM     16  O   UNL     1       9.715  -5.970  25.563  0.00  0.00    -0.480 OA
ATOM     17  H   UNL     1      10.675  -6.111  25.449  0.00  0.00    +0.295 HD
ENDBRANCH  14  16
ENDBRANCH  13  14
BRANCH  13  18
ATOM     18  C   UNL     1       7.619  -5.285  26.955  0.00  0.00    +0.030 C 
BRANCH  18  19
ATOM     19  C   UNL     1       6.132  -5.636  26.853  0.00  0.00    +0.002 C 
BRANCH  19  21
ATOM     20  C   UNL     1       5.406  -5.254  29.243  0.00  0.00    +0.004 C 
ATOM     21  C   UNL     1       5.639  -6.284  28.150  0.00  0.00    -0.003 C 
ENDBRANCH  19  21
ENDBRANCH  18  19
ENDBRANCH  13  18
ENDBRANCH  11  13
ENDBRANCH  10  11
ENDBRANCH   1  10
BRANCH   2  22
ATOM     22  C   UNL     1       6.778  -2.379  22.708  0.00  0.00    +0.209 C 
BRANCH  22  23
ATOM     23  O   UNL     1       7.471  -3.539  22.294  0.00  0.00    -0.282 OA
BRANCH  23  24
ATOM     24  P   UNL     1       6.643  -4.878  22.030  0.00  0.00    +0.473 P 
ATOM     25  O   UNL     1       5.889  -4.993  20.758  0.00  0.00    -0.228 OA
BRANCH  24  26
ATOM     26  O   UNL     1       5.771  -4.870  23.361  0.00  0.00    -0.303 OA
ATOM     27  H   UNL     1       6.261  -4.435  24.090  0.00  0.00    +0.222 HD
ENDBRANCH  24  26
BRANCH  24  28
ATOM     28  O   UNL     1       7.677  -6.032  22.410  0.00  0.00    -0.303 OA
ATOM     29  H   UNL     1       8.460  -5.654  22.855  0.00  0.00    +0.222 HD
ENDBRANCH  24  28
ENDBRANCH  23  24
ENDBRANCH  22  23
ENDBRANCH   2  22
TORSDOF 14
ENDMDL
MODEL 9
REMARK VINA RESULT:      -5.8      3.007      6.155
REMARK  Name = 
REMARK  16 active torsions:
REMARK  status: ('A' for Active; 'I' for Inactive)
REMARK    1  A    between atoms: C_1  and  C_2
REMARK    2  A    between atoms: C_2  and  C_3
REMARK    3  A    between atoms: C_3  and  C_4
REMARK    4  A    between atoms: C_4  and  CA_5
REMARK    5  A    between atoms: CA_5  and  N_7
REMARK    6  A    between atoms: CA_5  and  C_23
REMARK    7  A    between atoms: N_7  and  C_8
REMARK    8  A    between atoms: C_8  and  C_9
REMARK    9  A    between atoms: C_10  and  O_11
REMARK   10  A    between atoms: C_12  and  C_13
REMARK   11  A    between atoms: C_16  and  C_17
REMARK   12  A    between atoms: C_17  and  O_18
REMARK   13  A    between atoms: O_18  and  P_19
REMARK   14  A    between atoms: P_19  and  O_20
REMARK   15  A    between atoms: P_19  and  O_21
REMARK   16  A    between atoms: C_23  and  O_24
REMARK                            x       y       z     vdW  Elec       q    Type
REMARK                         _______ _______ _______ _____ _____    ______ ____
ROOT
ATOM      1  C   UNL     1       7.878  -3.335  23.283  0.00  0.00    +0.016 A 
ATOM      2  C   UNL     1       7.075  -2.219  22.987  0.00  0.00    +0.005 A 
ATOM      3  C   UNL     1       6.019  -2.414  22.087  0.00  0.00    +0.117 A 
ATOM      4  N   UNL     1       5.696  -3.587  21.501  0.00  0.00    -0.256 NA
ATOM      5  C   UNL     1       6.452  -4.663  21.816  0.00  0.00    +0.080 A 
ATOM      6  C   UNL     1       6.071  -5.951  21.152  0.00  0.00    +0.069 C 
ATOM      7  C   UNL     1       7.519  -4.574  22.709  0.00  0.00    +0.142 A 
ENDROOT
BRANCH   7   8
ATOM      8  O   UNL     1       8.203  -5.710  23.046  0.00  0.00    -0.505 OA
ATOM      9  H   UNL     1       8.398  -5.628  23.997  0.00  0.00    +0.292 HD
ENDBRANCH   7   8
BRANCH   1  10
ATOM     10  C   UNL     1       9.136  -3.245  24.123  0.00  0.00    +0.121 C 
BRANCH  10  11
ATOM     11  N   UNL     1       8.811  -3.117  25.561  0.00  0.00    -0.300 NA
ATOM     12  H   UNL     1       9.633  -3.437  26.082  0.00  0.00    +0.123 HD
BRANCH  11  13
ATOM     13  CA  UNL     1       7.660  -3.985  25.956  0.00  0.00    +0.164 C 
BRANCH  13  14
ATOM     14  C   UNL     1       8.183  -5.352  26.445  0.00  0.00    +0.322 C 
ATOM     15  OXT UNL     1       8.970  -6.067  25.846  0.00  0.00    -0.249 OA
BRANCH  14  16
ATOM     16  O   UNL     1       7.657  -5.694  27.649  0.00  0.00    -0.480 OA
ATOM     17  H   UNL     1       6.990  -6.400  27.541  0.00  0.00    +0.295 HD
ENDBRANCH  14  16
ENDBRANCH  13  14
BRANCH  13  18
ATOM     18  C   UNL     1       6.654  -3.392  26.960  0.00  0.00    +0.030 C 
BRANCH  18  19
ATOM     19  C   UNL     1       5.332  -2.946  26.331  0.00  0.00    +0.002 C 
BRANCH  19  21
ATOM     20  C   UNL     1       4.272  -4.634  24.778  0.00  0.00    +0.004 C 
ATOM     21  C   UNL     1       4.366  -4.128  26.208  0.00  0.00    -0.003 C 
ENDBRANCH  19  21
ENDBRANCH  18  19
ENDBRANCH  13  18
ENDBRANCH  11  13
ENDBRANCH  10  11
ENDBRANCH   1  10
BRANCH   2  22
ATOM     22  C   UNL     1       7.280  -0.830  23.535  0.00  0.00    +0.209 C 
BRANCH  22  23
ATOM     23  O   UNL     1       7.696  -0.020  22.455  0.00  0.00    -0.282 OA
BRANCH  23  24
ATOM     24  P   UNL     1       9.257   0.129  22.160  0.00  0.00    +0.473 P 
ATOM     25  O   UNL     1      10.186   0.159  23.317  0.00  0.00    -0.228 OA
BRANCH  24  26
ATOM     26  O   UNL     1       9.195   1.452  21.279  0.00  0.00    -0.303 OA
ATOM     27  H   UNL     1       9.178   1.229  20.325  0.00  0.00    +0.222 HD
ENDBRANCH  24  26
BRANCH  24  28
ATOM     28  O   UNL     1       9.518  -0.937  21.002  0.00  0.00    -0.303 OA
ATOM     29  H   UNL     1       8.750  -1.533  20.909  0.00  0.00    +0.222 HD
ENDBRANCH  24  28
ENDBRANCH  23  24
ENDBRANCH  22  23
ENDBRANCH   2  22
TORSDOF 14
ENDMDL
