MODEL 1
REMARK VINA RESULT:      -6.4      0.000      0.000
REMARK  Name = 
REMARK  6 active torsions:
REMARK  status: ('A' for Active; 'I' for Inactive)
REMARK    1  A    between atoms: C_2  and  C_3
REMARK    2  A    between atoms: C_2  and  C_6
REMARK    3  A    between atoms: C_2  and  C_13
REMARK    4  A    between atoms: C_3  and  C_4
REMARK    5  A    between atoms: C_3  and  C_5
REMARK    6  A    between atoms: C_14  and  O_15
REMARK                            x       y       z     vdW  Elec       q    Type
REMARK                         _______ _______ _______ _____ _____    ______ ____
ROOT
ATOM      1  C   UNL     1       8.140  -2.395  24.199  0.00  0.00    +0.086 A 
ATOM      2  C   UNL     1       8.069  -2.502  22.706  0.00  0.00    +0.345 A 
ATOM      3  O   UNL     1       7.547  -3.460  22.146  0.00  0.00    -0.245 OA
ATOM      4  O   UNL     1       8.647  -1.482  21.957  0.00  0.00    -0.422 OA
ATOM      5  C   UNL     1       9.234  -0.359  22.559  0.00  0.00    +0.143 A 
ATOM      6  C   UNL     1       9.710   0.650  21.722  0.00  0.00    +0.047 A 
ATOM      7  C   UNL     1      10.263   1.799  22.289  0.00  0.00    +0.004 A 
ATOM      8  C   UNL     1      10.343   1.923  23.674  0.00  0.00    +0.001 A 
ATOM      9  C   UNL     1       9.875   0.895  24.494  0.00  0.00    +0.015 A 
ATOM     10  C   UNL     1       9.312  -0.261  23.941  0.00  0.00    +0.059 A 
ATOM     11  C   UNL     1       8.768  -1.337  24.760  0.00  0.00    +0.138 A 
ENDROOT
BRANCH  11  12
ATOM     12  O   UNL     1       8.913  -1.123  26.112  0.00  0.00    -0.506 OA
ATOM     13  H   UNL     1       8.415  -0.336  26.390  0.00  0.00    +0.292 HD
ENDBRANCH  11  12
BRANCH   1  14
ATOM     14  C   UNL     1       7.476  -3.563  24.946  0.00  0.00    +0.062 C 
BRANCH  14  15
ATOM     15  C   UNL     1       6.073  -3.256  25.525  0.00  0.00    -0.039 A 
ATOM     16  C   UNL     1       4.920  -3.716  24.863  0.00  0.00    +0.005 A 
ATOM     17  C   UNL     1       3.656  -3.612  25.454  0.00  0.00    +0.015 A 
ATOM     18  C   UNL     1       3.524  -3.030  26.710  0.00  0.00    +0.018 A 
ATOM     19 BR   UNL     1       1.852  -3.034  27.586  0.00  0.00    -0.050 Br
ATOM     20  C   UNL     1       4.625  -2.457  27.328  0.00  0.00    +0.015 A 
ATOM     21  C   UNL     1       5.877  -2.523  26.712  0.00  0.00    +0.005 A 
ENDBRANCH  14  15
BRANCH  14  22
ATOM     22  C   UNL     1       8.465  -4.227  25.988  0.00  0.00    -0.005 C 
ATOM     23  C   UNL     1       7.770  -5.260  26.890  0.00  0.00    +0.008 C 
ATOM     24  C   UNL     1       9.722  -4.873  25.388  0.00  0.00    +0.008 C 
ENDBRANCH  14  22
ENDBRANCH   1  14
TORSDOF 4
ENDMDL
MODEL 2
REMARK VINA RESULT:      -6.4      2.204      2.711
REMARK  Name = 
REMARK  6 active torsions:
REMARK  status: ('A' for Active; 'I' for Inactive)
REMARK    1  A    between atoms: C_2  and  C_3
REMARK    2  A    between atoms: C_2  and  C_6
REMARK    3  A    between atoms: C_2  and  C_13
REMARK    4  A    between atoms: C_3  and  C_4
REMARK    5  A    between atoms: C_3  and  C_5
REMARK    6  A    between atoms: C_14  and  O_15
REMARK                            x       y       z     vdW  Elec       q    Type
REMARK                         _______ _______ _______ _____ _____    ______ ____
ROOT
ATOM      1  C   UNL     1       7.986  -2.384  23.926  0.00  0.00    +0.086 A 
ATOM      2  C   UNL     1       9.447  -2.385  23.591  0.00  0.00    +0.345 A 
ATOM      3  O   UNL     1      10.178  -3.329  23.868  0.00  0.00    -0.245 OA
ATOM      4  O   UNL     1       9.968  -1.253  22.971  0.00  0.00    -0.422 OA
ATOM      5  C   UNL     1       9.161  -0.161  22.618  0.00  0.00    +0.143 A 
ATOM      6  C   UNL     1       9.760   0.890  21.924  0.00  0.00    +0.047 A 
ATOM      7  C   UNL     1       8.978   1.973  21.521  0.00  0.00    +0.004 A 
ATOM      8  C   UNL     1       7.617   1.999  21.823  0.00  0.00    +0.001 A 
ATOM      9  C   UNL     1       7.040   0.945  22.531  0.00  0.00    +0.015 A 
ATOM     10  C   UNL     1       7.811  -0.152  22.936  0.00  0.00    +0.059 A 
ATOM     11  C   UNL     1       7.239  -1.295  23.636  0.00  0.00    +0.138 A 
ENDROOT
BRANCH  11  12
ATOM     12  O   UNL     1       5.894  -1.160  23.899  0.00  0.00    -0.506 OA
ATOM     13  H   UNL     1       5.714  -1.292  24.845  0.00  0.00    +0.292 HD
ENDBRANCH  11  12
BRANCH   1  14
ATOM     14  C   UNL     1       7.496  -3.672  24.607  0.00  0.00    +0.062 C 
BRANCH  14  15
ATOM     15  C   UNL     1       6.127  -4.196  24.107  0.00  0.00    -0.039 A 
ATOM     16  C   UNL     1       6.046  -4.934  22.912  0.00  0.00    +0.005 A 
ATOM     17  C   UNL     1       4.859  -5.570  22.534  0.00  0.00    +0.015 A 
ATOM     18  C   UNL     1       3.729  -5.465  23.337  0.00  0.00    +0.018 A 
ATOM     19 BR   UNL     1       2.175  -6.453  22.923  0.00  0.00    -0.050 Br
ATOM     20  C   UNL     1       3.746  -4.642  24.454  0.00  0.00    +0.015 A 
ATOM     21  C   UNL     1       4.921  -3.972  24.801  0.00  0.00    +0.005 A 
ENDBRANCH  14  15
BRANCH  14  22
ATOM     22  C   UNL     1       7.607  -3.579  26.182  0.00  0.00    -0.005 C 
ATOM     23  C   UNL     1       8.383  -4.757  26.793  0.00  0.00    +0.008 C 
ATOM     24  C   UNL     1       8.201  -2.272  26.728  0.00  0.00    +0.008 C 
ENDBRANCH  14  22
ENDBRANCH   1  14
TORSDOF 4
ENDMDL
MODEL 3
REMARK VINA RESULT:      -6.3      1.671      2.730
REMARK  Name = 
REMARK  6 active torsions:
REMARK  status: ('A' for Active; 'I' for Inactive)
REMARK    1  A    between atoms: C_2  and  C_3
REMARK    2  A    between atoms: C_2  and  C_6
REMARK    3  A    between atoms: C_2  and  C_13
REMARK    4  A    between atoms: C_3  and  C_4
REMARK    5  A    between atoms: C_3  and  C_5
REMARK    6  A    between atoms: C_14  and  O_15
REMARK                            x       y       z     vdW  Elec       q    Type
REMARK                         _______ _______ _______ _____ _____    ______ ____
ROOT
ATOM      1  C   UNL     1       8.553  -2.225  24.138  0.00  0.00    +0.086 A 
ATOM      2  C   UNL     1       8.559  -1.521  25.461  0.00  0.00    +0.345 A 
ATOM      3  O   UNL     1       8.239  -2.085  26.501  0.00  0.00    -0.245 OA
ATOM      4  O   UNL     1       8.914  -0.175  25.474  0.00  0.00    -0.422 OA
ATOM      5  C   UNL     1       9.307   0.502  24.310  0.00  0.00    +0.143 A 
ATOM      6  C   UNL     1       9.727   1.825  24.440  0.00  0.00    +0.047 A 
ATOM      7  C   UNL     1      10.163   2.515  23.309  0.00  0.00    +0.004 A 
ATOM      8  C   UNL     1      10.165   1.883  22.066  0.00  0.00    +0.001 A 
ATOM      9  C   UNL     1       9.727   0.563  21.954  0.00  0.00    +0.015 A 
ATOM     10  C   UNL     1       9.293  -0.144  23.082  0.00  0.00    +0.059 A 
ATOM     11  C   UNL     1       8.872  -1.538  23.018  0.00  0.00    +0.138 A 
ENDROOT
BRANCH  11  12
ATOM     12  O   UNL     1       8.896  -2.060  21.745  0.00  0.00    -0.506 OA
ATOM     13  H   UNL     1       9.022  -3.023  21.770  0.00  0.00    +0.292 HD
ENDBRANCH  11  12
BRANCH   1  14
ATOM     14  C   UNL     1       8.150  -3.706  24.216  0.00  0.00    +0.062 C 
BRANCH  14  15
ATOM     15  C   UNL     1       6.671  -4.002  23.865  0.00  0.00    -0.039 A 
ATOM     16  C   UNL     1       6.345  -5.092  23.038  0.00  0.00    +0.005 A 
ATOM     17  C   UNL     1       5.016  -5.488  22.853  0.00  0.00    +0.015 A 
ATOM     18  C   UNL     1       3.990  -4.790  23.479  0.00  0.00    +0.018 A 
ATOM     19 BR   UNL     1       2.213  -5.415  23.372  0.00  0.00    -0.050 Br
ATOM     20  C   UNL     1       4.274  -3.637  24.198  0.00  0.00    +0.015 A 
ATOM     21  C   UNL     1       5.599  -3.220  24.340  0.00  0.00    +0.005 A 
ENDBRANCH  14  15
BRANCH  14  22
ATOM     22  C   UNL     1       8.629  -4.371  25.570  0.00  0.00    -0.005 C 
ATOM     23  C   UNL     1       7.600  -5.358  26.143  0.00  0.00    +0.008 C 
ATOM     24  C   UNL     1       9.995  -5.072  25.516  0.00  0.00    +0.008 C 
ENDBRANCH  14  22
ENDBRANCH   1  14
TORSDOF 4
ENDMDL
MODEL 4
REMARK VINA RESULT:      -6.2      3.089      6.456
REMARK  Name = 
REMARK  6 active torsions:
REMARK  status: ('A' for Active; 'I' for Inactive)
REMARK    1  A    between atoms: C_2  and  C_3
REMARK    2  A    between atoms: C_2  and  C_6
REMARK    3  A    between atoms: C_2  and  C_13
REMARK    4  A    between atoms: C_3  and  C_4
REMARK    5  A    between atoms: C_3  and  C_5
REMARK    6  A    between atoms: C_14  and  O_15
REMARK                            x       y       z     vdW  Elec       q    Type
REMARK                         _______ _______ _______ _____ _____    ______ ____
ROOT
ATOM      1  C   UNL     1       7.639  -4.068  24.783  0.00  0.00    +0.086 A 
ATOM      2  C   UNL     1       8.430  -5.209  25.347  0.00  0.00    +0.345 A 
ATOM      3  O   UNL     1       9.422  -5.655  24.782  0.00  0.00    -0.245 OA
ATOM      4  O   UNL     1       7.984  -5.780  26.536  0.00  0.00    -0.422 OA
ATOM      5  C   UNL     1       6.866  -5.285  27.224  0.00  0.00    +0.143 A 
ATOM      6  C   UNL     1       6.549  -5.869  28.450  0.00  0.00    +0.047 A 
ATOM      7  C   UNL     1       5.468  -5.374  29.180  0.00  0.00    +0.004 A 
ATOM      8  C   UNL     1       4.715  -4.315  28.677  0.00  0.00    +0.001 A 
ATOM      9  C   UNL     1       5.039  -3.754  27.441  0.00  0.00    +0.015 A 
ATOM     10  C   UNL     1       6.125  -4.235  26.700  0.00  0.00    +0.059 A 
ATOM     11  C   UNL     1       6.527  -3.648  25.428  0.00  0.00    +0.138 A 
ENDROOT
BRANCH  11  12
ATOM     12  O   UNL     1       5.708  -2.622  25.015  0.00  0.00    -0.506 OA
ATOM     13  H   UNL     1       5.696  -2.561  24.045  0.00  0.00    +0.292 HD
ENDBRANCH  11  12
BRANCH   1  14
ATOM     14  C   UNL     1       8.203  -3.499  23.472  0.00  0.00    +0.062 C 
BRANCH  14  15
ATOM     15  C   UNL     1       8.578  -1.997  23.518  0.00  0.00    -0.039 A 
ATOM     16  C   UNL     1       8.974  -1.404  24.730  0.00  0.00    +0.005 A 
ATOM     17  C   UNL     1       9.490  -0.105  24.766  0.00  0.00    +0.015 A 
ATOM     18  C   UNL     1       9.603   0.630  23.591  0.00  0.00    +0.018 A 
ATOM     19 BR   UNL     1      10.449   2.316  23.603  0.00  0.00    -0.050 Br
ATOM     20  C   UNL     1       9.104   0.116  22.402  0.00  0.00    +0.015 A 
ATOM     21  C   UNL     1       8.548  -1.164  22.382  0.00  0.00    +0.005 A 
ENDBRANCH  14  15
BRANCH  14  22
ATOM     22  C   UNL     1       7.305  -3.894  22.230  0.00  0.00    -0.005 C 
ATOM     23  C   UNL     1       7.057  -5.407  22.133  0.00  0.00    +0.008 C 
ATOM     24  C   UNL     1       5.952  -3.173  22.135  0.00  0.00    +0.008 C 
ENDBRANCH  14  22
ENDBRANCH   1  14
TORSDOF 4
ENDMDL
MODEL 5
REMARK VINA RESULT:      -6.0      2.853      5.636
REMARK  Name = 
REMARK  6 active torsions:
REMARK  status: ('A' for Active; 'I' for Inactive)
REMARK    1  A    between atoms: C_2  and  C_3
REMARK    2  A    between atoms: C_2  and  C_6
REMARK    3  A    between atoms: C_2  and  C_13
REMARK    4  A    between atoms: C_3  and  C_4
REMARK    5  A    between atoms: C_3  and  C_5
REMARK    6  A    between atoms: C_14  and  O_15
REMARK                            x       y       z     vdW  Elec       q    Type
REMARK                         _______ _______ _______ _____ _____    ______ ____
ROOT
ATOM      1  C   UNL     1       8.353  -1.430  23.531  0.00  0.00    +0.086 A 
ATOM      2  C   UNL     1       9.335  -2.562  23.559  0.00  0.00    +0.345 A 
ATOM      3  O   UNL     1      10.532  -2.381  23.754  0.00  0.00    -0.245 OA
ATOM      4  O   UNL     1       8.849  -3.844  23.324  0.00  0.00    -0.422 OA
ATOM      5  C   UNL     1       7.484  -4.096  23.118  0.00  0.00    +0.143 A 
ATOM      6  C   UNL     1       7.084  -5.424  22.976  0.00  0.00    +0.047 A 
ATOM      7  C   UNL     1       5.729  -5.712  22.812  0.00  0.00    +0.004 A 
ATOM      8  C   UNL     1       4.796  -4.678  22.781  0.00  0.00    +0.001 A 
ATOM      9  C   UNL     1       5.218  -3.354  22.910  0.00  0.00    +0.015 A 
ATOM     10  C   UNL     1       6.573  -3.050  23.082  0.00  0.00    +0.059 A 
ATOM     11  C   UNL     1       7.052  -1.685  23.267  0.00  0.00    +0.138 A 
ENDROOT
BRANCH  11  12
ATOM     12  O   UNL     1       6.053  -0.741  23.203  0.00  0.00    -0.506 OA
ATOM     13  H   UNL     1       5.749  -0.624  22.287  0.00  0.00    +0.292 HD
ENDBRANCH  11  12
BRANCH   1  14
ATOM     14  C   UNL     1       8.975  -0.051  23.802  0.00  0.00    +0.062 C 
BRANCH  14  15
ATOM     15  C   UNL     1       8.367   0.718  25.002  0.00  0.00    -0.039 A 
ATOM     16  C   UNL     1       8.111   2.097  24.901  0.00  0.00    +0.005 A 
ATOM     17  C   UNL     1       7.399   2.776  25.896  0.00  0.00    +0.015 A 
ATOM     18  C   UNL     1       6.947   2.088  27.017  0.00  0.00    +0.018 A 
ATOM     19 BR   UNL     1       5.847   2.954  28.281  0.00  0.00    -0.050 Br
ATOM     20  C   UNL     1       7.294   0.757  27.200  0.00  0.00    +0.015 A 
ATOM     21  C   UNL     1       8.045   0.097  26.225  0.00  0.00    +0.005 A 
ENDBRANCH  14  15
BRANCH  14  22
ATOM     22  C   UNL     1       9.081   0.812  22.480  0.00  0.00    -0.005 C 
ATOM     23  C   UNL     1      10.235   1.826  22.523  0.00  0.00    +0.008 C 
ATOM     24  C   UNL     1       9.188   0.011  21.174  0.00  0.00    +0.008 C 
ENDBRANCH  14  22
ENDBRANCH   1  14
TORSDOF 4
ENDMDL
MODEL 6
REMARK VINA RESULT:      -6.0      3.092      5.887
REMARK  Name = 
REMARK  6 active torsions:
REMARK  status: ('A' for Active; 'I' for Inactive)
REMARK    1  A    between atoms: C_2  and  C_3
REMARK    2  A    between atoms: C_2  and  C_6
REMARK    3  A    between atoms: C_2  and  C_13
REMARK    4  A    between atoms: C_3  and  C_4
REMARK    5  A    between atoms: C_3  and  C_5
REMARK    6  A    between atoms: C_14  and  O_15
REMARK                            x       y       z     vdW  Elec       q    Type
REMARK                         _______ _______ _______ _____ _____    ______ ____
ROOT
ATOM      1  C   UNL     1       8.093  -0.560  23.988  0.00  0.00    +0.086 A 
ATOM      2  C   UNL     1       9.127  -0.944  25.003  0.00  0.00    +0.345 A 
ATOM      3  O   UNL     1      10.010  -0.171  25.358  0.00  0.00    -0.245 OA
ATOM      4  O   UNL     1       9.077  -2.236  25.518  0.00  0.00    -0.422 OA
ATOM      5  C   UNL     1       8.071  -3.144  25.154  0.00  0.00    +0.143 A 
ATOM      6  C   UNL     1       8.056  -4.384  25.790  0.00  0.00    +0.047 A 
ATOM      7  C   UNL     1       7.046  -5.295  25.481  0.00  0.00    +0.004 A 
ATOM      8  C   UNL     1       6.073  -4.963  24.539  0.00  0.00    +0.001 A 
ATOM      9  C   UNL     1       6.114  -3.722  23.903  0.00  0.00    +0.015 A 
ATOM     10  C   UNL     1       7.119  -2.795  24.207  0.00  0.00    +0.059 A 
ATOM     11  C   UNL     1       7.172  -1.470  23.602  0.00  0.00    +0.138 A 
ENDROOT
BRANCH  11  12
ATOM     12  O   UNL     1       6.177  -1.251  22.675  0.00  0.00    -0.506 OA
ATOM     13  H   UNL     1       5.737  -0.400  22.838  0.00  0.00    +0.292 HD
ENDBRANCH  11  12
BRANCH   1  14
ATOM     14  C   UNL     1       8.223   0.883  23.474  0.00  0.00    +0.062 C 
BRANCH  14  15
ATOM     15  C   UNL     1       6.925   1.725  23.553  0.00  0.00    -0.039 A 
ATOM     16  C   UNL     1       6.498   2.472  22.440  0.00  0.00    +0.005 A 
ATOM     17  C   UNL     1       5.245   3.091  22.422  0.00  0.00    +0.015 A 
ATOM     18  C   UNL     1       4.404   2.987  23.524  0.00  0.00    +0.018 A 
ATOM     19 BR   UNL     1       2.649   3.677  23.447  0.00  0.00    -0.050 Br
ATOM     20  C   UNL     1       4.850   2.363  24.680  0.00  0.00    +0.015 A 
ATOM     21  C   UNL     1       6.121   1.787  24.708  0.00  0.00    +0.005 A 
ENDBRANCH  14  15
BRANCH  14  22
ATOM     22  C   UNL     1       8.934   0.938  22.061  0.00  0.00    -0.005 C 
ATOM     23  C   UNL     1      10.111   1.925  22.027  0.00  0.00    +0.008 C 
ATOM     24  C   UNL     1       9.417  -0.413  21.510  0.00  0.00    +0.008 C 
ENDBRANCH  14  22
ENDBRANCH   1  14
TORSDOF 4
ENDMDL
MODEL 7
REMARK VINA RESULT:      -5.9      3.146      5.994
REMARK  Name = 
REMARK  6 active torsions:
REMARK  status: ('A' for Active; 'I' for Inactive)
REMARK    1  A    between atoms: C_2  and  C_3
REMARK    2  A    between atoms: C_2  and  C_6
REMARK    3  A    between atoms: C_2  and  C_13
REMARK    4  A    between atoms: C_3  and  C_4
REMARK    5  A    between atoms: C_3  and  C_5
REMARK    6  A    between atoms: C_14  and  O_15
REMARK                            x       y       z     vdW  Elec       q    Type
REMARK                         _______ _______ _______ _____ _____    ______ ____
ROOT
ATOM      1  C   UNL     1       8.621   0.422  24.074  0.00  0.00    +0.086 A 
ATOM      2  C   UNL     1       9.695  -0.465  24.626  0.00  0.00    +0.345 A 
ATOM      3  O   UNL     1      10.693  -0.014  25.176  0.00  0.00    -0.245 OA
ATOM      4  O   UNL     1       9.543  -1.839  24.467  0.00  0.00    -0.422 OA
ATOM      5  C   UNL     1       8.406  -2.396  23.862  0.00  0.00    +0.143 A 
ATOM      6  C   UNL     1       8.306  -3.787  23.827  0.00  0.00    +0.047 A 
ATOM      7  C   UNL     1       7.170  -4.373  23.269  0.00  0.00    +0.004 A 
ATOM      8  C   UNL     1       6.157  -3.571  22.748  0.00  0.00    +0.001 A 
ATOM      9  C   UNL     1       6.283  -2.181  22.779  0.00  0.00    +0.015 A 
ATOM     10  C   UNL     1       7.414  -1.578  23.341  0.00  0.00    +0.059 A 
ATOM     11  C   UNL     1       7.565  -0.131  23.437  0.00  0.00    +0.138 A 
ENDROOT
BRANCH  11  12
ATOM     12  O   UNL     1       6.518   0.566  22.878  0.00  0.00    -0.506 OA
ATOM     13  H   UNL     1       6.553   0.519  21.908  0.00  0.00    +0.292 HD
ENDBRANCH  11  12
BRANCH   1  14
ATOM     14  C   UNL     1       8.869   1.923  24.294  0.00  0.00    +0.062 C 
BRANCH  14  15
ATOM     15  C   UNL     1       7.659   2.712  24.852  0.00  0.00    -0.039 A 
ATOM     16  C   UNL     1       7.109   3.777  24.116  0.00  0.00    +0.005 A 
ATOM     17  C   UNL     1       5.912   4.385  24.506  0.00  0.00    +0.015 A 
ATOM     18  C   UNL     1       5.253   3.949  25.651  0.00  0.00    +0.018 A 
ATOM     19 BR   UNL     1       3.558   4.647  26.095  0.00  0.00    -0.050 Br
ATOM     20  C   UNL     1       5.837   2.987  26.462  0.00  0.00    +0.015 A 
ATOM     21  C   UNL     1       7.056   2.416  26.091  0.00  0.00    +0.005 A 
ENDBRANCH  14  15
BRANCH  14  22
ATOM     22  C   UNL     1       9.541   2.596  23.029  0.00  0.00    -0.005 C 
ATOM     23  C   UNL     1      10.829   3.359  23.376  0.00  0.00    +0.008 C 
ATOM     24  C   UNL     1       9.838   1.649  21.856  0.00  0.00    +0.008 C 
ENDBRANCH  14  22
ENDBRANCH   1  14
TORSDOF 4
ENDMDL
MODEL 8
REMARK VINA RESULT:      -5.7      2.855      6.204
REMARK  Name = 
REMARK  6 active torsions:
REMARK  status: ('A' for Active; 'I' for Inactive)
REMARK    1  A    between atoms: C_2  and  C_3
REMARK    2  A    between atoms: C_2  and  C_6
REMARK    3  A    between atoms: C_2  and  C_13
REMARK    4  A    between atoms: C_3  and  C_4
REMARK    5  A    between atoms: C_3  and  C_5
REMARK    6  A    between atoms: C_14  and  O_15
REMARK                            x       y       z     vdW  Elec       q    Type
REMARK                         _______ _______ _______ _____ _____    ______ ____
ROOT
ATOM      1  C   UNL     1       8.113  -1.634  24.469  0.00  0.00    +0.086 A 
ATOM      2  C   UNL     1       8.383  -1.895  25.920  0.00  0.00    +0.345 A 
ATOM      3  O   UNL     1       9.067  -1.140  26.601  0.00  0.00    -0.245 OA
ATOM      4  O   UNL     1       7.853  -3.055  26.477  0.00  0.00    -0.422 OA
ATOM      5  C   UNL     1       7.047  -3.934  25.737  0.00  0.00    +0.143 A 
ATOM      6  C   UNL     1       6.492  -5.024  26.406  0.00  0.00    +0.047 A 
ATOM      7  C   UNL     1       5.653  -5.894  25.710  0.00  0.00    +0.004 A 
ATOM      8  C   UNL     1       5.388  -5.675  24.360  0.00  0.00    +0.001 A 
ATOM      9  C   UNL     1       5.965  -4.587  23.704  0.00  0.00    +0.015 A 
ATOM     10  C   UNL     1       6.803  -3.701  24.391  0.00  0.00    +0.059 A 
ATOM     11  C   UNL     1       7.389  -2.526  23.757  0.00  0.00    +0.138 A 
ENDROOT
BRANCH  11  12
ATOM     12  O   UNL     1       7.078  -2.413  22.421  0.00  0.00    -0.506 OA
ATOM     13  H   UNL     1       6.129  -2.242  22.302  0.00  0.00    +0.292 HD
ENDBRANCH  11  12
BRANCH   1  14
ATOM     14  C   UNL     1       8.735  -0.332  23.938  0.00  0.00    +0.062 C 
BRANCH  14  15
ATOM     15  C   UNL     1       7.825   0.917  24.039  0.00  0.00    -0.039 A 
ATOM     16  C   UNL     1       8.138   1.948  24.943  0.00  0.00    +0.005 A 
ATOM     17  C   UNL     1       7.442   3.161  24.926  0.00  0.00    +0.015 A 
ATOM     18  C   UNL     1       6.409   3.355  24.015  0.00  0.00    +0.018 A 
ATOM     19 BR   UNL     1       5.575   5.042  23.872  0.00  0.00    -0.050 Br
ATOM     20  C   UNL     1       5.999   2.311  23.199  0.00  0.00    +0.015 A 
ATOM     21  C   UNL     1       6.668   1.087  23.253  0.00  0.00    +0.005 A 
ENDBRANCH  14  15
BRANCH  14  22
ATOM     22  C   UNL     1       9.384  -0.535  22.509  0.00  0.00    -0.005 C 
ATOM     23  C   UNL     1       9.818   0.788  21.860  0.00  0.00    +0.008 C 
ATOM     24  C   UNL     1      10.566  -1.515  22.452  0.00  0.00    +0.008 C 
ENDBRANCH  14  22
ENDBRANCH   1  14
TORSDOF 4
ENDMDL
MODEL 9
REMARK VINA RESULT:      -5.7      3.085      4.389
REMARK  Name = 
REMARK  6 active torsions:
REMARK  status: ('A' for Active; 'I' for Inactive)
REMARK    1  A    between atoms: C_2  and  C_3
REMARK    2  A    between atoms: C_2  and  C_6
REMARK    3  A    between atoms: C_2  and  C_13
REMARK    4  A    between atoms: C_3  and  C_4
REMARK    5  A    between atoms: C_3  and  C_5
REMARK    6  A    between atoms: C_14  and  O_15
REMARK                            x       y       z     vdW  Elec       q    Type
REMARK                         _______ _______ _______ _____ _____    ______ ____
ROOT
ATOM      1  C   UNL     1       8.364  -0.010  24.484  0.00  0.00    +0.086 A 
ATOM      2  C   UNL     1       9.601   0.831  24.384  0.00  0.00    +0.345 A 
ATOM      3  O   UNL     1      10.697   0.421  24.747  0.00  0.00    -0.245 OA
ATOM      4  O   UNL     1       9.464   2.124  23.888  0.00  0.00    -0.422 OA
ATOM      5  C   UNL     1       8.231   2.623  23.443  0.00  0.00    +0.143 A 
ATOM      6  C   UNL     1       8.212   3.900  22.883  0.00  0.00    +0.047 A 
ATOM      7  C   UNL     1       7.010   4.410  22.393  0.00  0.00    +0.004 A 
ATOM      8  C   UNL     1       5.845   3.649  22.475  0.00  0.00    +0.001 A 
ATOM      9  C   UNL     1       5.882   2.379  23.053  0.00  0.00    +0.015 A 
ATOM     10  C   UNL     1       7.082   1.851  23.543  0.00  0.00    +0.059 A 
ATOM     11  C   UNL     1       7.174   0.512  24.111  0.00  0.00    +0.138 A 
ENDROOT
BRANCH  11  12
ATOM     12  O   UNL     1       5.966  -0.146  24.160  0.00  0.00    -0.506 OA
ATOM     13  H   UNL     1       5.256   0.460  24.429  0.00  0.00    +0.292 HD
ENDBRANCH  11  12
BRANCH   1  14
ATOM     14  C   UNL     1       8.607  -1.422  25.041  0.00  0.00    +0.062 C 
BRANCH  14  15
ATOM     15  C   UNL     1       8.235  -2.578  24.079  0.00  0.00    -0.039 A 
ATOM     16  C   UNL     1       8.467  -3.913  24.455  0.00  0.00    +0.005 A 
ATOM     17  C   UNL     1       7.977  -4.976  23.689  0.00  0.00    +0.015 A 
ATOM     18  C   UNL     1       7.262  -4.721  22.525  0.00  0.00    +0.018 A 
ATOM     19 BR   UNL     1       6.457  -6.139  21.575  0.00  0.00    -0.050 Br
ATOM     20  C   UNL     1       7.127  -3.418  22.066  0.00  0.00    +0.015 A 
ATOM     21  C   UNL     1       7.658  -2.364  22.811  0.00  0.00    +0.005 A 
ENDBRANCH  14  15
BRANCH  14  22
ATOM     22  C   UNL     1       8.009  -1.587  26.497  0.00  0.00    -0.005 C 
ATOM     23  C   UNL     1       8.051  -0.282  27.307  0.00  0.00    +0.008 C 
ATOM     24  C   UNL     1       6.585  -2.157  26.567  0.00  0.00    +0.008 C 
ENDBRANCH  14  22
ENDBRANCH   1  14
TORSDOF 4
ENDMDL
