MODEL 1
REMARK VINA RESULT:      -4.3      0.000      0.000
REMARK  Name = 
REMARK  7 active torsions:
REMARK  status: ('A' for Active; 'I' for Inactive)
REMARK    1  A    between atoms: CA_2  and  CB_3
REMARK    2  A    between atoms: CA_2  and  N_4
REMARK    3  A    between atoms: CA_2  and  C_10
REMARK    4  A    between atoms: C_5  and  C_7
REMARK    5  A    between atoms: C_7  and  C_8
REMARK    6  A    between atoms: C_8  and  S_9
REMARK    7  A    between atoms: C_10  and  O_11
REMARK                            x       y       z     vdW  Elec       q    Type
REMARK                         _______ _______ _______ _____ _____    ______ ____
ROOT
ATOM      1  N   ALA A   1       9.406  -0.662  23.609  0.00  0.00    -0.303 N 
ATOM      2  H   ALA A   1       8.441  -0.401  23.779  0.00  0.00    +0.150 HD
ATOM      3  C   UNK A   0       9.694  -1.991  23.422  0.00  0.00    +0.214 C 
ATOM      4  O   UNK A   0      10.686  -2.340  22.788  0.00  0.00    -0.276 OA
ENDROOT
BRANCH   1   5
ATOM      5  CA  ALA A   1      10.324   0.395  23.166  0.00  0.00    +0.178 C 
ATOM      6  CB  ALA A   1      10.521   1.415  24.275  0.00  0.00    +0.040 C 
BRANCH   5   7
ATOM      7  C   ALA A   1       9.814   1.039  21.870  0.00  0.00    +0.325 C 
ATOM      8  OXT ALA A   1       9.034   0.514  21.087  0.00  0.00    -0.249 OA
BRANCH   7   9
ATOM      9  O   ALA A   1      10.283   2.299  21.687  0.00  0.00    -0.479 OA
ATOM     10  H   ALA A   1       9.569   2.978  21.721  0.00  0.00    +0.295 HD
ENDBRANCH   7   9
ENDBRANCH   5   7
ENDBRANCH   1   5
BRANCH   3  11
ATOM     11  C   UNK A   0       8.654  -2.944  23.966  0.00  0.00    +0.106 C 
BRANCH  11  12
ATOM     12  C   UNK A   0       7.734  -3.419  22.850  0.00  0.00    +0.075 C 
BRANCH  12  13
ATOM     13  S   UNK A   0       7.346  -5.185  23.050  0.00  0.00    -0.178 S 
ATOM     14  H   UNK A   0       8.120  -5.638  22.054  0.00  0.00    +0.102 HD
ENDBRANCH  12  13
ENDBRANCH  11  12
ENDBRANCH   3  11
TORSDOF 6
ENDMDL
MODEL 2
REMARK VINA RESULT:      -4.3      1.254      1.393
REMARK  Name = 
REMARK  7 active torsions:
REMARK  status: ('A' for Active; 'I' for Inactive)
REMARK    1  A    between atoms: CA_2  and  CB_3
REMARK    2  A    between atoms: CA_2  and  N_4
REMARK    3  A    between atoms: CA_2  and  C_10
REMARK    4  A    between atoms: C_5  and  C_7
REMARK    5  A    between atoms: C_7  and  C_8
REMARK    6  A    between atoms: C_8  and  S_9
REMARK    7  A    between atoms: C_10  and  O_11
REMARK                            x       y       z     vdW  Elec       q    Type
REMARK                         _______ _______ _______ _____ _____    ______ ____
ROOT
ATOM      1  N   ALA A   1       9.478  -0.675  23.758  0.00  0.00    -0.303 N 
ATOM      2  H   ALA A   1       8.537  -0.369  23.979  0.00  0.00    +0.150 HD
ATOM      3  C   UNK A   0       9.709  -2.022  23.636  0.00  0.00    +0.214 C 
ATOM      4  O   UNK A   0      10.640  -2.445  22.957  0.00  0.00    -0.276 OA
ENDROOT
BRANCH   1   5
ATOM      5  CA  ALA A   1      10.394   0.319  23.184  0.00  0.00    +0.178 C 
ATOM      6  CB  ALA A   1      10.679   1.414  24.200  0.00  0.00    +0.040 C 
BRANCH   5   7
ATOM      7  C   ALA A   1       9.826   0.878  21.874  0.00  0.00    +0.325 C 
ATOM      8  OXT ALA A   1       9.103   0.260  21.104  0.00  0.00    -0.249 OA
BRANCH   7   9
ATOM      9  O   ALA A   1      10.169   2.173  21.658  0.00  0.00    -0.479 OA
ATOM     10  H   ALA A   1       9.427   2.797  21.837  0.00  0.00    +0.295 HD
ENDBRANCH   7   9
ENDBRANCH   5   7
ENDBRANCH   1   5
BRANCH   3  11
ATOM     11  C   UNK A   0       8.682  -2.901  24.311  0.00  0.00    +0.106 C 
BRANCH  11  12
ATOM     12  C   UNK A   0       9.348  -4.134  24.908  0.00  0.00    +0.075 C 
BRANCH  12  13
ATOM     13  S   UNK A   0       8.557  -4.590  26.481  0.00  0.00    -0.178 S 
ATOM     14  H   UNK A   0       9.683  -4.833  27.167  0.00  0.00    +0.102 HD
ENDBRANCH  12  13
ENDBRANCH  11  12
ENDBRANCH   3  11
TORSDOF 6
ENDMDL
MODEL 3
REMARK VINA RESULT:      -4.2      3.147      5.627
REMARK  Name = 
REMARK  7 active torsions:
REMARK  status: ('A' for Active; 'I' for Inactive)
REMARK    1  A    between atoms: CA_2  and  CB_3
REMARK    2  A    between atoms: CA_2  and  N_4
REMARK    3  A    between atoms: CA_2  and  C_10
REMARK    4  A    between atoms: C_5  and  C_7
REMARK    5  A    between atoms: C_7  and  C_8
REMARK    6  A    between atoms: C_8  and  S_9
REMARK    7  A    between atoms: C_10  and  O_11
REMARK                            x       y       z     vdW  Elec       q    Type
REMARK                         _______ _______ _______ _____ _____    ______ ____
ROOT
ATOM      1  N   ALA A   1       8.349  -3.150  24.441  0.00  0.00    -0.303 N 
ATOM      2  H   ALA A   1       7.706  -2.748  25.114  0.00  0.00    +0.150 HD
ATOM      3  C   UNK A   0       9.462  -2.426  24.096  0.00  0.00    +0.214 C 
ATOM      4  O   UNK A   0      10.473  -2.982  23.675  0.00  0.00    -0.276 OA
ENDROOT
BRANCH   1   5
ATOM      5  CA  ALA A   1       8.272  -4.599  24.216  0.00  0.00    +0.178 C 
ATOM      6  CB  ALA A   1       6.845  -5.000  23.877  0.00  0.00    +0.040 C 
BRANCH   5   7
ATOM      7  C   ALA A   1       8.815  -5.360  25.432  0.00  0.00    +0.325 C 
ATOM      8  OXT ALA A   1       8.138  -5.750  26.373  0.00  0.00    -0.249 OA
BRANCH   7   9
ATOM      9  O   ALA A   1      10.147  -5.608  25.348  0.00  0.00    -0.479 OA
ATOM     10  H   ALA A   1      10.477  -6.160  26.095  0.00  0.00    +0.295 HD
ENDBRANCH   7   9
ENDBRANCH   5   7
ENDBRANCH   1   5
BRANCH   3  11
ATOM     11  C   UNK A   0       9.359  -0.943  24.370  0.00  0.00    +0.106 C 
BRANCH  11  12
ATOM     12  C   UNK A   0      10.280  -0.165  23.439  0.00  0.00    +0.075 C 
BRANCH  12  13
ATOM     13  S   UNK A   0       9.574  -0.081  21.765  0.00  0.00    -0.178 S 
ATOM     14  H   UNK A   0      10.510  -0.822  21.154  0.00  0.00    +0.102 HD
ENDBRANCH  12  13
ENDBRANCH  11  12
ENDBRANCH   3  11
TORSDOF 6
ENDMDL
MODEL 4
REMARK VINA RESULT:      -4.1      1.086      1.458
REMARK  Name = 
REMARK  7 active torsions:
REMARK  status: ('A' for Active; 'I' for Inactive)
REMARK    1  A    between atoms: CA_2  and  CB_3
REMARK    2  A    between atoms: CA_2  and  N_4
REMARK    3  A    between atoms: CA_2  and  C_10
REMARK    4  A    between atoms: C_5  and  C_7
REMARK    5  A    between atoms: C_7  and  C_8
REMARK    6  A    between atoms: C_8  and  S_9
REMARK    7  A    between atoms: C_10  and  O_11
REMARK                            x       y       z     vdW  Elec       q    Type
REMARK                         _______ _______ _______ _____ _____    ______ ____
ROOT
ATOM      1  N   ALA A   1       9.159  -1.198  23.934  0.00  0.00    -0.303 N 
ATOM      2  H   ALA A   1       8.232  -0.800  23.828  0.00  0.00    +0.150 HD
ATOM      3  C   UNK A   0       9.263  -2.544  24.180  0.00  0.00    +0.214 C 
ATOM      4  O   UNK A   0      10.278  -3.165  23.879  0.00  0.00    -0.276 OA
ENDROOT
BRANCH   1   5
ATOM      5  CA  ALA A   1      10.290  -0.420  23.413  0.00  0.00    +0.178 C 
ATOM      6  CB  ALA A   1      10.709   0.635  24.424  0.00  0.00    +0.040 C 
BRANCH   5   7
ATOM      7  C   ALA A   1       9.939   0.189  22.050  0.00  0.00    +0.325 C 
ATOM      8  OXT ALA A   1       9.951   1.385  21.793  0.00  0.00    -0.249 OA
BRANCH   7   9
ATOM      9  O   ALA A   1       9.649  -0.748  21.112  0.00  0.00    -0.479 OA
ATOM     10  H   ALA A   1       9.478  -0.355  20.224  0.00  0.00    +0.295 HD
ENDBRANCH   7   9
ENDBRANCH   5   7
ENDBRANCH   1   5
BRANCH   3  11
ATOM     11  C   UNK A   0       8.012  -3.180  24.742  0.00  0.00    +0.106 C 
BRANCH  11  12
ATOM     12  C   UNK A   0       8.032  -4.685  24.511  0.00  0.00    +0.075 C 
BRANCH  12  13
ATOM     13  S   UNK A   0       7.273  -5.095  22.910  0.00  0.00    -0.178 S 
ATOM     14  H   UNK A   0       6.003  -5.140  23.335  0.00  0.00    +0.102 HD
ENDBRANCH  12  13
ENDBRANCH  11  12
ENDBRANCH   3  11
TORSDOF 6
ENDMDL
MODEL 5
REMARK VINA RESULT:      -3.9      2.491      3.036
REMARK  Name = 
REMARK  7 active torsions:
REMARK  status: ('A' for Active; 'I' for Inactive)
REMARK    1  A    between atoms: CA_2  and  CB_3
REMARK    2  A    between atoms: CA_2  and  N_4
REMARK    3  A    between atoms: CA_2  and  C_10
REMARK    4  A    between atoms: C_5  and  C_7
REMARK    5  A    between atoms: C_7  and  C_8
REMARK    6  A    between atoms: C_8  and  S_9
REMARK    7  A    between atoms: C_10  and  O_11
REMARK                            x       y       z     vdW  Elec       q    Type
REMARK                         _______ _______ _______ _____ _____    ______ ____
ROOT
ATOM      1  N   ALA A   1       8.816  -3.015  24.620  0.00  0.00    -0.303 N 
ATOM      2  H   ALA A   1       7.825  -2.806  24.569  0.00  0.00    +0.150 HD
ATOM      3  C   UNK A   0       9.194  -4.256  25.068  0.00  0.00    +0.214 C 
ATOM      4  O   UNK A   0      10.274  -4.742  24.747  0.00  0.00    -0.276 OA
ENDROOT
BRANCH   1   5
ATOM      5  CA  ALA A   1       9.725  -2.169  23.838  0.00  0.00    +0.178 C 
ATOM      6  CB  ALA A   1       9.923  -0.832  24.534  0.00  0.00    +0.040 C 
BRANCH   5   7
ATOM      7  C   ALA A   1       9.205  -2.005  22.404  0.00  0.00    +0.325 C 
ATOM      8  OXT ALA A   1       8.049  -2.197  22.052  0.00  0.00    -0.249 OA
BRANCH   7   9
ATOM      9  O   ALA A   1      10.160  -1.570  21.542  0.00  0.00    -0.479 OA
ATOM     10  H   ALA A   1      10.360  -0.611  21.651  0.00  0.00    +0.295 HD
ENDBRANCH   7   9
ENDBRANCH   5   7
ENDBRANCH   1   5
BRANCH   3  11
ATOM     11  C   UNK A   0       8.145  -4.978  25.883  0.00  0.00    +0.106 C 
BRANCH  11  12
ATOM     12  C   UNK A   0       6.848  -5.095  25.094  0.00  0.00    +0.075 C 
BRANCH  12  13
ATOM     13  S   UNK A   0       5.577  -5.948  26.076  0.00  0.00    -0.178 S 
ATOM     14  H   UNK A   0       4.704  -4.932  26.134  0.00  0.00    +0.102 HD
ENDBRANCH  12  13
ENDBRANCH  11  12
ENDBRANCH   3  11
TORSDOF 6
ENDMDL
MODEL 6
REMARK VINA RESULT:      -3.9      4.188      6.086
REMARK  Name = 
REMARK  7 active torsions:
REMARK  status: ('A' for Active; 'I' for Inactive)
REMARK    1  A    between atoms: CA_2  and  CB_3
REMARK    2  A    between atoms: CA_2  and  N_4
REMARK    3  A    between atoms: CA_2  and  C_10
REMARK    4  A    between atoms: C_5  and  C_7
REMARK    5  A    between atoms: C_7  and  C_8
REMARK    6  A    between atoms: C_8  and  S_9
REMARK    7  A    between atoms: C_10  and  O_11
REMARK                            x       y       z     vdW  Elec       q    Type
REMARK                         _______ _______ _______ _____ _____    ______ ____
ROOT
ATOM      1  N   ALA A   1       7.896  -3.885  24.708  0.00  0.00    -0.303 N 
ATOM      2  H   ALA A   1       7.390  -3.007  24.742  0.00  0.00    +0.150 HD
ATOM      3  C   UNK A   0       9.254  -3.842  24.511  0.00  0.00    +0.214 C 
ATOM      4  O   UNK A   0       9.978  -4.756  24.895  0.00  0.00    -0.276 OA
ENDROOT
BRANCH   1   5
ATOM      5  CA  ALA A   1       7.237  -5.068  25.276  0.00  0.00    +0.178 C 
ATOM      6  CB  ALA A   1       5.832  -5.203  24.713  0.00  0.00    +0.040 C 
BRANCH   5   7
ATOM      7  C   ALA A   1       7.245  -5.001  26.808  0.00  0.00    +0.325 C 
ATOM      8  OXT ALA A   1       6.474  -4.334  27.484  0.00  0.00    -0.249 OA
BRANCH   7   9
ATOM      9  O   ALA A   1       8.183  -5.807  27.368  0.00  0.00    -0.479 OA
ATOM     10  H   ALA A   1       7.924  -6.123  28.265  0.00  0.00    +0.295 HD
ENDBRANCH   7   9
ENDBRANCH   5   7
ENDBRANCH   1   5
BRANCH   3  11
ATOM     11  C   UNK A   0       9.760  -2.560  23.890  0.00  0.00    +0.106 C 
BRANCH  11  12
ATOM     12  C   UNK A   0       8.867  -2.144  22.729  0.00  0.00    +0.075 C 
BRANCH  12  13
ATOM     13  S   UNK A   0       8.218  -0.465  22.992  0.00  0.00    -0.178 S 
ATOM     14  H   UNK A   0       8.809  -0.243  24.175  0.00  0.00    +0.102 HD
ENDBRANCH  12  13
ENDBRANCH  11  12
ENDBRANCH   3  11
TORSDOF 6
ENDMDL
MODEL 7
REMARK VINA RESULT:      -3.9      3.745      5.696
REMARK  Name = 
REMARK  7 active torsions:
REMARK  status: ('A' for Active; 'I' for Inactive)
REMARK    1  A    between atoms: CA_2  and  CB_3
REMARK    2  A    between atoms: CA_2  and  N_4
REMARK    3  A    between atoms: CA_2  and  C_10
REMARK    4  A    between atoms: C_5  and  C_7
REMARK    5  A    between atoms: C_7  and  C_8
REMARK    6  A    between atoms: C_8  and  S_9
REMARK    7  A    between atoms: C_10  and  O_11
REMARK                            x       y       z     vdW  Elec       q    Type
REMARK                         _______ _______ _______ _____ _____    ______ ____
ROOT
ATOM      1  N   ALA A   1       8.256  -3.393  24.003  0.00  0.00    -0.303 N 
ATOM      2  H   ALA A   1       9.016  -2.886  24.442  0.00  0.00    +0.150 HD
ATOM      3  C   UNK A   0       7.919  -3.065  22.713  0.00  0.00    +0.214 C 
ATOM      4  O   UNK A   0       7.365  -3.878  21.979  0.00  0.00    -0.276 OA
ENDROOT
BRANCH   1   5
ATOM      5  CA  ALA A   1       7.868  -4.678  24.597  0.00  0.00    +0.178 C 
ATOM      6  CB  ALA A   1       6.599  -4.513  25.417  0.00  0.00    +0.040 C 
BRANCH   5   7
ATOM      7  C   ALA A   1       9.023  -5.255  25.426  0.00  0.00    +0.325 C 
ATOM      8  OXT ALA A   1      10.209  -5.132  25.155  0.00  0.00    -0.249 OA
BRANCH   7   9
ATOM      9  O   ALA A   1       8.601  -5.896  26.546  0.00  0.00    -0.479 OA
ATOM     10  H   ALA A   1       8.161  -5.289  27.187  0.00  0.00    +0.295 HD
ENDBRANCH   7   9
ENDBRANCH   5   7
ENDBRANCH   1   5
BRANCH   3  11
ATOM     11  C   UNK A   0       8.372  -1.692  22.273  0.00  0.00    +0.106 C 
BRANCH  11  12
ATOM     12  C   UNK A   0       9.881  -1.555  22.430  0.00  0.00    +0.075 C 
BRANCH  12  13
ATOM     13  S   UNK A   0      10.286  -0.134  23.491  0.00  0.00    -0.178 S 
ATOM     14  H   UNK A   0      11.387  -0.656  24.052  0.00  0.00    +0.102 HD
ENDBRANCH  12  13
ENDBRANCH  11  12
ENDBRANCH   3  11
TORSDOF 6
ENDMDL
MODEL 8
REMARK VINA RESULT:      -3.9      4.869      6.494
REMARK  Name = 
REMARK  7 active torsions:
REMARK  status: ('A' for Active; 'I' for Inactive)
REMARK    1  A    between atoms: CA_2  and  CB_3
REMARK    2  A    between atoms: CA_2  and  N_4
REMARK    3  A    between atoms: CA_2  and  C_10
REMARK    4  A    between atoms: C_5  and  C_7
REMARK    5  A    between atoms: C_7  and  C_8
REMARK    6  A    between atoms: C_8  and  S_9
REMARK    7  A    between atoms: C_10  and  O_11
REMARK                            x       y       z     vdW  Elec       q    Type
REMARK                         _______ _______ _______ _____ _____    ______ ____
ROOT
ATOM      1  N   ALA A   1       6.555  -4.806  24.690  0.00  0.00    -0.303 N 
ATOM      2  H   ALA A   1       5.950  -3.994  24.752  0.00  0.00    +0.150 HD
ATOM      3  C   UNK A   0       7.639  -4.742  23.851  0.00  0.00    +0.214 C 
ATOM      4  O   UNK A   0       8.628  -5.445  24.041  0.00  0.00    -0.276 OA
ENDROOT
BRANCH   1   5
ATOM      5  CA  ALA A   1       6.478  -5.790  25.776  0.00  0.00    +0.178 C 
ATOM      6  CB  ALA A   1       5.032  -6.193  26.015  0.00  0.00    +0.040 C 
BRANCH   5   7
ATOM      7  C   ALA A   1       7.144  -5.241  27.045  0.00  0.00    +0.325 C 
ATOM      8  OXT ALA A   1       6.592  -4.532  27.874  0.00  0.00    -0.249 OA
BRANCH   7   9
ATOM      9  O   ALA A   1       8.426  -5.663  27.193  0.00  0.00    -0.479 OA
ATOM     10  H   ALA A   1       8.703  -6.289  26.484  0.00  0.00    +0.295 HD
ENDBRANCH   7   9
ENDBRANCH   5   7
ENDBRANCH   1   5
BRANCH   3  11
ATOM     11  C   UNK A   0       7.539  -3.690  22.770  0.00  0.00    +0.106 C 
BRANCH  11  12
ATOM     12  C   UNK A   0       6.297  -3.919  21.919  0.00  0.00    +0.075 C 
BRANCH  12  13
ATOM     13  S   UNK A   0       6.332  -5.577  21.172  0.00  0.00    -0.178 S 
ATOM     14  H   UNK A   0       7.161  -5.284  20.159  0.00  0.00    +0.102 HD
ENDBRANCH  12  13
ENDBRANCH  11  12
ENDBRANCH   3  11
TORSDOF 6
ENDMDL
MODEL 9
REMARK VINA RESULT:      -3.8      4.591      6.238
REMARK  Name = 
REMARK  7 active torsions:
REMARK  status: ('A' for Active; 'I' for Inactive)
REMARK    1  A    between atoms: CA_2  and  CB_3
REMARK    2  A    between atoms: CA_2  and  N_4
REMARK    3  A    between atoms: CA_2  and  C_10
REMARK    4  A    between atoms: C_5  and  C_7
REMARK    5  A    between atoms: C_7  and  C_8
REMARK    6  A    between atoms: C_8  and  S_9
REMARK    7  A    between atoms: C_10  and  O_11
REMARK                            x       y       z     vdW  Elec       q    Type
REMARK                         _______ _______ _______ _____ _____    ______ ____
ROOT
ATOM      1  N   ALA A   1      10.127   3.358  23.230  0.00  0.00    -0.303 N 
ATOM      2  H   ALA A   1      10.479   3.654  22.327  0.00  0.00    +0.150 HD
ATOM      3  C   UNK A   0       9.590   4.309  24.061  0.00  0.00    +0.214 C 
ATOM      4  O   UNK A   0       8.768   4.007  24.921  0.00  0.00    -0.276 OA
ENDROOT
BRANCH   1   5
ATOM      5  CA  ALA A   1       9.834   1.929  23.405  0.00  0.00    +0.178 C 
ATOM      6  CB  ALA A   1      10.932   1.267  24.222  0.00  0.00    +0.040 C 
BRANCH   5   7
ATOM      7  C   ALA A   1       9.636   1.252  22.044  0.00  0.00    +0.325 C 
ATOM      8  OXT ALA A   1       9.981   0.111  21.772  0.00  0.00    -0.249 OA
BRANCH   7   9
ATOM      9  O   ALA A   1       8.983   2.041  21.152  0.00  0.00    -0.479 OA
ATOM     10  H   ALA A   1       9.499   2.844  20.907  0.00  0.00    +0.295 HD
ENDBRANCH   7   9
ENDBRANCH   5   7
ENDBRANCH   1   5
BRANCH   3  11
ATOM     11  C   UNK A   0      10.021   5.726  23.756  0.00  0.00    +0.106 C 
BRANCH  11  12
ATOM     12  C   UNK A   0       8.833   6.674  23.852  0.00  0.00    +0.075 C 
BRANCH  12  13
ATOM     13  S   UNK A   0       7.689   6.408  22.462  0.00  0.00    -0.178 S 
ATOM     14  H   UNK A   0       6.593   6.167  23.195  0.00  0.00    +0.102 HD
ENDBRANCH  12  13
ENDBRANCH  11  12
ENDBRANCH   3  11
TORSDOF 6
ENDMDL
