MODEL 1
REMARK VINA RESULT:      -7.5      0.000      0.000
REMARK  Name = 
REMARK  21 active torsions:
REMARK  status: ('A' for Active; 'I' for Inactive)
REMARK    1  A    between atoms: N_10  and  C_11
REMARK    2  A    between atoms: C_14  and  C_16
REMARK    3  A    between atoms: C_16  and  O_17
REMARK    4  A    between atoms: O_17  and  P_18
REMARK    5  A    between atoms: P_18  and  O_19
REMARK    6  A    between atoms: P_18  and  O_21
REMARK    7  A    between atoms: O_21  and  P_22
REMARK    8  A    between atoms: P_22  and  O_23
REMARK    9  A    between atoms: P_22  and  O_25
REMARK   10  A    between atoms: O_25  and  C_26
REMARK   11  A    between atoms: C_29  and  N_40
REMARK   12  A    between atoms: C_32  and  C_34
REMARK   13  A    between atoms: C_34  and  O_35
REMARK   14  A    between atoms: O_35  and  P_36
REMARK   15  A    between atoms: P_36  and  O_37
REMARK   16  A    between atoms: P_36  and  O_38
REMARK   17  A    between atoms: C_48  and  O_50
REMARK   18  A    between atoms: O_50  and  P_51
REMARK   19  A    between atoms: P_51  and  O_52
REMARK   20  A    between atoms: P_51  and  O_53
REMARK   21  A    between atoms: C_55  and  O_57
REMARK                            x       y       z     vdW  Elec       q    Type
REMARK                         _______ _______ _______ _____ _____    ______ ____
ROOT
ATOM      1  P   UNL     1       5.222  -3.844  27.041  0.00  0.00    +0.483 P 
ATOM      2  O   UNL     1       4.407  -3.944  28.338  0.00  0.00    -0.227 OA
ENDROOT
BRANCH   1   3
ATOM      3  O   UNL     1       3.848  -3.132  26.267  0.00  0.00    -0.302 OA
ATOM      4  H   UNL     1       3.045  -3.589  26.581  0.00  0.00    +0.222 HD
ENDBRANCH   1   3
BRANCH   1   5
ATOM      5  O   UNL     1       6.597  -4.557  27.814  0.00  0.00    -0.186 OA
BRANCH   5   6
ATOM      6  P   UNL     1       7.416  -4.824  26.310  0.00  0.00    +0.484 P 
ATOM      7  O   UNL     1       6.474  -5.358  25.269  0.00  0.00    -0.227 OA
BRANCH   6   8
ATOM      8  O   UNL     1       8.482  -5.932  26.745  0.00  0.00    -0.302 OA
ATOM      9  H   UNL     1       8.335  -6.294  27.651  0.00  0.00    +0.222 HD
ENDBRANCH   6   8
BRANCH   6  10
ATOM     10  O   UNL     1       8.432  -3.691  25.756  0.00  0.00    -0.280 OA
BRANCH  10  11
ATOM     11  C   UNL     1       8.436  -3.222  24.350  0.00  0.00    +0.165 C 
ATOM     12  C   UNL     1       7.316  -2.286  23.825  0.00  0.00    +0.176 C 
ATOM     13  O   UNL     1       7.820  -1.506  22.718  0.00  0.00    -0.348 OA
ATOM     14  C   UNL     1       9.250  -1.603  22.659  0.00  0.00    +0.226 C 
ATOM     15  C   UNL     1       9.711  -2.602  23.747  0.00  0.00    +0.089 C 
BRANCH  14  16
ATOM     16  N   UNL     1       9.794  -0.242  22.753  0.00  0.00    -0.274 N 
ATOM     17  C   UNL     1       9.589   0.649  21.704  0.00  0.00    +0.331 A 
ATOM     18  O   UNL     1       9.074   0.346  20.625  0.00  0.00    -0.246 OA
ATOM     19  N   UNL     1      10.008   1.942  21.928  0.00  0.00    -0.275 N 
ATOM     20  H   UNL     1       9.849   2.605  21.171  0.00  0.00    +0.173 HD
ATOM     21  C   UNL     1      10.595   2.420  23.058  0.00  0.00    +0.254 A 
ATOM     22  O   UNL     1      10.935   3.587  23.194  0.00  0.00    -0.268 OA
ATOM     23  C   UNL     1      10.797   1.428  24.119  0.00  0.00    +0.088 A 
ATOM     24  C   UNL     1      10.399   0.181  23.931  0.00  0.00    +0.098 A 
ENDBRANCH  14  16
BRANCH  12  25
ATOM     25  C   UNL     1       6.109  -3.070  23.292  0.00  0.00    +0.206 C 
BRANCH  25  26
ATOM     26  O   UNL     1       6.379  -3.694  22.046  0.00  0.00    -0.284 OA
BRANCH  26  27
ATOM     27  P   UNL     1       5.947  -5.219  21.805  0.00  0.00    +0.472 P 
ATOM     28  O   UNL     1       4.634  -5.643  22.370  0.00  0.00    -0.228 OA
BRANCH  27  29
ATOM     29  O   UNL     1       6.033  -5.342  20.214  0.00  0.00    -0.303 OA
ATOM     30  H   UNL     1       6.253  -4.490  19.799  0.00  0.00    +0.222 HD
ENDBRANCH  27  29
BRANCH  27  31
ATOM     31  O   UNL     1       7.207  -6.056  22.297  0.00  0.00    -0.303 OA
ATOM     32  H   UNL     1       7.588  -5.642  23.096  0.00  0.00    +0.222 HD
ENDBRANCH  27  31
ENDBRANCH  26  27
ENDBRANCH  25  26
ENDBRANCH  12  25
ENDBRANCH  10  11
ENDBRANCH   6  10
ENDBRANCH   5   6
ENDBRANCH   1   5
BRANCH   1  33
ATOM     33  O   UNL     1       5.933  -2.375  27.106  0.00  0.00    -0.284 OA
BRANCH  33  34
ATOM     34  C   UNL     1       4.968  -1.376  26.977  0.00  0.00    +0.206 C 
BRANCH  34  38
ATOM     35  C   UNL     1       7.471   1.154  26.264  0.00  0.00    +0.253 C 
ATOM     36  C   UNL     1       6.793   1.630  27.567  0.00  0.00    +0.196 C 
ATOM     37  C   UNL     1       5.506   0.820  27.670  0.00  0.00    +0.194 C 
ATOM     38  C   UNL     1       5.539  -0.083  26.466  0.00  0.00    +0.179 C 
ATOM     39  O   UNL     1       6.917  -0.178  26.079  0.00  0.00    -0.346 OA
BRANCH  35  47
ATOM     40  N   UNL     1       7.293   5.238  21.791  0.00  0.00    -0.341 N 
ATOM     41  H   UNL     1       6.614   4.658  21.308  0.00  0.00    +0.144 HD
ATOM     42  H   UNL     1       7.173   6.242  21.742  0.00  0.00    +0.144 HD
ATOM     43  C   UNL     1       7.544   4.818  23.091  0.00  0.00    +0.147 A 
ATOM     44  C   UNL     1       7.287   3.516  23.549  0.00  0.00    +0.147 A 
ATOM     45  N   UNL     1       6.758   2.397  22.943  0.00  0.00    -0.231 NA
ATOM     46  C   UNL     1       6.771   1.465  23.873  0.00  0.00    +0.203 A 
ATOM     47  N   UNL     1       7.256   1.939  25.074  0.00  0.00    -0.286 N 
ATOM     48  C   UNL     1       7.608   3.251  24.875  0.00  0.00    +0.167 A 
ATOM     49  N   UNL     1       8.147   4.104  25.756  0.00  0.00    -0.216 NA
ATOM     50  C   UNL     1       8.313   5.326  25.216  0.00  0.00    +0.225 A 
ATOM     51  N   UNL     1       8.047   5.725  23.961  0.00  0.00    -0.219 NA
ENDBRANCH  35  47
BRANCH  36  52
ATOM     52  O   UNL     1       7.604   1.254  28.708  0.00  0.00    -0.385 OA
ATOM     53  H   UNL     1       7.310   0.377  29.028  0.00  0.00    +0.210 HD
ENDBRANCH  36  52
BRANCH  37  54
ATOM     54  O   UNL     1       4.238   1.460  27.725  0.00  0.00    -0.278 OA
BRANCH  54  55
ATOM     55  P   UNL     1       3.837   2.059  26.153  0.00  0.00    +0.473 P 
ATOM     56  O   UNL     1       3.478   2.596  24.745  0.00  0.00    -0.228 OA
BRANCH  55  57
ATOM     57  O   UNL     1       3.525   3.465  26.925  0.00  0.00    -0.303 OA
ATOM     58  H   UNL     1       3.164   4.142  26.333  0.00  0.00    +0.222 HD
ENDBRANCH  55  57
BRANCH  55  59
ATOM     59  O   UNL     1       2.378   1.371  26.423  0.00  0.00    -0.303 OA
ATOM     60  H   UNL     1       1.876   1.287  25.595  0.00  0.00    +0.222 HD
ENDBRANCH  55  59
ENDBRANCH  54  55
ENDBRANCH  37  54
ENDBRANCH  34  38
ENDBRANCH  33  34
ENDBRANCH   1  33
TORSDOF 21
ENDMDL
MODEL 2
REMARK VINA RESULT:      -7.5      2.756      4.735
REMARK  Name = 
REMARK  21 active torsions:
REMARK  status: ('A' for Active; 'I' for Inactive)
REMARK    1  A    between atoms: N_10  and  C_11
REMARK    2  A    between atoms: C_14  and  C_16
REMARK    3  A    between atoms: C_16  and  O_17
REMARK    4  A    between atoms: O_17  and  P_18
REMARK    5  A    between atoms: P_18  and  O_19
REMARK    6  A    between atoms: P_18  and  O_21
REMARK    7  A    between atoms: O_21  and  P_22
REMARK    8  A    between atoms: P_22  and  O_23
REMARK    9  A    between atoms: P_22  and  O_25
REMARK   10  A    between atoms: O_25  and  C_26
REMARK   11  A    between atoms: C_29  and  N_40
REMARK   12  A    between atoms: C_32  and  C_34
REMARK   13  A    between atoms: C_34  and  O_35
REMARK   14  A    between atoms: O_35  and  P_36
REMARK   15  A    between atoms: P_36  and  O_37
REMARK   16  A    between atoms: P_36  and  O_38
REMARK   17  A    between atoms: C_48  and  O_50
REMARK   18  A    between atoms: O_50  and  P_51
REMARK   19  A    between atoms: P_51  and  O_52
REMARK   20  A    between atoms: P_51  and  O_53
REMARK   21  A    between atoms: C_55  and  O_57
REMARK                            x       y       z     vdW  Elec       q    Type
REMARK                         _______ _______ _______ _____ _____    ______ ____
ROOT
ATOM      1  P   UNL     1       5.549  -6.449  28.596  0.00  0.00    +0.483 P 
ATOM      2  O   UNL     1       6.441  -7.469  29.319  0.00  0.00    -0.227 OA
ENDROOT
BRANCH   1   3
ATOM      3  O   UNL     1       4.256  -7.598  28.634  0.00  0.00    -0.302 OA
ATOM      4  H   UNL     1       3.418  -7.127  28.470  0.00  0.00    +0.222 HD
ENDBRANCH   1   3
BRANCH   1   5
ATOM      5  O   UNL     1       6.842  -5.300  28.558  0.00  0.00    -0.186 OA
BRANCH   5   6
ATOM      6  P   UNL     1       6.872  -5.257  26.825  0.00  0.00    +0.484 P 
ATOM      7  O   UNL     1       5.935  -6.277  26.244  0.00  0.00    -0.227 OA
BRANCH   6   8
ATOM      8  O   UNL     1       8.396  -5.648  26.545  0.00  0.00    -0.302 OA
ATOM      9  H   UNL     1       8.750  -6.338  27.155  0.00  0.00    +0.222 HD
ENDBRANCH   6   8
BRANCH   6  10
ATOM     10  O   UNL     1       6.831  -3.824  26.073  0.00  0.00    -0.280 OA
BRANCH  10  11
ATOM     11  C   UNL     1       7.859  -3.390  25.098  0.00  0.00    +0.165 C 
ATOM     12  C   UNL     1       7.489  -3.149  23.611  0.00  0.00    +0.176 C 
ATOM     13  O   UNL     1       8.411  -2.198  23.033  0.00  0.00    -0.348 OA
ATOM     14  C   UNL     1       9.159  -1.546  24.068  0.00  0.00    +0.226 C 
ATOM     15  C   UNL     1       8.771  -2.191  25.422  0.00  0.00    +0.089 C 
BRANCH  14  16
ATOM     16  N   UNL     1       8.926  -0.102  23.946  0.00  0.00    -0.274 N 
ATOM     17  C   UNL     1       9.960   0.783  24.237  0.00  0.00    +0.331 A 
ATOM     18  O   UNL     1      11.048   0.449  24.712  0.00  0.00    -0.246 OA
ATOM     19  N   UNL     1       9.706   2.110  23.965  0.00  0.00    -0.275 N 
ATOM     20  H   UNL     1      10.463   2.763  24.161  0.00  0.00    +0.173 HD
ATOM     21  C   UNL     1       8.558   2.625  23.450  0.00  0.00    +0.254 A 
ATOM     22  O   UNL     1       8.402   3.818  23.223  0.00  0.00    -0.268 OA
ATOM     23  C   UNL     1       7.502   1.644  23.180  0.00  0.00    +0.088 A 
ATOM     24  C   UNL     1       7.723   0.363  23.428  0.00  0.00    +0.098 A 
ENDBRANCH  14  16
BRANCH  12  25
ATOM     25  C   UNL     1       7.601  -4.430  22.772  0.00  0.00    +0.206 C 
BRANCH  25  26
ATOM     26  O   UNL     1       6.752  -5.464  23.250  0.00  0.00    -0.284 OA
BRANCH  26  27
ATOM     27  P   UNL     1       5.240  -5.561  22.728  0.00  0.00    +0.472 P 
ATOM     28  O   UNL     1       4.424  -4.315  22.794  0.00  0.00    -0.228 OA
BRANCH  27  29
ATOM     29  O   UNL     1       5.435  -6.125  21.246  0.00  0.00    -0.303 OA
ATOM     30  H   UNL     1       4.797  -6.832  21.045  0.00  0.00    +0.222 HD
ENDBRANCH  27  29
BRANCH  27  31
ATOM     31  O   UNL     1       4.645  -6.811  23.512  0.00  0.00    -0.303 OA
ATOM     32  H   UNL     1       3.996  -6.507  24.176  0.00  0.00    +0.222 HD
ENDBRANCH  27  31
ENDBRANCH  26  27
ENDBRANCH  25  26
ENDBRANCH  12  25
ENDBRANCH  10  11
ENDBRANCH   6  10
ENDBRANCH   5   6
ENDBRANCH   1   5
BRANCH   1  33
ATOM     33  O   UNL     1       4.822  -5.608  29.793  0.00  0.00    -0.284 OA
BRANCH  33  34
ATOM     34  C   UNL     1       3.573  -5.157  29.364  0.00  0.00    +0.206 C 
BRANCH  34  38
ATOM     35  C   UNL     1       2.855  -1.755  28.325  0.00  0.00    +0.253 C 
ATOM     36  C   UNL     1       1.979  -2.637  27.409  0.00  0.00    +0.196 C 
ATOM     37  C   UNL     1       2.544  -4.045  27.548  0.00  0.00    +0.194 C 
ATOM     38  C   UNL     1       3.662  -3.900  28.545  0.00  0.00    +0.179 C 
ATOM     39  O   UNL     1       3.376  -2.708  29.291  0.00  0.00    -0.346 OA
BRANCH  35  47
ATOM     40  N   UNL     1       7.739   1.529  26.882  0.00  0.00    -0.341 N 
ATOM     41  H   UNL     1       7.508   1.413  25.900  0.00  0.00    +0.144 HD
ATOM     42  H   UNL     1       8.113   2.423  27.174  0.00  0.00    +0.144 HD
ATOM     43  C   UNL     1       6.730   1.095  27.734  0.00  0.00    +0.147 A 
ATOM     44  C   UNL     1       5.733   0.185  27.355  0.00  0.00    +0.147 A 
ATOM     45  N   UNL     1       5.459  -0.466  26.171  0.00  0.00    -0.231 NA
ATOM     46  C   UNL     1       4.397  -1.203  26.423  0.00  0.00    +0.203 A 
ATOM     47  N   UNL     1       3.945  -1.035  27.715  0.00  0.00    -0.286 N 
ATOM     48  C   UNL     1       4.804  -0.160  28.331  0.00  0.00    +0.167 A 
ATOM     49  N   UNL     1       4.771   0.277  29.596  0.00  0.00    -0.216 NA
ATOM     50  C   UNL     1       5.752   1.170  29.832  0.00  0.00    +0.225 A 
ATOM     51  N   UNL     1       6.709   1.596  28.991  0.00  0.00    -0.219 NA
ENDBRANCH  35  47
BRANCH  36  52
ATOM     52  O   UNL     1       0.625  -2.687  27.923  0.00  0.00    -0.385 OA
ATOM     53  H   UNL     1       0.138  -1.899  27.607  0.00  0.00    +0.210 HD
ENDBRANCH  36  52
BRANCH  37  54
ATOM     54  O   UNL     1       3.031  -4.757  26.418  0.00  0.00    -0.278 OA
BRANCH  54  55
ATOM     55  P   UNL     1       1.862  -5.942  25.948  0.00  0.00    +0.473 P 
ATOM     56  O   UNL     1       0.815  -7.002  25.526  0.00  0.00    -0.228 OA
BRANCH  55  57
ATOM     57  O   UNL     1       3.124  -6.980  25.951  0.00  0.00    -0.303 OA
ATOM     58  H   UNL     1       2.847  -7.901  25.830  0.00  0.00    +0.222 HD
ENDBRANCH  55  57
BRANCH  55  59
ATOM     59  O   UNL     1       2.101  -5.365  24.436  0.00  0.00    -0.303 OA
ATOM     60  H   UNL     1       1.647  -5.918  23.778  0.00  0.00    +0.222 HD
ENDBRANCH  55  59
ENDBRANCH  54  55
ENDBRANCH  37  54
ENDBRANCH  34  38
ENDBRANCH  33  34
ENDBRANCH   1  33
TORSDOF 21
ENDMDL
MODEL 3
REMARK VINA RESULT:      -7.3      4.047      8.349
REMARK  Name = 
REMARK  21 active torsions:
REMARK  status: ('A' for Active; 'I' for Inactive)
REMARK    1  A    between atoms: N_10  and  C_11
REMARK    2  A    between atoms: C_14  and  C_16
REMARK    3  A    between atoms: C_16  and  O_17
REMARK    4  A    between atoms: O_17  and  P_18
REMARK    5  A    between atoms: P_18  and  O_19
REMARK    6  A    between atoms: P_18  and  O_21
REMARK    7  A    between atoms: O_21  and  P_22
REMARK    8  A    between atoms: P_22  and  O_23
REMARK    9  A    between atoms: P_22  and  O_25
REMARK   10  A    between atoms: O_25  and  C_26
REMARK   11  A    between atoms: C_29  and  N_40
REMARK   12  A    between atoms: C_32  and  C_34
REMARK   13  A    between atoms: C_34  and  O_35
REMARK   14  A    between atoms: O_35  and  P_36
REMARK   15  A    between atoms: P_36  and  O_37
REMARK   16  A    between atoms: P_36  and  O_38
REMARK   17  A    between atoms: C_48  and  O_50
REMARK   18  A    between atoms: O_50  and  P_51
REMARK   19  A    between atoms: P_51  and  O_52
REMARK   20  A    between atoms: P_51  and  O_53
REMARK   21  A    between atoms: C_55  and  O_57
REMARK                            x       y       z     vdW  Elec       q    Type
REMARK                         _______ _______ _______ _____ _____    ______ ____
ROOT
ATOM      1  P   UNL     1       5.323   0.529  25.907  0.00  0.00    +0.483 P 
ATOM      2  O   UNL     1       3.869   0.655  26.386  0.00  0.00    -0.227 OA
ENDROOT
BRANCH   1   3
ATOM      3  O   UNL     1       5.675  -0.411  27.317  0.00  0.00    -0.302 OA
ATOM      4  H   UNL     1       4.980  -0.244  27.982  0.00  0.00    +0.222 HD
ENDBRANCH   1   3
BRANCH   1   5
ATOM      5  O   UNL     1       4.971   1.469  24.498  0.00  0.00    -0.186 OA
BRANCH   5   6
ATOM      6  P   UNL     1       5.546   2.935  25.224  0.00  0.00    +0.484 P 
ATOM      7  O   UNL     1       6.313   2.650  26.484  0.00  0.00    -0.227 OA
BRANCH   6   8
ATOM      8  O   UNL     1       4.164   3.670  25.545  0.00  0.00    -0.302 OA
ATOM      9  H   UNL     1       3.813   3.483  26.447  0.00  0.00    +0.222 HD
ENDBRANCH   6   8
BRANCH   6  10
ATOM     10  O   UNL     1       6.227   4.064  24.283  0.00  0.00    -0.280 OA
BRANCH  10  11
ATOM     11  C   UNL     1       7.478   3.839  23.521  0.00  0.00    +0.165 C 
ATOM     12  C   UNL     1       8.850   3.809  24.243  0.00  0.00    +0.176 C 
ATOM     13  O   UNL     1       9.779   3.007  23.479  0.00  0.00    -0.348 OA
ATOM     14  C   UNL     1       9.073   2.245  22.491  0.00  0.00    +0.226 C 
ATOM     15  C   UNL     1       7.580   2.654  22.541  0.00  0.00    +0.089 C 
BRANCH  14  16
ATOM     16  N   UNL     1       9.366   0.826  22.727  0.00  0.00    -0.274 N 
ATOM     17  C   UNL     1       9.369  -0.059  21.653  0.00  0.00    +0.331 A 
ATOM     18  O   UNL     1       9.022   0.238  20.507  0.00  0.00    -0.246 OA
ATOM     19  N   UNL     1       9.788  -1.341  21.935  0.00  0.00    -0.275 N 
ATOM     20  H   UNL     1       9.807  -1.992  21.152  0.00  0.00    +0.173 HD
ATOM     21  C   UNL     1      10.191  -1.813  23.145  0.00  0.00    +0.254 A 
ATOM     22  O   UNL     1      10.561  -2.966  23.324  0.00  0.00    -0.268 OA
ATOM     23  C   UNL     1      10.150  -0.837  24.238  0.00  0.00    +0.088 A 
ATOM     24  C   UNL     1       9.756   0.402  23.992  0.00  0.00    +0.098 A 
ENDBRANCH  14  16
BRANCH  12  25
ATOM     25  C   UNL     1       9.474   5.207  24.357  0.00  0.00    +0.206 C 
BRANCH  25  26
ATOM     26  O   UNL     1      10.331   5.507  23.265  0.00  0.00    -0.284 OA
BRANCH  26  27
ATOM     27  P   UNL     1      11.918   5.555  23.484  0.00  0.00    +0.472 P 
ATOM     28  O   UNL     1      12.416   6.393  24.612  0.00  0.00    -0.228 OA
BRANCH  27  29
ATOM     29  O   UNL     1      12.281   4.005  23.624  0.00  0.00    -0.303 OA
ATOM     30  H   UNL     1      11.981   3.494  22.852  0.00  0.00    +0.222 HD
ENDBRANCH  27  29
BRANCH  27  31
ATOM     31  O   UNL     1      12.490   5.928  22.048  0.00  0.00    -0.303 OA
ATOM     32  H   UNL     1      12.487   6.899  21.932  0.00  0.00    +0.222 HD
ENDBRANCH  27  31
ENDBRANCH  26  27
ENDBRANCH  25  26
ENDBRANCH  12  25
ENDBRANCH  10  11
ENDBRANCH   6  10
ENDBRANCH   5   6
ENDBRANCH   1   5
BRANCH   1  33
ATOM     33  O   UNL     1       5.350  -0.832  25.006  0.00  0.00    -0.284 OA
BRANCH  33  34
ATOM     34  C   UNL     1       6.517  -1.551  25.269  0.00  0.00    +0.206 C 
BRANCH  34  38
ATOM     35  C   UNL     1       7.202  -5.012  26.122  0.00  0.00    +0.253 C 
ATOM     36  C   UNL     1       7.430  -4.932  24.596  0.00  0.00    +0.196 C 
ATOM     37  C   UNL     1       6.780  -3.624  24.161  0.00  0.00    +0.194 C 
ATOM     38  C   UNL     1       6.263  -3.023  25.440  0.00  0.00    +0.179 C 
ATOM     39  O   UNL     1       7.030  -3.618  26.497  0.00  0.00    -0.346 OA
BRANCH  35  47
ATOM     40  N   UNL     1       2.744  -7.788  29.146  0.00  0.00    -0.341 N 
ATOM     41  H   UNL     1       2.496  -8.283  28.296  0.00  0.00    +0.144 HD
ATOM     42  H   UNL     1       2.679  -8.293  30.020  0.00  0.00    +0.144 HD
ATOM     43  C   UNL     1       3.947  -7.099  29.045  0.00  0.00    +0.147 A 
ATOM     44  C   UNL     1       4.523  -6.719  27.823  0.00  0.00    +0.147 A 
ATOM     45  N   UNL     1       4.142  -6.901  26.511  0.00  0.00    -0.231 NA
ATOM     46  C   UNL     1       5.080  -6.314  25.798  0.00  0.00    +0.203 A 
ATOM     47  N   UNL     1       6.077  -5.784  26.589  0.00  0.00    -0.286 N 
ATOM     48  C   UNL     1       5.723  -6.021  27.894  0.00  0.00    +0.167 A 
ATOM     49  N   UNL     1       6.379  -5.663  29.005  0.00  0.00    -0.216 NA
ATOM     50  C   UNL     1       5.752  -6.112  30.109  0.00  0.00    +0.225 A 
ATOM     51  N   UNL     1       4.598  -6.796  30.192  0.00  0.00    -0.219 NA
ENDBRANCH  35  47
BRANCH  36  52
ATOM     52  O   UNL     1       8.846  -4.798  24.317  0.00  0.00    -0.385 OA
ATOM     53  H   UNL     1       9.284  -4.400  25.098  0.00  0.00    +0.210 HD
ENDBRANCH  36  52
BRANCH  37  54
ATOM     54  O   UNL     1       5.737  -3.607  23.196  0.00  0.00    -0.278 OA
BRANCH  54  55
ATOM     55  P   UNL     1       6.003  -4.877  22.052  0.00  0.00    +0.473 P 
ATOM     56  O   UNL     1       6.241  -6.015  21.029  0.00  0.00    -0.228 OA
BRANCH  55  57
ATOM     57  O   UNL     1       5.610  -3.756  20.930  0.00  0.00    -0.303 OA
ATOM     58  H   UNL     1       5.425  -2.889  21.321  0.00  0.00    +0.222 HD
ENDBRANCH  55  57
BRANCH  55  59
ATOM     59  O   UNL     1       4.472  -5.324  22.412  0.00  0.00    -0.303 OA
ATOM     60  H   UNL     1       4.308  -6.245  22.147  0.00  0.00    +0.222 HD
ENDBRANCH  55  59
ENDBRANCH  54  55
ENDBRANCH  37  54
ENDBRANCH  34  38
ENDBRANCH  33  34
ENDBRANCH   1  33
TORSDOF 21
ENDMDL
MODEL 4
REMARK VINA RESULT:      -7.3      3.427      7.318
REMARK  Name = 
REMARK  21 active torsions:
REMARK  status: ('A' for Active; 'I' for Inactive)
REMARK    1  A    between atoms: N_10  and  C_11
REMARK    2  A    between atoms: C_14  and  C_16
REMARK    3  A    between atoms: C_16  and  O_17
REMARK    4  A    between atoms: O_17  and  P_18
REMARK    5  A    between atoms: P_18  and  O_19
REMARK    6  A    between atoms: P_18  and  O_21
REMARK    7  A    between atoms: O_21  and  P_22
REMARK    8  A    between atoms: P_22  and  O_23
REMARK    9  A    between atoms: P_22  and  O_25
REMARK   10  A    between atoms: O_25  and  C_26
REMARK   11  A    between atoms: C_29  and  N_40
REMARK   12  A    between atoms: C_32  and  C_34
REMARK   13  A    between atoms: C_34  and  O_35
REMARK   14  A    between atoms: O_35  and  P_36
REMARK   15  A    between atoms: P_36  and  O_37
REMARK   16  A    between atoms: P_36  and  O_38
REMARK   17  A    between atoms: C_48  and  O_50
REMARK   18  A    between atoms: O_50  and  P_51
REMARK   19  A    between atoms: P_51  and  O_52
REMARK   20  A    between atoms: P_51  and  O_53
REMARK   21  A    between atoms: C_55  and  O_57
REMARK                            x       y       z     vdW  Elec       q    Type
REMARK                         _______ _______ _______ _____ _____    ______ ____
ROOT
ATOM      1  P   UNL     1       8.942   0.669  22.224  0.00  0.00    +0.483 P 
ATOM      2  O   UNL     1       7.656   1.433  21.878  0.00  0.00    -0.227 OA
ENDROOT
BRANCH   1   3
ATOM      3  O   UNL     1       9.850   1.873  21.374  0.00  0.00    -0.302 OA
ATOM      4  H   UNL     1      10.446   2.315  22.006  0.00  0.00    +0.222 HD
ENDBRANCH   1   3
BRANCH   1   5
ATOM      5  O   UNL     1       8.035  -0.535  23.073  0.00  0.00    -0.186 OA
BRANCH   5   6
ATOM      6  P   UNL     1       9.109  -1.809  22.595  0.00  0.00    +0.484 P 
ATOM      7  O   UNL     1      10.020  -1.361  21.488  0.00  0.00    -0.227 OA
BRANCH   6   8
ATOM      8  O   UNL     1       8.063  -2.900  22.074  0.00  0.00    -0.302 OA
ATOM      9  H   UNL     1       7.321  -3.072  22.700  0.00  0.00    +0.222 HD
ENDBRANCH   6   8
BRANCH   6  10
ATOM     10  O   UNL     1       9.847  -2.686  23.739  0.00  0.00    -0.280 OA
BRANCH  10  11
ATOM     11  C   UNL     1       9.124  -3.328  24.862  0.00  0.00    +0.165 C 
ATOM     12  C   UNL     1       7.905  -2.630  25.520  0.00  0.00    +0.176 C 
ATOM     13  O   UNL     1       7.038  -3.627  26.105  0.00  0.00    -0.348 OA
ATOM     14  C   UNL     1       7.395  -4.931  25.628  0.00  0.00    +0.226 C 
ATOM     15  C   UNL     1       8.657  -4.791  24.742  0.00  0.00    +0.089 C 
BRANCH  14  16
ATOM     16  N   UNL     1       6.210  -5.512  24.985  0.00  0.00    -0.274 N 
ATOM     17  C   UNL     1       5.358  -6.323  25.728  0.00  0.00    +0.331 A 
ATOM     18  O   UNL     1       5.586  -6.697  26.881  0.00  0.00    -0.246 OA
ATOM     19  N   UNL     1       4.200  -6.714  25.093  0.00  0.00    -0.275 N 
ATOM     20  H   UNL     1       3.563  -7.296  25.635  0.00  0.00    +0.173 HD
ATOM     21  C   UNL     1       3.820  -6.388  23.829  0.00  0.00    +0.254 A 
ATOM     22  O   UNL     1       2.768  -6.764  23.328  0.00  0.00    -0.268 OA
ATOM     23  C   UNL     1       4.767  -5.545  23.093  0.00  0.00    +0.088 A 
ATOM     24  C   UNL     1       5.884  -5.152  23.682  0.00  0.00    +0.098 A 
ENDBRANCH  14  16
BRANCH  12  25
ATOM     25  C   UNL     1       8.322  -1.691  26.661  0.00  0.00    +0.206 C 
BRANCH  25  26
ATOM     26  O   UNL     1       8.346  -0.330  26.259  0.00  0.00    -0.284 OA
BRANCH  26  27
ATOM     27  P   UNL     1       7.044   0.584  26.453  0.00  0.00    +0.472 P 
ATOM     28  O   UNL     1       5.820  -0.091  26.972  0.00  0.00    -0.228 OA
BRANCH  27  29
ATOM     29  O   UNL     1       7.591   1.745  27.405  0.00  0.00    -0.303 OA
ATOM     30  H   UNL     1       8.560   1.712  27.492  0.00  0.00    +0.222 HD
ENDBRANCH  27  29
BRANCH  27  31
ATOM     31  O   UNL     1       6.878   1.318  25.052  0.00  0.00    -0.303 OA
ATOM     32  H   UNL     1       7.736   1.336  24.584  0.00  0.00    +0.222 HD
ENDBRANCH  27  31
ENDBRANCH  26  27
ENDBRANCH  25  26
ENDBRANCH  12  25
ENDBRANCH  10  11
ENDBRANCH   6  10
ENDBRANCH   5   6
ENDBRANCH   1   5
BRANCH   1  33
ATOM     33  O   UNL     1       9.440   1.310  23.641  0.00  0.00    -0.284 OA
BRANCH  33  34
ATOM     34  C   UNL     1      10.072   2.533  23.411  0.00  0.00    +0.206 C 
BRANCH  34  38
ATOM     35  C   UNL     1       7.731   5.160  24.297  0.00  0.00    +0.253 C 
ATOM     36  C   UNL     1       8.898   5.894  23.600  0.00  0.00    +0.196 C 
ATOM     37  C   UNL     1      10.045   4.892  23.576  0.00  0.00    +0.194 C 
ATOM     38  C   UNL     1       9.470   3.654  24.211  0.00  0.00    +0.179 C 
ATOM     39  O   UNL     1       8.046   3.760  24.068  0.00  0.00    -0.346 OA
BRANCH  35  47
ATOM     40  N   UNL     1       6.198   5.211  30.159  0.00  0.00    -0.341 N 
ATOM     41  H   UNL     1       6.758   6.049  30.283  0.00  0.00    +0.144 HD
ATOM     42  H   UNL     1       5.329   5.147  30.673  0.00  0.00    +0.144 HD
ATOM     43  C   UNL     1       6.029   4.860  28.825  0.00  0.00    +0.147 A 
ATOM     44  C   UNL     1       6.883   5.287  27.797  0.00  0.00    +0.147 A 
ATOM     45  N   UNL     1       7.998   6.097  27.780  0.00  0.00    -0.231 NA
ATOM     46  C   UNL     1       8.381   6.125  26.520  0.00  0.00    +0.203 A 
ATOM     47  N   UNL     1       7.543   5.393  25.707  0.00  0.00    -0.286 N 
ATOM     48  C   UNL     1       6.586   4.833  26.516  0.00  0.00    +0.167 A 
ATOM     49  N   UNL     1       5.578   4.024  26.166  0.00  0.00    -0.216 NA
ATOM     50  C   UNL     1       4.809   3.711  27.226  0.00  0.00    +0.225 A 
ATOM     51  N   UNL     1       4.972   4.076  28.509  0.00  0.00    -0.219 NA
ENDBRANCH  35  47
BRANCH  36  52
ATOM     52  O   UNL     1       8.556   6.157  22.216  0.00  0.00    -0.385 OA
ATOM     53  H   UNL     1       8.116   5.366  21.845  0.00  0.00    +0.210 HD
ENDBRANCH  36  52
BRANCH  37  54
ATOM     54  O   UNL     1      11.290   5.185  24.196  0.00  0.00    -0.278 OA
BRANCH  54  55
ATOM     55  P   UNL     1      12.473   5.491  22.972  0.00  0.00    +0.473 P 
ATOM     56  O   UNL     1      13.533   5.765  21.876  0.00  0.00    -0.228 OA
BRANCH  55  57
ATOM     57  O   UNL     1      13.309   4.277  23.677  0.00  0.00    -0.303 OA
ATOM     58  H   UNL     1      13.978   3.895  23.089  0.00  0.00    +0.222 HD
ENDBRANCH  55  57
BRANCH  55  59
ATOM     59  O   UNL     1      12.989   6.677  23.973  0.00  0.00    -0.303 OA
ATOM     60  H   UNL     1      13.875   6.986  23.718  0.00  0.00    +0.222 HD
ENDBRANCH  55  59
ENDBRANCH  54  55
ENDBRANCH  37  54
ENDBRANCH  34  38
ENDBRANCH  33  34
ENDBRANCH   1  33
TORSDOF 21
ENDMDL
MODEL 5
REMARK VINA RESULT:      -7.2      3.444      5.788
REMARK  Name = 
REMARK  21 active torsions:
REMARK  status: ('A' for Active; 'I' for Inactive)
REMARK    1  A    between atoms: N_10  and  C_11
REMARK    2  A    between atoms: C_14  and  C_16
REMARK    3  A    between atoms: C_16  and  O_17
REMARK    4  A    between atoms: O_17  and  P_18
REMARK    5  A    between atoms: P_18  and  O_19
REMARK    6  A    between atoms: P_18  and  O_21
REMARK    7  A    between atoms: O_21  and  P_22
REMARK    8  A    between atoms: P_22  and  O_23
REMARK    9  A    between atoms: P_22  and  O_25
REMARK   10  A    between atoms: O_25  and  C_26
REMARK   11  A    between atoms: C_29  and  N_40
REMARK   12  A    between atoms: C_32  and  C_34
REMARK   13  A    between atoms: C_34  and  O_35
REMARK   14  A    between atoms: O_35  and  P_36
REMARK   15  A    between atoms: P_36  and  O_37
REMARK   16  A    between atoms: P_36  and  O_38
REMARK   17  A    between atoms: C_48  and  O_50
REMARK   18  A    between atoms: O_50  and  P_51
REMARK   19  A    between atoms: P_51  and  O_52
REMARK   20  A    between atoms: P_51  and  O_53
REMARK   21  A    between atoms: C_55  and  O_57
REMARK                            x       y       z     vdW  Elec       q    Type
REMARK                         _______ _______ _______ _____ _____    ______ ____
ROOT
ATOM      1  P   UNL     1       7.201  -5.357  26.522  0.00  0.00    +0.483 P 
ATOM      2  O   UNL     1       7.611  -5.991  27.860  0.00  0.00    -0.227 OA
ENDROOT
BRANCH   1   3
ATOM      3  O   UNL     1       5.994  -6.583  26.346  0.00  0.00    -0.302 OA
ATOM      4  H   UNL     1       6.149  -7.271  27.020  0.00  0.00    +0.222 HD
ENDBRANCH   1   3
BRANCH   1   5
ATOM      5  O   UNL     1       8.410  -4.131  26.698  0.00  0.00    -0.186 OA
BRANCH   5   6
ATOM      6  P   UNL     1       9.270  -4.651  25.285  0.00  0.00    +0.484 P 
ATOM      7  O   UNL     1       8.467  -5.650  24.502  0.00  0.00    -0.227 OA
BRANCH   6   8
ATOM      8  O   UNL     1      10.551  -5.336  25.952  0.00  0.00    -0.302 OA
ATOM      9  H   UNL     1      11.203  -5.684  25.299  0.00  0.00    +0.222 HD
ENDBRANCH   6   8
BRANCH   6  10
ATOM     10  O   UNL     1      10.017  -3.545  24.368  0.00  0.00    -0.280 OA
BRANCH  10  11
ATOM     11  C   UNL     1       9.316  -2.730  23.348  0.00  0.00    +0.165 C 
ATOM     12  C   UNL     1       7.945  -2.075  23.663  0.00  0.00    +0.176 C 
ATOM     13  O   UNL     1       7.768  -0.906  22.832  0.00  0.00    -0.348 OA
ATOM     14  C   UNL     1       9.015  -0.539  22.226  0.00  0.00    +0.226 C 
ATOM     15  C   UNL     1      10.069  -1.608  22.607  0.00  0.00    +0.089 C 
BRANCH  14  16
ATOM     16  N   UNL     1       9.317   0.841  22.625  0.00  0.00    -0.274 N 
ATOM     17  C   UNL     1       8.701   1.895  21.956  0.00  0.00    +0.331 A 
ATOM     18  O   UNL     1       7.992   1.763  20.955  0.00  0.00    -0.246 OA
ATOM     19  N   UNL     1       8.929   3.149  22.478  0.00  0.00    -0.275 N 
ATOM     20  H   UNL     1       8.470   3.925  22.004  0.00  0.00    +0.173 HD
ATOM     21  C   UNL     1       9.688   3.448  23.566  0.00  0.00    +0.254 A 
ATOM     22  O   UNL     1       9.841   4.588  23.983  0.00  0.00    -0.268 OA
ATOM     23  C   UNL     1      10.323   2.297  24.216  0.00  0.00    +0.088 A 
ATOM     24  C   UNL     1      10.116   1.081  23.737  0.00  0.00    +0.098 A 
ENDBRANCH  14  16
BRANCH  12  25
ATOM     25  C   UNL     1       6.770  -3.013  23.351  0.00  0.00    +0.206 C 
BRANCH  25  26
ATOM     26  O   UNL     1       6.952  -3.718  22.131  0.00  0.00    -0.284 OA
BRANCH  26  27
ATOM     27  P   UNL     1       5.976  -4.931  21.756  0.00  0.00    +0.472 P 
ATOM     28  O   UNL     1       5.818  -5.244  20.307  0.00  0.00    -0.228 OA
BRANCH  27  29
ATOM     29  O   UNL     1       6.593  -6.132  22.610  0.00  0.00    -0.303 OA
ATOM     30  H   UNL     1       6.992  -5.815  23.440  0.00  0.00    +0.222 HD
ENDBRANCH  27  29
BRANCH  27  31
ATOM     31  O   UNL     1       4.630  -4.594  22.534  0.00  0.00    -0.303 OA
ATOM     32  H   UNL     1       4.833  -4.084  23.342  0.00  0.00    +0.222 HD
ENDBRANCH  27  31
ENDBRANCH  26  27
ENDBRANCH  25  26
ENDBRANCH  12  25
ENDBRANCH  10  11
ENDBRANCH   6  10
ENDBRANCH   5   6
ENDBRANCH   1   5
BRANCH   1  33
ATOM     33  O   UNL     1       6.037  -4.280  26.910  0.00  0.00    -0.284 OA
BRANCH  33  34
ATOM     34  C   UNL     1       4.968  -4.938  27.521  0.00  0.00    +0.206 C 
BRANCH  34  38
ATOM     35  C   UNL     1       1.507  -3.935  27.950  0.00  0.00    +0.253 C 
ATOM     36  C   UNL     1       1.436  -5.256  27.153  0.00  0.00    +0.196 C 
ATOM     37  C   UNL     1       2.847  -5.485  26.628  0.00  0.00    +0.194 C 
ATOM     38  C   UNL     1       3.639  -4.327  27.175  0.00  0.00    +0.179 C 
ATOM     39  O   UNL     1       2.911  -3.853  28.317  0.00  0.00    -0.346 OA
BRANCH  35  47
ATOM     40  N   UNL     1       0.443   1.693  25.972  0.00  0.00    -0.341 N 
ATOM     41  H   UNL     1      -0.151   1.309  25.245  0.00  0.00    +0.144 HD
ATOM     42  H   UNL     1       0.156   2.562  26.404  0.00  0.00    +0.144 HD
ATOM     43  C   UNL     1       0.821   0.752  26.922  0.00  0.00    +0.147 A 
ATOM     44  C   UNL     1       0.806  -0.632  26.691  0.00  0.00    +0.147 A 
ATOM     45  N   UNL     1       0.443  -1.397  25.603  0.00  0.00    -0.231 NA
ATOM     46  C   UNL     1       0.654  -2.642  25.974  0.00  0.00    +0.203 A 
ATOM     47  N   UNL     1       1.109  -2.726  27.273  0.00  0.00    -0.286 N 
ATOM     48  C   UNL     1       1.229  -1.441  27.740  0.00  0.00    +0.167 A 
ATOM     49  N   UNL     1       1.658  -1.035  28.942  0.00  0.00    -0.216 NA
ATOM     50  C   UNL     1       1.593   0.305  29.059  0.00  0.00    +0.225 A 
ATOM     51  N   UNL     1       1.206   1.203  28.138  0.00  0.00    -0.219 NA
ENDBRANCH  35  47
BRANCH  36  52
ATOM     52  O   UNL     1       1.151  -6.357  28.052  0.00  0.00    -0.385 OA
ATOM     53  H   UNL     1       1.664  -6.231  28.877  0.00  0.00    +0.210 HD
ENDBRANCH  36  52
BRANCH  37  54
ATOM     54  O   UNL     1       3.104  -5.594  25.234  0.00  0.00    -0.278 OA
BRANCH  54  55
ATOM     55  P   UNL     1       2.786  -7.216  24.725  0.00  0.00    +0.473 P 
ATOM     56  O   UNL     1       2.501  -8.668  24.269  0.00  0.00    -0.228 OA
BRANCH  55  57
ATOM     57  O   UNL     1       3.262  -7.631  26.232  0.00  0.00    -0.303 OA
ATOM     58  H   UNL     1       3.462  -8.576  26.312  0.00  0.00    +0.222 HD
ENDBRANCH  55  57
BRANCH  55  59
ATOM     59  O   UNL     1       4.283  -7.149  24.070  0.00  0.00    -0.303 OA
ATOM     60  H   UNL     1       4.239  -7.196  23.099  0.00  0.00    +0.222 HD
ENDBRANCH  55  59
ENDBRANCH  54  55
ENDBRANCH  37  54
ENDBRANCH  34  38
ENDBRANCH  33  34
ENDBRANCH   1  33
TORSDOF 21
ENDMDL
MODEL 6
REMARK VINA RESULT:      -7.2      3.095      6.844
REMARK  Name = 
REMARK  21 active torsions:
REMARK  status: ('A' for Active; 'I' for Inactive)
REMARK    1  A    between atoms: N_10  and  C_11
REMARK    2  A    between atoms: C_14  and  C_16
REMARK    3  A    between atoms: C_16  and  O_17
REMARK    4  A    between atoms: O_17  and  P_18
REMARK    5  A    between atoms: P_18  and  O_19
REMARK    6  A    between atoms: P_18  and  O_21
REMARK    7  A    between atoms: O_21  and  P_22
REMARK    8  A    between atoms: P_22  and  O_23
REMARK    9  A    between atoms: P_22  and  O_25
REMARK   10  A    between atoms: O_25  and  C_26
REMARK   11  A    between atoms: C_29  and  N_40
REMARK   12  A    between atoms: C_32  and  C_34
REMARK   13  A    between atoms: C_34  and  O_35
REMARK   14  A    between atoms: O_35  and  P_36
REMARK   15  A    between atoms: P_36  and  O_37
REMARK   16  A    between atoms: P_36  and  O_38
REMARK   17  A    between atoms: C_48  and  O_50
REMARK   18  A    between atoms: O_50  and  P_51
REMARK   19  A    between atoms: P_51  and  O_52
REMARK   20  A    between atoms: P_51  and  O_53
REMARK   21  A    between atoms: C_55  and  O_57
REMARK                            x       y       z     vdW  Elec       q    Type
REMARK                         _______ _______ _______ _____ _____    ______ ____
ROOT
ATOM      1  P   UNL     1       8.696  -3.681  24.606  0.00  0.00    +0.483 P 
ATOM      2  O   UNL     1      10.160  -3.389  24.248  0.00  0.00    -0.227 OA
ENDROOT
BRANCH   1   3
ATOM      3  O   UNL     1       8.922  -5.313  24.080  0.00  0.00    -0.302 OA
ATOM      4  H   UNL     1       9.605  -5.322  23.382  0.00  0.00    +0.222 HD
ENDBRANCH   1   3
BRANCH   1   5
ATOM      5  O   UNL     1       8.468  -2.048  25.132  0.00  0.00    -0.186 OA
BRANCH   5   6
ATOM      6  P   UNL     1       7.191  -1.765  23.995  0.00  0.00    +0.484 P 
ATOM      7  O   UNL     1       5.846  -1.986  24.628  0.00  0.00    -0.227 OA
BRANCH   6   8
ATOM      8  O   UNL     1       7.507  -2.891  22.906  0.00  0.00    -0.302 OA
ATOM      9  H   UNL     1       8.127  -3.590  23.223  0.00  0.00    +0.222 HD
ENDBRANCH   6   8
BRANCH   6  10
ATOM     10  O   UNL     1       7.261  -0.457  23.043  0.00  0.00    -0.280 OA
BRANCH  10  11
ATOM     11  C   UNL     1       7.022   0.919  23.536  0.00  0.00    +0.165 C 
ATOM     12  C   UNL     1       7.461   1.336  24.964  0.00  0.00    +0.176 C 
ATOM     13  O   UNL     1       7.695   2.762  24.999  0.00  0.00    -0.348 OA
ATOM     14  C   UNL     1       7.761   3.283  23.664  0.00  0.00    +0.226 C 
ATOM     15  C   UNL     1       7.445   2.129  22.681  0.00  0.00    +0.089 C 
BRANCH  14  16
ATOM     16  N   UNL     1       9.066   3.935  23.503  0.00  0.00    -0.274 N 
ATOM     17  C   UNL     1       9.141   5.325  23.524  0.00  0.00    +0.331 A 
ATOM     18  O   UNL     1       8.162   6.073  23.551  0.00  0.00    -0.246 OA
ATOM     19  N   UNL     1      10.413   5.855  23.506  0.00  0.00    -0.275 N 
ATOM     20  H   UNL     1      10.479   6.871  23.535  0.00  0.00    +0.173 HD
ATOM     21  C   UNL     1      11.580   5.158  23.469  0.00  0.00    +0.254 A 
ATOM     22  O   UNL     1      12.680   5.695  23.464  0.00  0.00    -0.268 OA
ATOM     23  C   UNL     1      11.433   3.700  23.433  0.00  0.00    +0.088 A 
ATOM     24  C   UNL     1      10.223   3.166  23.454  0.00  0.00    +0.098 A 
ENDBRANCH  14  16
BRANCH  12  25
ATOM     25  C   UNL     1       6.376   1.047  26.011  0.00  0.00    +0.206 C 
BRANCH  25  26
ATOM     26  O   UNL     1       6.904   0.437  27.180  0.00  0.00    -0.284 OA
BRANCH  26  27
ATOM     27  P   UNL     1       7.033   1.284  28.534  0.00  0.00    +0.472 P 
ATOM     28  O   UNL     1       5.874   1.237  29.471  0.00  0.00    -0.228 OA
BRANCH  27  29
ATOM     29  O   UNL     1       8.388   0.712  29.158  0.00  0.00    -0.303 OA
ATOM     30  H   UNL     1       8.977   0.355  28.470  0.00  0.00    +0.222 HD
ENDBRANCH  27  29
BRANCH  27  31
ATOM     31  O   UNL     1       7.453   2.736  28.039  0.00  0.00    -0.303 OA
ATOM     32  H   UNL     1       8.427   2.805  28.000  0.00  0.00    +0.222 HD
ENDBRANCH  27  31
ENDBRANCH  26  27
ENDBRANCH  25  26
ENDBRANCH  12  25
ENDBRANCH  10  11
ENDBRANCH   6  10
ENDBRANCH   5   6
ENDBRANCH   1   5
BRANCH   1  33
ATOM     33  O   UNL     1       8.737  -4.187  26.158  0.00  0.00    -0.284 OA
BRANCH  33  34
ATOM     34  C   UNL     1       7.853  -5.252  26.333  0.00  0.00    +0.206 C 
BRANCH  34  38
ATOM     35  C   UNL     1       4.361  -5.132  27.314  0.00  0.00    +0.253 C 
ATOM     36  C   UNL     1       4.391  -6.069  26.086  0.00  0.00    +0.196 C 
ATOM     37  C   UNL     1       5.744  -5.828  25.430  0.00  0.00    +0.194 C 
ATOM     38  C   UNL     1       6.414  -4.816  26.321  0.00  0.00    +0.179 C 
ATOM     39  O   UNL     1       5.771  -4.927  27.600  0.00  0.00    -0.346 OA
BRANCH  35  47
ATOM     40  N   UNL     1       2.153   0.498  27.702  0.00  0.00    -0.341 N 
ATOM     41  H   UNL     1       1.593   0.320  26.874  0.00  0.00    +0.144 HD
ATOM     42  H   UNL     1       1.739   1.056  28.437  0.00  0.00    +0.144 HD
ATOM     43  C   UNL     1       2.758  -0.646  28.208  0.00  0.00    +0.147 A 
ATOM     44  C   UNL     1       2.984  -1.805  27.450  0.00  0.00    +0.147 A 
ATOM     45  N   UNL     1       2.698  -2.140  26.144  0.00  0.00    -0.231 NA
ATOM     46  C   UNL     1       3.158  -3.365  25.997  0.00  0.00    +0.203 A 
ATOM     47  N   UNL     1       3.704  -3.857  27.164  0.00  0.00    -0.286 N 
ATOM     48  C   UNL     1       3.615  -2.858  28.101  0.00  0.00    +0.167 A 
ATOM     49  N   UNL     1       4.040  -2.877  29.371  0.00  0.00    -0.216 NA
ATOM     50  C   UNL     1       3.737  -1.729  30.006  0.00  0.00    +0.225 A 
ATOM     51  N   UNL     1       3.132  -0.637  29.509  0.00  0.00    -0.219 NA
ENDBRANCH  35  47
BRANCH  36  52
ATOM     52  O   UNL     1       4.390  -7.451  26.524  0.00  0.00    -0.385 OA
ATOM     53  H   UNL     1       4.150  -7.481  27.473  0.00  0.00    +0.210 HD
ENDBRANCH  36  52
BRANCH  37  54
ATOM     54  O   UNL     1       5.839  -5.381  24.084  0.00  0.00    -0.278 OA
BRANCH  54  55
ATOM     55  P   UNL     1       4.304  -5.581  23.312  0.00  0.00    +0.473 P 
ATOM     56  O   UNL     1       2.930  -5.759  22.621  0.00  0.00    -0.228 OA
BRANCH  55  57
ATOM     57  O   UNL     1       5.142  -6.411  22.180  0.00  0.00    -0.303 OA
ATOM     58  H   UNL     1       6.002  -6.716  22.505  0.00  0.00    +0.222 HD
ENDBRANCH  55  57
BRANCH  55  59
ATOM     59  O   UNL     1       4.584  -4.092  22.696  0.00  0.00    -0.303 OA
ATOM     60  H   UNL     1       4.150  -3.987  21.832  0.00  0.00    +0.222 HD
ENDBRANCH  55  59
ENDBRANCH  54  55
ENDBRANCH  37  54
ENDBRANCH  34  38
ENDBRANCH  33  34
ENDBRANCH   1  33
TORSDOF 21
ENDMDL
MODEL 7
REMARK VINA RESULT:      -7.1      4.057      8.511
REMARK  Name = 
REMARK  21 active torsions:
REMARK  status: ('A' for Active; 'I' for Inactive)
REMARK    1  A    between atoms: N_10  and  C_11
REMARK    2  A    between atoms: C_14  and  C_16
REMARK    3  A    between atoms: C_16  and  O_17
REMARK    4  A    between atoms: O_17  and  P_18
REMARK    5  A    between atoms: P_18  and  O_19
REMARK    6  A    between atoms: P_18  and  O_21
REMARK    7  A    between atoms: O_21  and  P_22
REMARK    8  A    between atoms: P_22  and  O_23
REMARK    9  A    between atoms: P_22  and  O_25
REMARK   10  A    between atoms: O_25  and  C_26
REMARK   11  A    between atoms: C_29  and  N_40
REMARK   12  A    between atoms: C_32  and  C_34
REMARK   13  A    between atoms: C_34  and  O_35
REMARK   14  A    between atoms: O_35  and  P_36
REMARK   15  A    between atoms: P_36  and  O_37
REMARK   16  A    between atoms: P_36  and  O_38
REMARK   17  A    between atoms: C_48  and  O_50
REMARK   18  A    between atoms: O_50  and  P_51
REMARK   19  A    between atoms: P_51  and  O_52
REMARK   20  A    between atoms: P_51  and  O_53
REMARK   21  A    between atoms: C_55  and  O_57
REMARK                            x       y       z     vdW  Elec       q    Type
REMARK                         _______ _______ _______ _____ _____    ______ ____
ROOT
ATOM      1  P   UNL     1       9.636  -1.274  22.647  0.00  0.00    +0.483 P 
ATOM      2  O   UNL     1      11.043  -1.737  22.243  0.00  0.00    -0.227 OA
ENDROOT
BRANCH   1   3
ATOM      3  O   UNL     1       9.383  -0.725  21.026  0.00  0.00    -0.302 OA
ATOM      4  H   UNL     1       8.462  -0.923  20.772  0.00  0.00    +0.222 HD
ENDBRANCH   1   3
BRANCH   1   5
ATOM      5  O   UNL     1       9.889  -1.822  24.269  0.00  0.00    -0.186 OA
BRANCH   5   6
ATOM      6  P   UNL     1       9.885  -0.211  24.909  0.00  0.00    +0.484 P 
ATOM      7  O   UNL     1      11.263   0.386  24.878  0.00  0.00    -0.227 OA
BRANCH   6   8
ATOM      8  O   UNL     1       9.412  -0.490  26.410  0.00  0.00    -0.302 OA
ATOM      9  H   UNL     1       8.813  -1.268  26.502  0.00  0.00    +0.222 HD
ENDBRANCH   6   8
BRANCH   6  10
ATOM     10  O   UNL     1       8.715   0.812  24.456  0.00  0.00    -0.280 OA
BRANCH  10  11
ATOM     11  C   UNL     1       8.888   2.284  24.435  0.00  0.00    +0.165 C 
ATOM     12  C   UNL     1       9.246   3.021  23.117  0.00  0.00    +0.176 C 
ATOM     13  O   UNL     1       8.773   4.385  23.185  0.00  0.00    -0.348 OA
ATOM     14  C   UNL     1       7.863   4.536  24.283  0.00  0.00    +0.226 C 
ATOM     15  C   UNL     1       7.813   3.196  25.056  0.00  0.00    +0.089 C 
BRANCH  14  16
ATOM     16  N   UNL     1       6.589   5.024  23.742  0.00  0.00    -0.274 N 
ATOM     17  C   UNL     1       6.592   6.067  22.821  0.00  0.00    +0.331 A 
ATOM     18  O   UNL     1       7.595   6.708  22.501  0.00  0.00    -0.246 OA
ATOM     19  N   UNL     1       5.371   6.371  22.258  0.00  0.00    -0.275 N 
ATOM     20  H   UNL     1       5.367   7.124  21.572  0.00  0.00    +0.173 HD
ATOM     21  C   UNL     1       4.185   5.759  22.517  0.00  0.00    +0.254 A 
ATOM     22  O   UNL     1       3.136   6.076  21.972  0.00  0.00    -0.268 OA
ATOM     23  C   UNL     1       4.245   4.680  23.508  0.00  0.00    +0.088 A 
ATOM     24  C   UNL     1       5.406   4.365  24.059  0.00  0.00    +0.098 A 
ENDBRANCH  14  16
BRANCH  12  25
ATOM     25  C   UNL     1      10.762   3.095  22.889  0.00  0.00    +0.206 C 
BRANCH  25  26
ATOM     26  O   UNL     1      11.401   3.979  23.798  0.00  0.00    -0.284 OA
BRANCH  26  27
ATOM     27  P   UNL     1      12.028   5.355  23.269  0.00  0.00    +0.472 P 
ATOM     28  O   UNL     1      12.910   5.275  22.069  0.00  0.00    -0.228 OA
BRANCH  27  29
ATOM     29  O   UNL     1      10.725   6.253  23.051  0.00  0.00    -0.303 OA
ATOM     30  H   UNL     1      10.328   6.103  22.175  0.00  0.00    +0.222 HD
ENDBRANCH  27  29
BRANCH  27  31
ATOM     31  O   UNL     1      12.692   5.996  24.564  0.00  0.00    -0.303 OA
ATOM     32  H   UNL     1      12.769   6.965  24.453  0.00  0.00    +0.222 HD
ENDBRANCH  27  31
ENDBRANCH  26  27
ENDBRANCH  25  26
ENDBRANCH  12  25
ENDBRANCH  10  11
ENDBRANCH   6  10
ENDBRANCH   5   6
ENDBRANCH   1   5
BRANCH   1  33
ATOM     33  O   UNL     1       8.672  -2.559  22.351  0.00  0.00    -0.284 OA
BRANCH  33  34
ATOM     34  C   UNL     1       7.388  -2.310  22.839  0.00  0.00    +0.206 C 
BRANCH  34  38
ATOM     35  C   UNL     1       7.440  -4.010  26.045  0.00  0.00    +0.253 C 
ATOM     36  C   UNL     1       8.230  -4.939  25.097  0.00  0.00    +0.196 C 
ATOM     37  C   UNL     1       7.892  -4.458  23.691  0.00  0.00    +0.194 C 
ATOM     38  C   UNL     1       6.979  -3.282  23.910  0.00  0.00    +0.179 C 
ATOM     39  O   UNL     1       7.245  -2.815  25.241  0.00  0.00    -0.346 OA
BRANCH  35  47
ATOM     40  N   UNL     1       2.727  -6.397  29.014  0.00  0.00    -0.341 N 
ATOM     41  H   UNL     1       2.127  -6.144  28.235  0.00  0.00    +0.144 HD
ATOM     42  H   UNL     1       2.545  -7.276  29.480  0.00  0.00    +0.144 HD
ATOM     43  C   UNL     1       4.079  -6.237  28.736  0.00  0.00    +0.147 A 
ATOM     44  C   UNL     1       4.569  -5.401  27.721  0.00  0.00    +0.147 A 
ATOM     45  N   UNL     1       3.949  -4.595  26.790  0.00  0.00    -0.231 NA
ATOM     46  C   UNL     1       4.931  -4.043  26.108  0.00  0.00    +0.203 A 
ATOM     47  N   UNL     1       6.167  -4.481  26.533  0.00  0.00    -0.286 N 
ATOM     48  C   UNL     1       5.951  -5.339  27.581  0.00  0.00    +0.167 A 
ATOM     49  N   UNL     1       6.861  -5.986  28.321  0.00  0.00    -0.216 NA
ATOM     50  C   UNL     1       6.274  -6.782  29.234  0.00  0.00    +0.225 A 
ATOM     51  N   UNL     1       4.963  -6.943  29.479  0.00  0.00    -0.219 NA
ENDBRANCH  35  47
BRANCH  36  52
ATOM     52  O   UNL     1       9.653  -4.723  25.272  0.00  0.00    -0.385 OA
ATOM     53  H   UNL     1       9.791  -4.153  26.056  0.00  0.00    +0.210 HD
ENDBRANCH  36  52
BRANCH  37  54
ATOM     54  O   UNL     1       7.293  -5.329  22.741  0.00  0.00    -0.278 OA
BRANCH  54  55
ATOM     55  P   UNL     1       5.583  -5.069  22.733  0.00  0.00    +0.473 P 
ATOM     56  O   UNL     1       4.053  -4.836  22.726  0.00  0.00    -0.228 OA
BRANCH  55  57
ATOM     57  O   UNL     1       5.479  -6.697  22.825  0.00  0.00    -0.303 OA
ATOM     58  H   UNL     1       5.265  -7.104  21.972  0.00  0.00    +0.222 HD
ENDBRANCH  55  57
BRANCH  55  59
ATOM     59  O   UNL     1       5.751  -4.985  21.109  0.00  0.00    -0.303 OA
ATOM     60  H   UNL     1       5.202  -5.656  20.668  0.00  0.00    +0.222 HD
ENDBRANCH  55  59
ENDBRANCH  54  55
ENDBRANCH  37  54
ENDBRANCH  34  38
ENDBRANCH  33  34
ENDBRANCH   1  33
TORSDOF 21
ENDMDL
MODEL 8
REMARK VINA RESULT:      -7.1      2.212      5.697
REMARK  Name = 
REMARK  21 active torsions:
REMARK  status: ('A' for Active; 'I' for Inactive)
REMARK    1  A    between atoms: N_10  and  C_11
REMARK    2  A    between atoms: C_14  and  C_16
REMARK    3  A    between atoms: C_16  and  O_17
REMARK    4  A    between atoms: O_17  and  P_18
REMARK    5  A    between atoms: P_18  and  O_19
REMARK    6  A    between atoms: P_18  and  O_21
REMARK    7  A    between atoms: O_21  and  P_22
REMARK    8  A    between atoms: P_22  and  O_23
REMARK    9  A    between atoms: P_22  and  O_25
REMARK   10  A    between atoms: O_25  and  C_26
REMARK   11  A    between atoms: C_29  and  N_40
REMARK   12  A    between atoms: C_32  and  C_34
REMARK   13  A    between atoms: C_34  and  O_35
REMARK   14  A    between atoms: O_35  and  P_36
REMARK   15  A    between atoms: P_36  and  O_37
REMARK   16  A    between atoms: P_36  and  O_38
REMARK   17  A    between atoms: C_48  and  O_50
REMARK   18  A    between atoms: O_50  and  P_51
REMARK   19  A    between atoms: P_51  and  O_52
REMARK   20  A    between atoms: P_51  and  O_53
REMARK   21  A    between atoms: C_55  and  O_57
REMARK                            x       y       z     vdW  Elec       q    Type
REMARK                         _______ _______ _______ _____ _____    ______ ____
ROOT
ATOM      1  P   UNL     1       6.025  -4.066  22.560  0.00  0.00    +0.483 P 
ATOM      2  O   UNL     1       5.638  -3.352  21.257  0.00  0.00    -0.227 OA
ENDROOT
BRANCH   1   3
ATOM      3  O   UNL     1       7.445  -4.666  21.774  0.00  0.00    -0.302 OA
ATOM      4  H   UNL     1       7.779  -3.977  21.170  0.00  0.00    +0.222 HD
ENDBRANCH   1   3
BRANCH   1   5
ATOM      5  O   UNL     1       4.605  -3.467  23.346  0.00  0.00    -0.186 OA
BRANCH   5   6
ATOM      6  P   UNL     1       4.056  -5.057  23.762  0.00  0.00    +0.484 P 
ATOM      7  O   UNL     1       5.035  -6.103  23.309  0.00  0.00    -0.227 OA
BRANCH   6   8
ATOM      8  O   UNL     1       2.700  -5.134  22.919  0.00  0.00    -0.302 OA
ATOM      9  H   UNL     1       2.366  -4.255  22.621  0.00  0.00    +0.222 HD
ENDBRANCH   6   8
BRANCH   6  10
ATOM     10  O   UNL     1       3.454  -5.320  25.243  0.00  0.00    -0.280 OA
BRANCH  10  11
ATOM     11  C   UNL     1       4.097  -4.817  26.480  0.00  0.00    +0.165 C 
ATOM     12  C   UNL     1       5.553  -4.282  26.455  0.00  0.00    +0.176 C 
ATOM     13  O   UNL     1       5.736  -3.333  27.529  0.00  0.00    -0.348 OA
ATOM     14  C   UNL     1       4.464  -2.948  28.068  0.00  0.00    +0.226 C 
ATOM     15  C   UNL     1       3.369  -3.785  27.362  0.00  0.00    +0.089 C 
BRANCH  14  16
ATOM     16  N   UNL     1       4.349  -1.490  27.945  0.00  0.00    -0.274 N 
ATOM     17  C   UNL     1       4.239  -0.714  29.095  0.00  0.00    +0.331 A 
ATOM     18  O   UNL     1       4.110  -1.173  30.233  0.00  0.00    -0.246 OA
ATOM     19  N   UNL     1       4.276   0.649  28.902  0.00  0.00    -0.275 N 
ATOM     20  H   UNL     1       4.210   1.225  29.740  0.00  0.00    +0.173 HD
ATOM     21  C   UNL     1       4.405   1.296  27.713  0.00  0.00    +0.254 A 
ATOM     22  O   UNL     1       4.440   2.515  27.614  0.00  0.00    -0.268 OA
ATOM     23  C   UNL     1       4.501   0.424  26.538  0.00  0.00    +0.088 A 
ATOM     24  C   UNL     1       4.473  -0.890  26.697  0.00  0.00    +0.098 A 
ENDBRANCH  14  16
BRANCH  12  25
ATOM     25  C   UNL     1       6.583  -5.398  26.679  0.00  0.00    +0.206 C 
BRANCH  25  26
ATOM     26  O   UNL     1       7.462  -5.550  25.574  0.00  0.00    -0.284 OA
BRANCH  26  27
ATOM     27  P   UNL     1       8.966  -5.005  25.668  0.00  0.00    +0.472 P 
ATOM     28  O   UNL     1       9.308  -4.177  26.860  0.00  0.00    -0.228 OA
BRANCH  27  29
ATOM     29  O   UNL     1       9.817  -6.353  25.555  0.00  0.00    -0.303 OA
ATOM     30  H   UNL     1       9.248  -7.123  25.377  0.00  0.00    +0.222 HD
ENDBRANCH  27  29
BRANCH  27  31
ATOM     31  O   UNL     1       9.210  -4.310  24.259  0.00  0.00    -0.303 OA
ATOM     32  H   UNL     1       8.967  -3.364  24.309  0.00  0.00    +0.222 HD
ENDBRANCH  27  31
ENDBRANCH  26  27
ENDBRANCH  25  26
ENDBRANCH  12  25
ENDBRANCH  10  11
ENDBRANCH   6  10
ENDBRANCH   5   6
ENDBRANCH   1   5
BRANCH   1  33
ATOM     33  O   UNL     1       6.944  -2.986  23.371  0.00  0.00    -0.284 OA
BRANCH  33  34
ATOM     34  C   UNL     1       6.378  -1.714  23.271  0.00  0.00    +0.206 C 
BRANCH  34  38
ATOM     35  C   UNL     1       8.826   0.580  21.885  0.00  0.00    +0.253 C 
ATOM     36  C   UNL     1       9.660  -0.599  22.434  0.00  0.00    +0.196 C 
ATOM     37  C   UNL     1       8.716  -1.366  23.351  0.00  0.00    +0.194 C 
ATOM     38  C   UNL     1       7.411  -0.623  23.247  0.00  0.00    +0.179 C 
ATOM     39  O   UNL     1       7.461   0.094  22.004  0.00  0.00    -0.346 OA
BRANCH  35  47
ATOM     40  N   UNL     1       8.171   6.001  24.511  0.00  0.00    -0.341 N 
ATOM     41  H   UNL     1       9.177   6.048  24.632  0.00  0.00    +0.144 HD
ATOM     42  H   UNL     1       7.685   6.857  24.276  0.00  0.00    +0.144 HD
ATOM     43  C   UNL     1       7.766   4.946  23.702  0.00  0.00    +0.147 A 
ATOM     44  C   UNL     1       8.551   3.809  23.460  0.00  0.00    +0.147 A 
ATOM     45  N   UNL     1       9.811   3.434  23.875  0.00  0.00    -0.231 NA
ATOM     46  C   UNL     1      10.013   2.252  23.332  0.00  0.00    +0.203 A 
ATOM     47  N   UNL     1       8.950   1.852  22.551  0.00  0.00    -0.286 N 
ATOM     48  C   UNL     1       7.996   2.835  22.638  0.00  0.00    +0.167 A 
ATOM     49  N   UNL     1       6.786   2.865  22.064  0.00  0.00    -0.216 NA
ATOM     50  C   UNL     1       6.143   4.016  22.337  0.00  0.00    +0.225 A 
ATOM     51  N   UNL     1       6.554   5.038  23.106  0.00  0.00    -0.219 NA
ENDBRANCH  35  47
BRANCH  36  52
ATOM     52  O   UNL     1      10.004  -1.502  21.354  0.00  0.00    -0.385 OA
ATOM     53  H   UNL     1       9.523  -1.226  20.547  0.00  0.00    +0.210 HD
ENDBRANCH  36  52
BRANCH  37  54
ATOM     54  O   UNL     1       9.022  -1.558  24.726  0.00  0.00    -0.278 OA
BRANCH  54  55
ATOM     55  P   UNL     1       8.357  -0.251  25.642  0.00  0.00    +0.473 P 
ATOM     56  O   UNL     1       7.760   0.919  26.463  0.00  0.00    -0.228 OA
BRANCH  55  57
ATOM     57  O   UNL     1       9.905   0.049  26.071  0.00  0.00    -0.303 OA
ATOM     58  H   UNL     1      10.019   0.931  26.456  0.00  0.00    +0.222 HD
ENDBRANCH  55  57
BRANCH  55  59
ATOM     59  O   UNL     1       8.066  -1.389  26.780  0.00  0.00    -0.303 OA
ATOM     60  H   UNL     1       7.534  -2.117  26.415  0.00  0.00    +0.222 HD
ENDBRANCH  55  59
ENDBRANCH  54  55
ENDBRANCH  37  54
ENDBRANCH  34  38
ENDBRANCH  33  34
ENDBRANCH   1  33
TORSDOF 21
ENDMDL
MODEL 9
REMARK VINA RESULT:      -7.1      3.604      7.536
REMARK  Name = 
REMARK  21 active torsions:
REMARK  status: ('A' for Active; 'I' for Inactive)
REMARK    1  A    between atoms: N_10  and  C_11
REMARK    2  A    between atoms: C_14  and  C_16
REMARK    3  A    between atoms: C_16  and  O_17
REMARK    4  A    between atoms: O_17  and  P_18
REMARK    5  A    between atoms: P_18  and  O_19
REMARK    6  A    between atoms: P_18  and  O_21
REMARK    7  A    between atoms: O_21  and  P_22
REMARK    8  A    between atoms: P_22  and  O_23
REMARK    9  A    between atoms: P_22  and  O_25
REMARK   10  A    between atoms: O_25  and  C_26
REMARK   11  A    between atoms: C_29  and  N_40
REMARK   12  A    between atoms: C_32  and  C_34
REMARK   13  A    between atoms: C_34  and  O_35
REMARK   14  A    between atoms: O_35  and  P_36
REMARK   15  A    between atoms: P_36  and  O_37
REMARK   16  A    between atoms: P_36  and  O_38
REMARK   17  A    between atoms: C_48  and  O_50
REMARK   18  A    between atoms: O_50  and  P_51
REMARK   19  A    between atoms: P_51  and  O_52
REMARK   20  A    between atoms: P_51  and  O_53
REMARK   21  A    between atoms: C_55  and  O_57
REMARK                            x       y       z     vdW  Elec       q    Type
REMARK                         _______ _______ _______ _____ _____    ______ ____
ROOT
ATOM      1  P   UNL     1       9.611  -0.779  23.374  0.00  0.00    +0.483 P 
ATOM      2  O   UNL     1      10.900  -0.029  23.739  0.00  0.00    -0.227 OA
ENDROOT
BRANCH   1   3
ATOM      3  O   UNL     1      10.541  -1.817  22.348  0.00  0.00    -0.302 OA
ATOM      4  H   UNL     1      10.041  -1.968  21.524  0.00  0.00    +0.222 HD
ENDBRANCH   1   3
BRANCH   1   5
ATOM      5  O   UNL     1       8.681   0.259  24.398  0.00  0.00    -0.186 OA
BRANCH   5   6
ATOM      6  P   UNL     1       7.459   0.503  23.193  0.00  0.00    +0.484 P 
ATOM      7  O   UNL     1       6.660  -0.750  22.972  0.00  0.00    -0.227 OA
BRANCH   6   8
ATOM      8  O   UNL     1       8.363   0.842  21.919  0.00  0.00    -0.302 OA
ATOM      9  H   UNL     1       9.333   0.786  22.091  0.00  0.00    +0.222 HD
ENDBRANCH   6   8
BRANCH   6  10
ATOM     10  O   UNL     1       6.565   1.852  23.241  0.00  0.00    -0.280 OA
BRANCH  10  11
ATOM     11  C   UNL     1       6.990   3.082  23.952  0.00  0.00    +0.165 C 
ATOM     12  C   UNL     1       7.675   2.996  25.341  0.00  0.00    +0.176 C 
ATOM     13  O   UNL     1       8.509   4.159  25.539  0.00  0.00    -0.348 OA
ATOM     14  C   UNL     1       8.694   4.850  24.295  0.00  0.00    +0.226 C 
ATOM     15  C   UNL     1       7.832   4.144  23.220  0.00  0.00    +0.089 C 
BRANCH  14  16
ATOM     16  N   UNL     1      10.136   4.917  24.031  0.00  0.00    -0.274 N 
ATOM     17  C   UNL     1      10.746   3.894  23.311  0.00  0.00    +0.331 A 
ATOM     18  O   UNL     1      10.181   2.853  22.967  0.00  0.00    -0.246 OA
ATOM     19  N   UNL     1      12.070   4.099  22.987  0.00  0.00    -0.275 N 
ATOM     20  H   UNL     1      12.521   3.362  22.447  0.00  0.00    +0.173 HD
ATOM     21  C   UNL     1      12.822   5.187  23.302  0.00  0.00    +0.254 A 
ATOM     22  O   UNL     1      13.994   5.309  22.973  0.00  0.00    -0.268 OA
ATOM     23  C   UNL     1      12.126   6.221  24.074  0.00  0.00    +0.088 A 
ATOM     24  C   UNL     1      10.854   6.051  24.394  0.00  0.00    +0.098 A 
ENDBRANCH  14  16
BRANCH  12  25
ATOM     25  C   UNL     1       6.656   2.990  26.489  0.00  0.00    +0.206 C 
BRANCH  25  26
ATOM     26  O   UNL     1       6.871   1.919  27.396  0.00  0.00    -0.284 OA
BRANCH  26  27
ATOM     27  P   UNL     1       6.035   0.561  27.243  0.00  0.00    +0.472 P 
ATOM     28  O   UNL     1       5.232   0.129  28.423  0.00  0.00    -0.228 OA
BRANCH  27  29
ATOM     29  O   UNL     1       5.158   0.855  25.941  0.00  0.00    -0.303 OA
ATOM     30  H   UNL     1       5.287   0.173  25.259  0.00  0.00    +0.222 HD
ENDBRANCH  27  29
BRANCH  27  31
ATOM     31  O   UNL     1       7.107  -0.492  26.722  0.00  0.00    -0.303 OA
ATOM     32  H   UNL     1       7.831  -0.026  26.258  0.00  0.00    +0.222 HD
ENDBRANCH  27  31
ENDBRANCH  26  27
ENDBRANCH  25  26
ENDBRANCH  12  25
ENDBRANCH  10  11
ENDBRANCH   6  10
ENDBRANCH   5   6
ENDBRANCH   1   5
BRANCH   1  33
ATOM     33  O   UNL     1       9.502  -1.981  24.473  0.00  0.00    -0.284 OA
BRANCH  33  34
ATOM     34  C   UNL     1       9.103  -3.162  23.846  0.00  0.00    +0.206 C 
BRANCH  34  38
ATOM     35  C   UNL     1       6.532  -4.122  26.221  0.00  0.00    +0.253 C 
ATOM     36  C   UNL     1       7.202  -5.452  25.810  0.00  0.00    +0.196 C 
ATOM     37  C   UNL     1       7.995  -5.129  24.550  0.00  0.00    +0.194 C 
ATOM     38  C   UNL     1       7.771  -3.656  24.337  0.00  0.00    +0.179 C 
ATOM     39  O   UNL     1       7.397  -3.123  25.616  0.00  0.00    -0.346 OA
BRANCH  35  47
ATOM     40  N   UNL     1       0.646  -4.334  24.796  0.00  0.00    -0.341 N 
ATOM     41  H   UNL     1       0.718  -3.394  24.422  0.00  0.00    +0.144 HD
ATOM     42  H   UNL     1       0.050  -4.990  24.307  0.00  0.00    +0.144 HD
ATOM     43  C   UNL     1       1.880  -4.896  25.102  0.00  0.00    +0.147 A 
ATOM     44  C   UNL     1       3.040  -4.141  25.330  0.00  0.00    +0.147 A 
ATOM     45  N   UNL     1       3.297  -2.787  25.308  0.00  0.00    -0.231 NA
ATOM     46  C   UNL     1       4.573  -2.675  25.613  0.00  0.00    +0.203 A 
ATOM     47  N   UNL     1       5.170  -3.904  25.802  0.00  0.00    -0.286 N 
ATOM     48  C   UNL     1       4.192  -4.854  25.641  0.00  0.00    +0.167 A 
ATOM     49  N   UNL     1       4.306  -6.183  25.756  0.00  0.00    -0.216 NA
ATOM     50  C   UNL     1       3.142  -6.800  25.479  0.00  0.00    +0.225 A 
ATOM     51  N   UNL     1       1.960  -6.245  25.164  0.00  0.00    -0.219 NA
ENDBRANCH  35  47
BRANCH  36  52
ATOM     52  O   UNL     1       8.171  -5.843  26.815  0.00  0.00    -0.385 OA
ATOM     53  H   UNL     1       7.693  -6.199  27.592  0.00  0.00    +0.210 HD
ENDBRANCH  36  52
BRANCH  37  54
ATOM     54  O   UNL     1       7.742  -5.810  23.328  0.00  0.00    -0.278 OA
BRANCH  54  55
ATOM     55  P   UNL     1       6.323  -5.146  22.594  0.00  0.00    +0.473 P 
ATOM     56  O   UNL     1       5.054  -4.552  21.936  0.00  0.00    -0.228 OA
BRANCH  55  57
ATOM     57  O   UNL     1       5.649  -6.599  22.919  0.00  0.00    -0.303 OA
ATOM     58  H   UNL     1       4.716  -6.527  23.171  0.00  0.00    +0.222 HD
ENDBRANCH  55  57
BRANCH  55  59
ATOM     59  O   UNL     1       7.028  -5.580  21.183  0.00  0.00    -0.303 OA
ATOM     60  H   UNL     1       6.365  -5.897  20.547  0.00  0.00    +0.222 HD
ENDBRANCH  55  59
ENDBRANCH  54  55
ENDBRANCH  37  54
ENDBRANCH  34  38
ENDBRANCH  33  34
ENDBRANCH   1  33
TORSDOF 21
ENDMDL
