MODEL 1
REMARK VINA RESULT:      -6.4      0.000      0.000
REMARK  Name = 
REMARK  1 active torsions:
REMARK  status: ('A' for Active; 'I' for Inactive)
REMARK    1  A    between atoms: N_1  and  C_2
REMARK                            x       y       z     vdW  Elec       q    Type
REMARK                         _______ _______ _______ _____ _____    ______ ____
ROOT
ATOM      1  C   UNL     1       4.185  -6.617  24.202  0.00  0.00    +0.032 A 
ATOM      2  C   UNL     1       5.329  -5.996  23.622  0.00  0.00    +0.004 A 
ATOM      3  C   UNL     1       6.373  -5.544  24.472  0.00  0.00    +0.008 A 
ATOM      4  C   UNL     1       7.503  -4.916  23.912  0.00  0.00    +0.048 A 
ATOM      5  C   UNL     1       7.621  -4.725  22.532  0.00  0.00    +0.014 A 
ATOM      6  C   UNL     1       6.611  -5.170  21.692  0.00  0.00    +0.001 A 
ATOM      7  C   UNL     1       8.599  -4.456  24.796  0.00  0.00    +0.259 A 
ATOM      8  O   UNL     1       9.599  -3.906  24.352  0.00  0.00    -0.267 OA
ATOM      9  N   UNL     1       8.433  -4.681  26.140  0.00  0.00    -0.289 N 
ATOM     10  H   UNL     1       9.181  -4.372  26.744  0.00  0.00    +0.172 HD
ATOM     11  C   UNL     1       7.361  -5.284  26.750  0.00  0.00    +0.259 A 
ATOM     12  O   UNL     1       7.310  -5.437  27.964  0.00  0.00    -0.267 OA
ATOM     13  C   UNL     1       6.270  -5.741  25.858  0.00  0.00    +0.048 A 
ATOM     14  C   UNL     1       5.165  -6.386  26.415  0.00  0.00    +0.016 A 
ATOM     15  C   UNL     1       5.486  -5.800  22.229  0.00  0.00    +0.010 A 
ATOM     16  C   UNL     1       4.146  -6.841  25.586  0.00  0.00    +0.024 A 
ENDROOT
BRANCH   1  17
ATOM     17  N   UNL     1       3.182  -7.221  23.417  0.00  0.00    -0.357 N 
ATOM     18  H   UNL     1       3.122  -8.228  23.512  0.00  0.00    +0.142 HD
ATOM     19  H   UNL     1       3.201  -6.942  22.440  0.00  0.00    +0.142 HD
ENDBRANCH   1  17
TORSDOF 1
ENDMDL
MODEL 2
REMARK VINA RESULT:      -6.3      2.545      4.187
REMARK  Name = 
REMARK  1 active torsions:
REMARK  status: ('A' for Active; 'I' for Inactive)
REMARK    1  A    between atoms: N_1  and  C_2
REMARK                            x       y       z     vdW  Elec       q    Type
REMARK                         _______ _______ _______ _____ _____    ______ ____
ROOT
ATOM      1  C   UNL     1       7.600  -5.241  26.589  0.00  0.00    +0.032 A 
ATOM      2  C   UNL     1       6.670  -5.249  25.510  0.00  0.00    +0.004 A 
ATOM      3  C   UNL     1       6.938  -4.457  24.363  0.00  0.00    +0.008 A 
ATOM      4  C   UNL     1       6.019  -4.445  23.295  0.00  0.00    +0.048 A 
ATOM      5  C   UNL     1       4.842  -5.198  23.339  0.00  0.00    +0.014 A 
ATOM      6  C   UNL     1       4.573  -5.983  24.451  0.00  0.00    +0.001 A 
ATOM      7  C   UNL     1       6.303  -3.629  22.092  0.00  0.00    +0.259 A 
ATOM      8  O   UNL     1       5.533  -3.589  21.141  0.00  0.00    -0.267 OA
ATOM      9  N   UNL     1       7.479  -2.920  22.101  0.00  0.00    -0.289 N 
ATOM     10  H   UNL     1       7.677  -2.366  21.280  0.00  0.00    +0.172 HD
ATOM     11  C   UNL     1       8.415  -2.886  23.105  0.00  0.00    +0.259 A 
ATOM     12  O   UNL     1       9.436  -2.216  23.013  0.00  0.00    -0.267 OA
ATOM     13  C   UNL     1       8.121  -3.705  24.304  0.00  0.00    +0.048 A 
ATOM     14  C   UNL     1       9.048  -3.734  25.347  0.00  0.00    +0.016 A 
ATOM     15  C   UNL     1       5.477  -6.011  25.516  0.00  0.00    +0.010 A 
ATOM     16  C   UNL     1       8.796  -4.517  26.467  0.00  0.00    +0.024 A 
ENDROOT
BRANCH   1  17
ATOM     17  N   UNL     1       7.477  -6.112  27.691  0.00  0.00    -0.357 N 
ATOM     18  H   UNL     1       6.530  -6.411  27.888  0.00  0.00    +0.142 HD
ATOM     19  H   UNL     1       7.944  -5.781  28.530  0.00  0.00    +0.142 HD
ENDBRANCH   1  17
TORSDOF 1
ENDMDL
MODEL 3
REMARK VINA RESULT:      -6.1      2.282      3.636
REMARK  Name = 
REMARK  1 active torsions:
REMARK  status: ('A' for Active; 'I' for Inactive)
REMARK    1  A    between atoms: N_1  and  C_2
REMARK                            x       y       z     vdW  Elec       q    Type
REMARK                         _______ _______ _______ _____ _____    ______ ____
ROOT
ATOM      1  C   UNL     1       5.382  -6.393  25.575  0.00  0.00    +0.032 A 
ATOM      2  C   UNL     1       6.519  -5.534  25.591  0.00  0.00    +0.004 A 
ATOM      3  C   UNL     1       6.822  -4.768  24.434  0.00  0.00    +0.008 A 
ATOM      4  C   UNL     1       7.951  -3.926  24.433  0.00  0.00    +0.048 A 
ATOM      5  C   UNL     1       8.787  -3.826  25.550  0.00  0.00    +0.014 A 
ATOM      6  C   UNL     1       8.497  -4.564  26.688  0.00  0.00    +0.001 A 
ATOM      7  C   UNL     1       8.261  -3.117  23.232  0.00  0.00    +0.259 A 
ATOM      8  O   UNL     1       9.232  -2.372  23.187  0.00  0.00    -0.267 OA
ATOM      9  N   UNL     1       7.399  -3.247  22.171  0.00  0.00    -0.289 N 
ATOM     10  H   UNL     1       7.606  -2.692  21.352  0.00  0.00    +0.172 HD
ATOM     11  C   UNL     1       6.285  -4.047  22.105  0.00  0.00    +0.259 A 
ATOM     12  O   UNL     1       5.579  -4.090  21.106  0.00  0.00    -0.267 OA
ATOM     13  C   UNL     1       5.984  -4.852  23.312  0.00  0.00    +0.048 A 
ATOM     14  C   UNL     1       4.849  -5.664  23.317  0.00  0.00    +0.016 A 
ATOM     15  C   UNL     1       7.377  -5.399  26.709  0.00  0.00    +0.010 A 
ATOM     16  C   UNL     1       4.542  -6.407  24.451  0.00  0.00    +0.024 A 
ENDROOT
BRANCH   1  17
ATOM     17  N   UNL     1       4.936  -7.066  26.729  0.00  0.00    -0.357 N 
ATOM     18  H   UNL     1       5.274  -6.677  27.601  0.00  0.00    +0.142 HD
ATOM     19  H   UNL     1       5.070  -8.073  26.696  0.00  0.00    +0.142 HD
ENDBRANCH   1  17
TORSDOF 1
ENDMDL
MODEL 4
REMARK VINA RESULT:      -6.0      1.977      3.874
REMARK  Name = 
REMARK  1 active torsions:
REMARK  status: ('A' for Active; 'I' for Inactive)
REMARK    1  A    between atoms: N_1  and  C_2
REMARK                            x       y       z     vdW  Elec       q    Type
REMARK                         _______ _______ _______ _____ _____    ______ ____
ROOT
ATOM      1  C   UNL     1       8.656  -3.212  23.863  0.00  0.00    +0.032 A 
ATOM      2  C   UNL     1       7.612  -4.100  23.475  0.00  0.00    +0.004 A 
ATOM      3  C   UNL     1       6.960  -4.875  24.470  0.00  0.00    +0.008 A 
ATOM      4  C   UNL     1       5.936  -5.767  24.097  0.00  0.00    +0.048 A 
ATOM      5  C   UNL     1       5.545  -5.910  22.763  0.00  0.00    +0.014 A 
ATOM      6  C   UNL     1       6.170  -5.153  21.782  0.00  0.00    +0.001 A 
ATOM      7  C   UNL     1       5.245  -6.566  25.136  0.00  0.00    +0.259 A 
ATOM      8  O   UNL     1       4.350  -7.353  24.857  0.00  0.00    -0.267 OA
ATOM      9  N   UNL     1       5.664  -6.375  26.430  0.00  0.00    -0.289 N 
ATOM     10  H   UNL     1       5.191  -6.915  27.140  0.00  0.00    +0.172 HD
ATOM     11  C   UNL     1       6.652  -5.525  26.861  0.00  0.00    +0.259 A 
ATOM     12  O   UNL     1       6.951  -5.429  28.044  0.00  0.00    -0.267 OA
ATOM     13  C   UNL     1       7.337  -4.731  25.814  0.00  0.00    +0.048 A 
ATOM     14  C   UNL     1       8.332  -3.829  26.193  0.00  0.00    +0.016 A 
ATOM     15  C   UNL     1       7.183  -4.258  22.136  0.00  0.00    +0.010 A 
ATOM     16  C   UNL     1       8.966  -3.060  25.223  0.00  0.00    +0.024 A 
ENDROOT
BRANCH   1  17
ATOM     17  N   UNL     1       9.245  -2.306  22.957  0.00  0.00    -0.357 N 
ATOM     18  H   UNL     1      10.100  -1.876  23.287  0.00  0.00    +0.142 HD
ATOM     19  H   UNL     1       8.599  -1.613  22.591  0.00  0.00    +0.142 HD
ENDBRANCH   1  17
TORSDOF 1
ENDMDL
MODEL 5
REMARK VINA RESULT:      -5.9      2.372      4.938
REMARK  Name = 
REMARK  1 active torsions:
REMARK  status: ('A' for Active; 'I' for Inactive)
REMARK    1  A    between atoms: N_1  and  C_2
REMARK                            x       y       z     vdW  Elec       q    Type
REMARK                         _______ _______ _______ _____ _____    ______ ____
ROOT
ATOM      1  C   UNL     1       8.504  -2.717  23.247  0.00  0.00    +0.032 A 
ATOM      2  C   UNL     1       8.309  -3.576  24.367  0.00  0.00    +0.004 A 
ATOM      3  C   UNL     1       7.117  -4.343  24.449  0.00  0.00    +0.008 A 
ATOM      4  C   UNL     1       6.905  -5.185  25.558  0.00  0.00    +0.048 A 
ATOM      5  C   UNL     1       7.845  -5.282  26.588  0.00  0.00    +0.014 A 
ATOM      6  C   UNL     1       9.017  -4.542  26.516  0.00  0.00    +0.001 A 
ATOM      7  C   UNL     1       5.669  -5.996  25.637  0.00  0.00    +0.259 A 
ATOM      8  O   UNL     1       5.444  -6.741  26.583  0.00  0.00    -0.267 OA
ATOM      9  N   UNL     1       4.788  -5.868  24.592  0.00  0.00    -0.289 N 
ATOM     10  H   UNL     1       3.946  -6.425  24.642  0.00  0.00    +0.172 HD
ATOM     11  C   UNL     1       4.932  -5.069  23.485  0.00  0.00    +0.259 A 
ATOM     12  O   UNL     1       4.082  -5.028  22.604  0.00  0.00    -0.267 OA
ATOM     13  C   UNL     1       6.171  -4.262  23.415  0.00  0.00    +0.048 A 
ATOM     14  C   UNL     1       6.388  -3.450  22.300  0.00  0.00    +0.016 A 
ATOM     15  C   UNL     1       9.246  -3.708  25.420  0.00  0.00    +0.010 A 
ATOM     16  C   UNL     1       7.559  -2.706  22.211  0.00  0.00    +0.024 A 
ENDROOT
BRANCH   1  17
ATOM     17  N   UNL     1       9.721  -2.042  23.024  0.00  0.00    -0.357 N 
ATOM     18  H   UNL     1       9.625  -1.054  22.823  0.00  0.00    +0.142 HD
ATOM     19  H   UNL     1      10.328  -2.500  22.350  0.00  0.00    +0.142 HD
ENDBRANCH   1  17
TORSDOF 1
ENDMDL
MODEL 6
REMARK VINA RESULT:      -5.9      2.294      5.163
REMARK  Name = 
REMARK  1 active torsions:
REMARK  status: ('A' for Active; 'I' for Inactive)
REMARK    1  A    between atoms: N_1  and  C_2
REMARK                            x       y       z     vdW  Elec       q    Type
REMARK                         _______ _______ _______ _____ _____    ______ ____
ROOT
ATOM      1  C   UNL     1       8.131  -2.914  24.513  0.00  0.00    +0.032 A 
ATOM      2  C   UNL     1       7.342  -3.936  25.117  0.00  0.00    +0.004 A 
ATOM      3  C   UNL     1       6.531  -4.760  24.292  0.00  0.00    +0.008 A 
ATOM      4  C   UNL     1       5.736  -5.763  24.878  0.00  0.00    +0.048 A 
ATOM      5  C   UNL     1       5.724  -5.969  26.261  0.00  0.00    +0.014 A 
ATOM      6  C   UNL     1       6.518  -5.175  27.077  0.00  0.00    +0.001 A 
ATOM      7  C   UNL     1       4.900  -6.632  24.018  0.00  0.00    +0.259 A 
ATOM      8  O   UNL     1       4.193  -7.517  24.485  0.00  0.00    -0.267 OA
ATOM      9  N   UNL     1       4.960  -6.392  22.668  0.00  0.00    -0.289 N 
ATOM     10  H   UNL     1       4.395  -6.986  22.078  0.00  0.00    +0.172 HD
ATOM     11  C   UNL     1       5.711  -5.433  22.032  0.00  0.00    +0.259 A 
ATOM     12  O   UNL     1       5.693  -5.301  20.815  0.00  0.00    -0.267 OA
ATOM     13  C   UNL     1       6.543  -4.570  22.901  0.00  0.00    +0.048 A 
ATOM     14  C   UNL     1       7.349  -3.594  22.313  0.00  0.00    +0.016 A 
ATOM     15  C   UNL     1       7.318  -4.179  26.511  0.00  0.00    +0.010 A 
ATOM     16  C   UNL     1       8.153  -2.793  23.116  0.00  0.00    +0.024 A 
ENDROOT
BRANCH   1  17
ATOM     17  N   UNL     1       9.068  -2.160  25.247  0.00  0.00    -0.357 N 
ATOM     18  H   UNL     1      10.025  -2.250  24.927  0.00  0.00    +0.142 HD
ATOM     19  H   UNL     1       8.999  -2.285  26.252  0.00  0.00    +0.142 HD
ENDBRANCH   1  17
TORSDOF 1
ENDMDL
MODEL 7
REMARK VINA RESULT:      -5.8      5.283      7.126
REMARK  Name = 
REMARK  1 active torsions:
REMARK  status: ('A' for Active; 'I' for Inactive)
REMARK    1  A    between atoms: N_1  and  C_2
REMARK                            x       y       z     vdW  Elec       q    Type
REMARK                         _______ _______ _______ _____ _____    ______ ____
ROOT
ATOM      1  C   UNL     1       9.610   1.821  22.927  0.00  0.00    +0.032 A 
ATOM      2  C   UNL     1       9.631   0.439  23.272  0.00  0.00    +0.004 A 
ATOM      3  C   UNL     1       9.016   0.021  24.482  0.00  0.00    +0.008 A 
ATOM      4  C   UNL     1       9.042  -1.341  24.842  0.00  0.00    +0.048 A 
ATOM      5  C   UNL     1       9.664  -2.296  24.032  0.00  0.00    +0.014 A 
ATOM      6  C   UNL     1      10.261  -1.901  22.844  0.00  0.00    +0.001 A 
ATOM      7  C   UNL     1       8.389  -1.780  26.096  0.00  0.00    +0.259 A 
ATOM      8  O   UNL     1       8.388  -2.953  26.448  0.00  0.00    -0.267 OA
ATOM      9  N   UNL     1       7.786  -0.800  26.845  0.00  0.00    -0.289 N 
ATOM     10  H   UNL     1       7.336  -1.098  27.699  0.00  0.00    +0.172 HD
ATOM     11  C   UNL     1       7.724   0.541  26.554  0.00  0.00    +0.259 A 
ATOM     12  O   UNL     1       7.157   1.336  27.292  0.00  0.00    -0.267 OA
ATOM     13  C   UNL     1       8.379   0.970  25.297  0.00  0.00    +0.048 A 
ATOM     14  C   UNL     1       8.327   2.316  24.932  0.00  0.00    +0.016 A 
ATOM     15  C   UNL     1      10.239  -0.555  22.469  0.00  0.00    +0.010 A 
ATOM     16  C   UNL     1       8.918   2.728  23.743  0.00  0.00    +0.024 A 
ENDROOT
BRANCH   1  17
ATOM     17  N   UNL     1      10.066   2.288  21.677  0.00  0.00    -0.357 N 
ATOM     18  H   UNL     1      10.380   1.562  21.045  0.00  0.00    +0.142 HD
ATOM     19  H   UNL     1      10.745   3.041  21.743  0.00  0.00    +0.142 HD
ENDBRANCH   1  17
TORSDOF 1
ENDMDL
MODEL 8
REMARK VINA RESULT:      -5.8      2.316      4.372
REMARK  Name = 
REMARK  1 active torsions:
REMARK  status: ('A' for Active; 'I' for Inactive)
REMARK    1  A    between atoms: N_1  and  C_2
REMARK                            x       y       z     vdW  Elec       q    Type
REMARK                         _______ _______ _______ _____ _____    ______ ____
ROOT
ATOM      1  C   UNL     1       6.636  -4.292  23.064  0.00  0.00    +0.032 A 
ATOM      2  C   UNL     1       6.812  -4.590  24.446  0.00  0.00    +0.004 A 
ATOM      3  C   UNL     1       5.948  -5.534  25.064  0.00  0.00    +0.008 A 
ATOM      4  C   UNL     1       6.102  -5.826  26.433  0.00  0.00    +0.048 A 
ATOM      5  C   UNL     1       7.089  -5.204  27.204  0.00  0.00    +0.014 A 
ATOM      6  C   UNL     1       7.943  -4.286  26.610  0.00  0.00    +0.001 A 
ATOM      7  C   UNL     1       5.211  -6.820  27.075  0.00  0.00    +0.259 A 
ATOM      8  O   UNL     1       5.309  -7.104  28.262  0.00  0.00    -0.267 OA
ATOM      9  N   UNL     1       4.269  -7.405  26.266  0.00  0.00    -0.289 N 
ATOM     10  H   UNL     1       3.663  -8.087  26.701  0.00  0.00    +0.172 HD
ATOM     11  C   UNL     1       4.065  -7.167  24.930  0.00  0.00    +0.259 A 
ATOM     12  O   UNL     1       3.192  -7.746  24.296  0.00  0.00    -0.267 OA
ATOM     13  C   UNL     1       4.961  -6.171  24.297  0.00  0.00    +0.048 A 
ATOM     14  C   UNL     1       4.821  -5.906  22.934  0.00  0.00    +0.016 A 
ATOM     15  C   UNL     1       7.809  -3.990  25.252  0.00  0.00    +0.010 A 
ATOM     16  C   UNL     1       5.672  -4.991  22.323  0.00  0.00    +0.024 A 
ENDROOT
BRANCH   1  17
ATOM     17  N   UNL     1       7.544  -3.483  22.351  0.00  0.00    -0.357 N 
ATOM     18  H   UNL     1       8.429  -3.330  22.819  0.00  0.00    +0.142 HD
ATOM     19  H   UNL     1       7.143  -2.610  22.020  0.00  0.00    +0.142 HD
ENDBRANCH   1  17
TORSDOF 1
ENDMDL
MODEL 9
REMARK VINA RESULT:      -5.7      1.805      3.573
REMARK  Name = 
REMARK  1 active torsions:
REMARK  status: ('A' for Active; 'I' for Inactive)
REMARK    1  A    between atoms: N_1  and  C_2
REMARK                            x       y       z     vdW  Elec       q    Type
REMARK                         _______ _______ _______ _____ _____    ______ ____
ROOT
ATOM      1  C   UNL     1       6.561  -4.227  22.596  0.00  0.00    +0.032 A 
ATOM      2  C   UNL     1       5.766  -5.031  23.463  0.00  0.00    +0.004 A 
ATOM      3  C   UNL     1       6.235  -5.305  24.775  0.00  0.00    +0.008 A 
ATOM      4  C   UNL     1       5.465  -6.110  25.636  0.00  0.00    +0.048 A 
ATOM      5  C   UNL     1       4.242  -6.652  25.227  0.00  0.00    +0.014 A 
ATOM      6  C   UNL     1       3.770  -6.385  23.950  0.00  0.00    +0.001 A 
ATOM      7  C   UNL     1       5.947  -6.385  27.009  0.00  0.00    +0.259 A 
ATOM      8  O   UNL     1       5.309  -7.080  27.790  0.00  0.00    -0.267 OA
ATOM      9  N   UNL     1       7.147  -5.818  27.358  0.00  0.00    -0.289 N 
ATOM     10  H   UNL     1       7.476  -6.000  28.296  0.00  0.00    +0.172 HD
ATOM     11  C   UNL     1       7.947  -5.027  26.571  0.00  0.00    +0.259 A 
ATOM     12  O   UNL     1       9.005  -4.568  26.980  0.00  0.00    -0.267 OA
ATOM     13  C   UNL     1       7.456  -4.758  25.199  0.00  0.00    +0.048 A 
ATOM     14  C   UNL     1       8.210  -3.937  24.360  0.00  0.00    +0.016 A 
ATOM     15  C   UNL     1       4.518  -5.583  23.085  0.00  0.00    +0.010 A 
ATOM     16  C   UNL     1       7.749  -3.657  23.078  0.00  0.00    +0.024 A 
ENDROOT
BRANCH   1  17
ATOM     17  N   UNL     1       6.094  -3.792  21.340  0.00  0.00    -0.357 N 
ATOM     18  H   UNL     1       5.319  -3.143  21.380  0.00  0.00    +0.142 HD
ATOM     19  H   UNL     1       5.912  -4.548  20.685  0.00  0.00    +0.142 HD
ENDBRANCH   1  17
TORSDOF 1
ENDMDL
