MODEL 1
REMARK VINA RESULT:      -8.3      0.000      0.000
REMARK  Name = 
REMARK  11 active torsions:
REMARK  status: ('A' for Active; 'I' for Inactive)
REMARK    1  A    between atoms: C_1  and  C_2
REMARK    2  A    between atoms: C_4  and  C_7
REMARK    3  A    between atoms: C_7  and  C_8
REMARK    4  A    between atoms: C_7  and  C_15
REMARK    5  A    between atoms: C_7  and  C_27
REMARK    6  A    between atoms: C_8  and  C_9
REMARK    7  A    between atoms: C_15  and  C_16
REMARK    8  A    between atoms: C_19  and  N_20
REMARK    9  A    between atoms: N_20  and  S_21
REMARK   10  A    between atoms: S_21  and  O_22
REMARK   11  A    between atoms: C_30  and  C_31
REMARK                            x       y       z     vdW  Elec       q    Type
REMARK                         _______ _______ _______ _____ _____    ______ ____
ROOT
ATOM      1  C   UNL     1       8.471  -2.388  23.648  0.00  0.00    +0.104 C 
ENDROOT
BRANCH   1   6
ATOM      2  C   UNL     1       7.503  -5.583  27.337  0.00  0.00    +0.112 C 
ATOM      3  C   UNL     1       8.033  -4.904  26.142  0.00  0.00    +0.224 A 
ATOM      4  O   UNL     1       9.253  -5.295  25.682  0.00  0.00    -0.338 OA
ATOM      5  N   UNL     1       9.577  -4.428  24.634  0.00  0.00    -0.060 NA
ATOM      6  C   UNL     1       8.533  -3.579  24.592  0.00  0.00    +0.186 A 
ATOM      7  N   UNL     1       7.518  -3.913  25.458  0.00  0.00    -0.195 NA
ENDBRANCH   1   6
BRANCH   1   8
ATOM      8  C   UNL     1       7.684  -1.238  24.272  0.00  0.00    +0.186 A 
ATOM      9  N   UNL     1       7.899  -0.851  25.583  0.00  0.00    -0.195 NA
ATOM     10  C   UNL     1       7.172   0.238  25.680  0.00  0.00    +0.224 A 
ATOM     11  C   UNL     1       7.029   1.164  26.816  0.00  0.00    +0.112 C 
ATOM     12  O   UNL     1       6.524   0.560  24.526  0.00  0.00    -0.338 OA
ATOM     13  N   UNL     1       6.866  -0.417  23.592  0.00  0.00    -0.060 NA
ENDBRANCH   1   8
BRANCH   1  14
ATOM     14  C   UNL     1       7.790  -2.744  22.262  0.00  0.00    +0.058 C 
BRANCH  14  15
ATOM     15  C   UNL     1       6.699  -3.813  22.284  0.00  0.00    -0.046 A 
ATOM     16  C   UNL     1       7.001  -5.153  22.005  0.00  0.00    +0.005 A 
ATOM     17  C   UNL     1       6.085  -6.171  22.284  0.00  0.00    +0.025 A 
ATOM     18  C   UNL     1       4.837  -5.841  22.809  0.00  0.00    +0.050 A 
ATOM     19  C   UNL     1       4.467  -4.508  22.942  0.00  0.00    +0.025 A 
ATOM     20  C   UNL     1       5.393  -3.496  22.675  0.00  0.00    +0.005 A 
BRANCH  18  21
ATOM     21  N   UNL     1       3.921  -6.846  23.229  0.00  0.00    -0.197 N 
ATOM     22  H   UNL     1       3.034  -6.844  22.726  0.00  0.00    +0.176 HD
BRANCH  21  23
ATOM     23  S   UNL     1       3.628  -6.996  24.873  0.00  0.00    +0.164 S 
ATOM     24  O   UNL     1       2.506  -6.140  25.173  0.00  0.00    -0.127 OA
ATOM     25  O   UNL     1       4.880  -6.879  25.575  0.00  0.00    -0.127 OA
BRANCH  23  26
ATOM     26  O   UNL     1       3.154  -8.526  25.029  0.00  0.00    -0.238 OA
ATOM     27  H   UNL     1       3.933  -9.042  25.320  0.00  0.00    +0.246 HD
ENDBRANCH  23  26
ENDBRANCH  21  23
ENDBRANCH  18  21
ENDBRANCH  14  15
ENDBRANCH   1  14
BRANCH   1  28
ATOM     28  C   UNL     1       9.935  -1.862  23.391  0.00  0.00    +0.058 C 
BRANCH  28  29
ATOM     29  C   UNL     1      10.113  -0.372  23.181  0.00  0.00    -0.046 A 
ATOM     30  C   UNL     1       9.795   0.220  21.951  0.00  0.00    +0.003 A 
ATOM     31  C   UNL     1       9.935   1.597  21.769  0.00  0.00    +0.000 A 
ATOM     32  C   UNL     1      10.400   2.395  22.813  0.00  0.00    +0.000 A 
ATOM     33  C   UNL     1      10.744   1.814  24.031  0.00  0.00    +0.000 A 
ATOM     34  C   UNL     1      10.609   0.437  24.213  0.00  0.00    +0.003 A 
ENDBRANCH  28  29
ENDBRANCH   1  28
TORSDOF 9
ENDMDL
MODEL 2
REMARK VINA RESULT:      -8.0      3.073      7.686
REMARK  Name = 
REMARK  11 active torsions:
REMARK  status: ('A' for Active; 'I' for Inactive)
REMARK    1  A    between atoms: C_1  and  C_2
REMARK    2  A    between atoms: C_4  and  C_7
REMARK    3  A    between atoms: C_7  and  C_8
REMARK    4  A    between atoms: C_7  and  C_15
REMARK    5  A    between atoms: C_7  and  C_27
REMARK    6  A    between atoms: C_8  and  C_9
REMARK    7  A    between atoms: C_15  and  C_16
REMARK    8  A    between atoms: C_19  and  N_20
REMARK    9  A    between atoms: N_20  and  S_21
REMARK   10  A    between atoms: S_21  and  O_22
REMARK   11  A    between atoms: C_30  and  C_31
REMARK                            x       y       z     vdW  Elec       q    Type
REMARK                         _______ _______ _______ _____ _____    ______ ____
ROOT
ATOM      1  C   UNL     1       8.481  -2.203  23.571  0.00  0.00    +0.104 C 
ENDROOT
BRANCH   1   6
ATOM      2  C   UNL     1       6.408   1.035  26.729  0.00  0.00    +0.112 C 
ATOM      3  C   UNL     1       6.865   0.299  25.537  0.00  0.00    +0.224 A 
ATOM      4  O   UNL     1       6.176   0.487  24.377  0.00  0.00    -0.338 OA
ATOM      5  N   UNL     1       6.722  -0.400  23.445  0.00  0.00    -0.060 NA
ATOM      6  C   UNL     1       7.663  -1.060  24.149  0.00  0.00    +0.186 A 
ATOM      7  N   UNL     1       7.833  -0.575  25.426  0.00  0.00    -0.195 NA
ENDBRANCH   1   6
BRANCH   1   8
ATOM      8  C   UNL     1       8.562  -3.368  24.555  0.00  0.00    +0.186 A 
ATOM      9  N   UNL     1       7.546  -3.614  25.460  0.00  0.00    -0.195 NA
ATOM     10  C   UNL     1       7.908  -4.758  25.990  0.00  0.00    +0.224 A 
ATOM     11  C   UNL     1       7.205  -5.590  26.982  0.00  0.00    +0.112 C 
ATOM     12  O   UNL     1       9.074  -5.245  25.481  0.00  0.00    -0.338 OA
ATOM     13  N   UNL     1       9.506  -4.325  24.527  0.00  0.00    -0.060 NA
ENDBRANCH   1   8
BRANCH   1  14
ATOM     14  C   UNL     1       9.963  -1.771  23.210  0.00  0.00    +0.058 C 
BRANCH  14  15
ATOM     15  C   UNL     1      10.231  -0.273  23.080  0.00  0.00    -0.046 A 
ATOM     16  C   UNL     1       9.826   0.433  21.938  0.00  0.00    +0.005 A 
ATOM     17  C   UNL     1       9.819   1.830  21.920  0.00  0.00    +0.025 A 
ATOM     18  C   UNL     1      10.261   2.530  23.041  0.00  0.00    +0.050 A 
ATOM     19  C   UNL     1      10.811   1.844  24.118  0.00  0.00    +0.025 A 
ATOM     20  C   UNL     1      10.803   0.447  24.135  0.00  0.00    +0.005 A 
BRANCH  18  21
ATOM     21  N   UNL     1      10.153   3.946  23.121  0.00  0.00    -0.197 N 
ATOM     22  H   UNL     1      10.897   4.396  23.652  0.00  0.00    +0.176 HD
BRANCH  21  23
ATOM     23  S   UNL     1       8.674   4.591  23.578  0.00  0.00    +0.164 S 
ATOM     24  O   UNL     1       8.950   5.871  24.184  0.00  0.00    -0.127 OA
ATOM     25  O   UNL     1       7.923   3.573  24.268  0.00  0.00    -0.127 OA
BRANCH  23  26
ATOM     26  O   UNL     1       7.927   4.843  22.176  0.00  0.00    -0.238 OA
ATOM     27  H   UNL     1       7.004   4.534  22.280  0.00  0.00    +0.246 HD
ENDBRANCH  23  26
ENDBRANCH  21  23
ENDBRANCH  18  21
ENDBRANCH  14  15
ENDBRANCH   1  14
BRANCH   1  28
ATOM     28  C   UNL     1       7.763  -2.742  22.273  0.00  0.00    +0.058 C 
BRANCH  28  29
ATOM     29  C   UNL     1       6.730  -3.835  22.452  0.00  0.00    -0.046 A 
ATOM     30  C   UNL     1       7.059  -5.176  22.213  0.00  0.00    +0.003 A 
ATOM     31  C   UNL     1       6.113  -6.185  22.404  0.00  0.00    +0.000 A 
ATOM     32  C   UNL     1       4.826  -5.861  22.829  0.00  0.00    +0.000 A 
ATOM     33  C   UNL     1       4.479  -4.530  23.044  0.00  0.00    +0.000 A 
ATOM     34  C   UNL     1       5.423  -3.520  22.849  0.00  0.00    +0.003 A 
ENDBRANCH  28  29
ENDBRANCH   1  28
TORSDOF 9
ENDMDL
MODEL 3
REMARK VINA RESULT:      -7.4      3.127      7.377
REMARK  Name = 
REMARK  11 active torsions:
REMARK  status: ('A' for Active; 'I' for Inactive)
REMARK    1  A    between atoms: C_1  and  C_2
REMARK    2  A    between atoms: C_4  and  C_7
REMARK    3  A    between atoms: C_7  and  C_8
REMARK    4  A    between atoms: C_7  and  C_15
REMARK    5  A    between atoms: C_7  and  C_27
REMARK    6  A    between atoms: C_8  and  C_9
REMARK    7  A    between atoms: C_15  and  C_16
REMARK    8  A    between atoms: C_19  and  N_20
REMARK    9  A    between atoms: N_20  and  S_21
REMARK   10  A    between atoms: S_21  and  O_22
REMARK   11  A    between atoms: C_30  and  C_31
REMARK                            x       y       z     vdW  Elec       q    Type
REMARK                         _______ _______ _______ _____ _____    ______ ____
ROOT
ATOM      1  C   UNL     1       7.130  -2.528  25.288  0.00  0.00    +0.104 C 
ENDROOT
BRANCH   1   6
ATOM      2  C   UNL     1       7.212   1.228  28.550  0.00  0.00    +0.112 C 
ATOM      3  C   UNL     1       7.080   0.386  27.348  0.00  0.00    +0.224 A 
ATOM      4  O   UNL     1       6.291   0.847  26.339  0.00  0.00    -0.338 OA
ATOM      5  N   UNL     1       6.234  -0.173  25.384  0.00  0.00    -0.060 NA
ATOM      6  C   UNL     1       6.968  -1.161  25.933  0.00  0.00    +0.186 A 
ATOM      7  N   UNL     1       7.581  -0.800  27.111  0.00  0.00    -0.195 NA
ENDBRANCH   1   6
BRANCH   1   8
ATOM      8  C   UNL     1       7.178  -3.628  26.347  0.00  0.00    +0.186 A 
ATOM      9  N   UNL     1       6.031  -4.048  26.995  0.00  0.00    -0.195 NA
ATOM     10  C   UNL     1       6.455  -5.084  27.681  0.00  0.00    +0.224 A 
ATOM     11  C   UNL     1       5.694  -6.013  28.532  0.00  0.00    +0.112 C 
ATOM     12  O   UNL     1       7.781  -5.341  27.506  0.00  0.00    -0.338 OA
ATOM     13  N   UNL     1       8.259  -4.378  26.619  0.00  0.00    -0.060 NA
ENDBRANCH   1   8
BRANCH   1  14
ATOM     14  C   UNL     1       8.450  -2.638  24.417  0.00  0.00    +0.058 C 
BRANCH  14  15
ATOM     15  C   UNL     1       8.990  -1.342  23.817  0.00  0.00    -0.046 A 
ATOM     16  C   UNL     1       8.415  -0.790  22.664  0.00  0.00    +0.005 A 
ATOM     17  C   UNL     1       8.713   0.515  22.264  0.00  0.00    +0.025 A 
ATOM     18  C   UNL     1       9.629   1.263  23.003  0.00  0.00    +0.050 A 
ATOM     19  C   UNL     1      10.322   0.675  24.054  0.00  0.00    +0.025 A 
ATOM     20  C   UNL     1      10.009  -0.626  24.457  0.00  0.00    +0.005 A 
BRANCH  18  21
ATOM     21  N   UNL     1       9.868   2.636  22.713  0.00  0.00    -0.197 N 
ATOM     22  H   UNL     1      10.817   2.949  22.914  0.00  0.00    +0.176 HD
BRANCH  21  23
ATOM     23  S   UNL     1       8.775   3.760  23.307  0.00  0.00    +0.164 S 
ATOM     24  O   UNL     1       8.563   3.437  24.697  0.00  0.00    -0.127 OA
ATOM     25  O   UNL     1       7.679   3.869  22.378  0.00  0.00    -0.127 OA
BRANCH  23  26
ATOM     26  O   UNL     1       9.586   5.148  23.226  0.00  0.00    -0.238 OA
ATOM     27  H   UNL     1      10.492   4.936  22.925  0.00  0.00    +0.246 HD
ENDBRANCH  23  26
ENDBRANCH  21  23
ENDBRANCH  18  21
ENDBRANCH  14  15
ENDBRANCH   1  14
BRANCH   1  28
ATOM     28  C   UNL     1       5.876  -2.817  24.376  0.00  0.00    +0.058 C 
BRANCH  28  29
ATOM     29  C   UNL     1       6.035  -3.853  23.282  0.00  0.00    -0.046 A 
ATOM     30  C   UNL     1       5.961  -3.483  21.932  0.00  0.00    +0.003 A 
ATOM     31  C   UNL     1       6.134  -4.435  20.926  0.00  0.00    +0.000 A 
ATOM     32  C   UNL     1       6.376  -5.766  21.259  0.00  0.00    +0.000 A 
ATOM     33  C   UNL     1       6.424  -6.150  22.597  0.00  0.00    +0.000 A 
ATOM     34  C   UNL     1       6.247  -5.201  23.604  0.00  0.00    +0.003 A 
ENDBRANCH  28  29
ENDBRANCH   1  28
TORSDOF 9
ENDMDL
MODEL 4
REMARK VINA RESULT:      -7.3      3.563      7.329
REMARK  Name = 
REMARK  11 active torsions:
REMARK  status: ('A' for Active; 'I' for Inactive)
REMARK    1  A    between atoms: C_1  and  C_2
REMARK    2  A    between atoms: C_4  and  C_7
REMARK    3  A    between atoms: C_7  and  C_8
REMARK    4  A    between atoms: C_7  and  C_15
REMARK    5  A    between atoms: C_7  and  C_27
REMARK    6  A    between atoms: C_8  and  C_9
REMARK    7  A    between atoms: C_15  and  C_16
REMARK    8  A    between atoms: C_19  and  N_20
REMARK    9  A    between atoms: N_20  and  S_21
REMARK   10  A    between atoms: S_21  and  O_22
REMARK   11  A    between atoms: C_30  and  C_31
REMARK                            x       y       z     vdW  Elec       q    Type
REMARK                         _______ _______ _______ _____ _____    ______ ____
ROOT
ATOM      1  C   UNL     1       7.263  -4.068  25.269  0.00  0.00    +0.104 C 
ENDROOT
BRANCH   1   6
ATOM      2  C   UNL     1       4.219  -6.774  28.126  0.00  0.00    +0.112 C 
ATOM      3  C   UNL     1       5.361  -6.034  27.561  0.00  0.00    +0.224 A 
ATOM      4  O   UNL     1       6.327  -5.611  28.422  0.00  0.00    -0.338 OA
ATOM      5  N   UNL     1       7.219  -4.842  27.668  0.00  0.00    -0.060 NA
ATOM      6  C   UNL     1       6.680  -4.852  26.434  0.00  0.00    +0.186 A 
ATOM      7  N   UNL     1       5.575  -5.665  26.324  0.00  0.00    -0.195 NA
ENDBRANCH   1   6
BRANCH   1   8
ATOM      8  C   UNL     1       7.306  -4.921  24.003  0.00  0.00    +0.186 A 
ATOM      9  N   UNL     1       6.278  -4.883  23.079  0.00  0.00    -0.195 NA
ATOM     10  C   UNL     1       6.756  -5.605  22.092  0.00  0.00    +0.224 A 
ATOM     11  C   UNL     1       6.163  -5.892  20.775  0.00  0.00    +0.112 C 
ATOM     12  O   UNL     1       8.007  -6.088  22.334  0.00  0.00    -0.338 OA
ATOM     13  N   UNL     1       8.372  -5.632  23.599  0.00  0.00    -0.060 NA
ENDBRANCH   1   8
BRANCH   1  14
ATOM     14  C   UNL     1       8.735  -3.555  25.556  0.00  0.00    +0.058 C 
BRANCH  14  15
ATOM     15  C   UNL     1       9.081  -2.148  25.073  0.00  0.00    -0.046 A 
ATOM     16  C   UNL     1       8.944  -1.042  25.923  0.00  0.00    +0.005 A 
ATOM     17  C   UNL     1       9.504   0.194  25.592  0.00  0.00    +0.025 A 
ATOM     18  C   UNL     1      10.175   0.338  24.378  0.00  0.00    +0.050 A 
ATOM     19  C   UNL     1      10.182  -0.705  23.459  0.00  0.00    +0.025 A 
ATOM     20  C   UNL     1       9.631  -1.943  23.802  0.00  0.00    +0.005 A 
BRANCH  18  21
ATOM     21  N   UNL     1      10.872   1.535  24.055  0.00  0.00    -0.197 N 
ATOM     22  H   UNL     1      11.362   1.962  24.840  0.00  0.00    +0.176 HD
BRANCH  21  23
ATOM     23  S   UNL     1      10.038   2.719  23.210  0.00  0.00    +0.164 S 
ATOM     24  O   UNL     1      10.698   3.971  23.491  0.00  0.00    -0.127 OA
ATOM     25  O   UNL     1       8.626   2.538  23.438  0.00  0.00    -0.127 OA
BRANCH  23  26
ATOM     26  O   UNL     1      10.306   2.338  21.670  0.00  0.00    -0.238 OA
ATOM     27  H   UNL     1       9.659   2.836  21.131  0.00  0.00    +0.246 HD
ENDBRANCH  23  26
ENDBRANCH  21  23
ENDBRANCH  18  21
ENDBRANCH  14  15
ENDBRANCH   1  14
BRANCH   1  28
ATOM     28  C   UNL     1       6.330  -2.833  24.964  0.00  0.00    +0.058 C 
BRANCH  28  29
ATOM     29  C   UNL     1       5.238  -2.521  25.966  0.00  0.00    -0.046 A 
ATOM     30  C   UNL     1       3.908  -2.881  25.710  0.00  0.00    +0.003 A 
ATOM     31  C   UNL     1       2.908  -2.616  26.647  0.00  0.00    +0.000 A 
ATOM     32  C   UNL     1       3.226  -1.982  27.846  0.00  0.00    +0.000 A 
ATOM     33  C   UNL     1       4.539  -1.595  28.101  0.00  0.00    +0.000 A 
ATOM     34  C   UNL     1       5.540  -1.856  27.163  0.00  0.00    +0.003 A 
ENDBRANCH  28  29
ENDBRANCH   1  28
TORSDOF 9
ENDMDL
MODEL 5
REMARK VINA RESULT:      -7.0      2.021      4.712
REMARK  Name = 
REMARK  11 active torsions:
REMARK  status: ('A' for Active; 'I' for Inactive)
REMARK    1  A    between atoms: C_1  and  C_2
REMARK    2  A    between atoms: C_4  and  C_7
REMARK    3  A    between atoms: C_7  and  C_8
REMARK    4  A    between atoms: C_7  and  C_15
REMARK    5  A    between atoms: C_7  and  C_27
REMARK    6  A    between atoms: C_8  and  C_9
REMARK    7  A    between atoms: C_15  and  C_16
REMARK    8  A    between atoms: C_19  and  N_20
REMARK    9  A    between atoms: N_20  and  S_21
REMARK   10  A    between atoms: S_21  and  O_22
REMARK   11  A    between atoms: C_30  and  C_31
REMARK                            x       y       z     vdW  Elec       q    Type
REMARK                         _______ _______ _______ _____ _____    ______ ____
ROOT
ATOM      1  C   UNL     1       8.173  -0.348  24.026  0.00  0.00    +0.104 C 
ENDROOT
BRANCH   1   6
ATOM      2  C   UNL     1      11.259   3.505  23.400  0.00  0.00    +0.112 C 
ATOM      3  C   UNL     1      10.441   2.291  23.230  0.00  0.00    +0.224 A 
ATOM      4  O   UNL     1      10.127   1.914  21.960  0.00  0.00    -0.338 OA
ATOM      5  N   UNL     1       9.258   0.825  22.075  0.00  0.00    -0.060 NA
ATOM      6  C   UNL     1       9.109   0.677  23.405  0.00  0.00    +0.186 A 
ATOM      7  N   UNL     1       9.910   1.518  24.144  0.00  0.00    -0.195 NA
ENDBRANCH   1   6
BRANCH   1   8
ATOM      8  C   UNL     1       8.900  -1.666  24.283  0.00  0.00    +0.186 A 
ATOM      9  N   UNL     1       8.567  -2.469  25.359  0.00  0.00    -0.195 NA
ATOM     10  C   UNL     1       9.282  -3.549  25.139  0.00  0.00    +0.224 A 
ATOM     11  C   UNL     1       9.321  -4.810  25.897  0.00  0.00    +0.112 C 
ATOM     12  O   UNL     1      10.033  -3.477  24.005  0.00  0.00    -0.338 OA
ATOM     13  N   UNL     1       9.777  -2.231  23.436  0.00  0.00    -0.060 NA
ENDBRANCH   1   8
BRANCH   1  14
ATOM     14  C   UNL     1       6.917  -0.659  23.110  0.00  0.00    +0.058 C 
BRANCH  14  15
ATOM     15  C   UNL     1       6.248  -2.019  23.298  0.00  0.00    -0.046 A 
ATOM     16  C   UNL     1       5.343  -2.235  24.347  0.00  0.00    +0.005 A 
ATOM     17  C   UNL     1       4.528  -3.369  24.372  0.00  0.00    +0.025 A 
ATOM     18  C   UNL     1       4.647  -4.319  23.359  0.00  0.00    +0.050 A 
ATOM     19  C   UNL     1       5.647  -4.194  22.401  0.00  0.00    +0.025 A 
ATOM     20  C   UNL     1       6.450  -3.051  22.374  0.00  0.00    +0.005 A 
BRANCH  18  21
ATOM     21  N   UNL     1       3.753  -5.423  23.269  0.00  0.00    -0.197 N 
ATOM     22  H   UNL     1       2.799  -5.172  23.014  0.00  0.00    +0.176 HD
BRANCH  21  23
ATOM     23  S   UNL     1       3.721  -6.505  24.549  0.00  0.00    +0.164 S 
ATOM     24  O   UNL     1       2.628  -6.105  25.402  0.00  0.00    -0.127 OA
ATOM     25  O   UNL     1       5.061  -6.658  25.056  0.00  0.00    -0.127 OA
BRANCH  23  26
ATOM     26  O   UNL     1       3.332  -7.901  23.848  0.00  0.00    -0.238 OA
ATOM     27  H   UNL     1       3.243  -7.728  22.890  0.00  0.00    +0.246 HD
ENDBRANCH  23  26
ENDBRANCH  21  23
ENDBRANCH  18  21
ENDBRANCH  14  15
ENDBRANCH   1  14
BRANCH   1  28
ATOM     28  C   UNL     1       7.679   0.189  25.424  0.00  0.00    +0.058 C 
BRANCH  28  29
ATOM     29  C   UNL     1       6.490   1.127  25.430  0.00  0.00    -0.046 A 
ATOM     30  C   UNL     1       6.538   2.347  24.742  0.00  0.00    +0.003 A 
ATOM     31  C   UNL     1       5.431   3.197  24.726  0.00  0.00    +0.000 A 
ATOM     32  C   UNL     1       4.268   2.840  25.404  0.00  0.00    +0.000 A 
ATOM     33  C   UNL     1       4.217   1.642  26.114  0.00  0.00    +0.000 A 
ATOM     34  C   UNL     1       5.325   0.793  26.134  0.00  0.00    +0.003 A 
ENDBRANCH  28  29
ENDBRANCH   1  28
TORSDOF 9
ENDMDL
MODEL 6
REMARK VINA RESULT:      -6.9      2.508      4.657
REMARK  Name = 
REMARK  11 active torsions:
REMARK  status: ('A' for Active; 'I' for Inactive)
REMARK    1  A    between atoms: C_1  and  C_2
REMARK    2  A    between atoms: C_4  and  C_7
REMARK    3  A    between atoms: C_7  and  C_8
REMARK    4  A    between atoms: C_7  and  C_15
REMARK    5  A    between atoms: C_7  and  C_27
REMARK    6  A    between atoms: C_8  and  C_9
REMARK    7  A    between atoms: C_15  and  C_16
REMARK    8  A    between atoms: C_19  and  N_20
REMARK    9  A    between atoms: N_20  and  S_21
REMARK   10  A    between atoms: S_21  and  O_22
REMARK   11  A    between atoms: C_30  and  C_31
REMARK                            x       y       z     vdW  Elec       q    Type
REMARK                         _______ _______ _______ _____ _____    ______ ____
ROOT
ATOM      1  C   UNL     1       7.857  -1.912  23.826  0.00  0.00    +0.104 C 
ENDROOT
BRANCH   1   6
ATOM      2  C   UNL     1       5.632   2.519  23.418  0.00  0.00    +0.112 C 
ATOM      3  C   UNL     1       6.211   1.254  23.902  0.00  0.00    +0.224 A 
ATOM      4  O   UNL     1       6.545   1.176  25.220  0.00  0.00    -0.338 OA
ATOM      5  N   UNL     1       7.176  -0.060  25.395  0.00  0.00    -0.060 NA
ATOM      6  C   UNL     1       7.188  -0.587  24.156  0.00  0.00    +0.186 A 
ATOM      7  N   UNL     1       6.510   0.171  23.229  0.00  0.00    -0.195 NA
ENDBRANCH   1   6
BRANCH   1   8
ATOM      8  C   UNL     1       6.964  -2.766  22.929  0.00  0.00    +0.186 A 
ATOM      9  N   UNL     1       7.466  -3.867  22.258  0.00  0.00    -0.195 NA
ATOM     10  C   UNL     1       6.383  -4.407  21.749  0.00  0.00    +0.224 A 
ATOM     11  C   UNL     1       6.239  -5.651  20.974  0.00  0.00    +0.112 C 
ATOM     12  O   UNL     1       5.244  -3.726  22.055  0.00  0.00    -0.338 OA
ATOM     13  N   UNL     1       5.629  -2.640  22.841  0.00  0.00    -0.060 NA
ENDBRANCH   1   8
BRANCH   1  14
ATOM     14  C   UNL     1       8.197  -2.762  25.120  0.00  0.00    +0.058 C 
BRANCH  14  15
ATOM     15  C   UNL     1       7.048  -3.546  25.750  0.00  0.00    -0.046 A 
ATOM     16  C   UNL     1       6.990  -4.943  25.646  0.00  0.00    +0.005 A 
ATOM     17  C   UNL     1       6.109  -5.688  26.435  0.00  0.00    +0.025 A 
ATOM     18  C   UNL     1       5.248  -5.026  27.308  0.00  0.00    +0.050 A 
ATOM     19  C   UNL     1       5.186  -3.637  27.306  0.00  0.00    +0.025 A 
ATOM     20  C   UNL     1       6.079  -2.899  26.525  0.00  0.00    +0.005 A 
BRANCH  18  21
ATOM     21  N   UNL     1       4.426  -5.742  28.223  0.00  0.00    -0.197 N 
ATOM     22  H   UNL     1       3.680  -5.188  28.641  0.00  0.00    +0.176 HD
BRANCH  21  23
ATOM     23  S   UNL     1       5.188  -6.641  29.416  0.00  0.00    +0.164 S 
ATOM     24  O   UNL     1       6.052  -7.577  28.740  0.00  0.00    -0.127 OA
ATOM     25  O   UNL     1       4.197  -7.075  30.367  0.00  0.00    -0.127 OA
BRANCH  23  26
ATOM     26  O   UNL     1       6.106  -5.556  30.172  0.00  0.00    -0.238 OA
ATOM     27  H   UNL     1       6.180  -5.840  31.105  0.00  0.00    +0.246 HD
ENDBRANCH  23  26
ENDBRANCH  21  23
ENDBRANCH  18  21
ENDBRANCH  14  15
ENDBRANCH   1  14
BRANCH   1  28
ATOM     28  C   UNL     1       9.185  -1.630  23.023  0.00  0.00    +0.058 C 
BRANCH  28  29
ATOM     29  C   UNL     1       9.739  -0.221  23.064  0.00  0.00    -0.046 A 
ATOM     30  C   UNL     1      10.430   0.242  24.192  0.00  0.00    +0.003 A 
ATOM     31  C   UNL     1      10.963   1.533  24.218  0.00  0.00    +0.000 A 
ATOM     32  C   UNL     1      10.804   2.375  23.119  0.00  0.00    +0.000 A 
ATOM     33  C   UNL     1      10.096   1.935  22.003  0.00  0.00    +0.000 A 
ATOM     34  C   UNL     1       9.559   0.647  21.978  0.00  0.00    +0.003 A 
ENDBRANCH  28  29
ENDBRANCH   1  28
TORSDOF 9
ENDMDL
MODEL 7
REMARK VINA RESULT:      -6.9      1.800      4.149
REMARK  Name = 
REMARK  11 active torsions:
REMARK  status: ('A' for Active; 'I' for Inactive)
REMARK    1  A    between atoms: C_1  and  C_2
REMARK    2  A    between atoms: C_4  and  C_7
REMARK    3  A    between atoms: C_7  and  C_8
REMARK    4  A    between atoms: C_7  and  C_15
REMARK    5  A    between atoms: C_7  and  C_27
REMARK    6  A    between atoms: C_8  and  C_9
REMARK    7  A    between atoms: C_15  and  C_16
REMARK    8  A    between atoms: C_19  and  N_20
REMARK    9  A    between atoms: N_20  and  S_21
REMARK   10  A    between atoms: S_21  and  O_22
REMARK   11  A    between atoms: C_30  and  C_31
REMARK                            x       y       z     vdW  Elec       q    Type
REMARK                         _______ _______ _______ _____ _____    ______ ____
ROOT
ATOM      1  C   UNL     1       8.104  -2.107  24.968  0.00  0.00    +0.104 C 
ENDROOT
BRANCH   1   6
ATOM      2  C   UNL     1       5.535   2.075  24.155  0.00  0.00    +0.112 C 
ATOM      3  C   UNL     1       6.237   0.927  24.755  0.00  0.00    +0.224 A 
ATOM      4  O   UNL     1       6.664   1.051  26.042  0.00  0.00    -0.338 OA
ATOM      5  N   UNL     1       7.394  -0.106  26.328  0.00  0.00    -0.060 NA
ATOM      6  C   UNL     1       7.363  -0.796  25.172  0.00  0.00    +0.186 A 
ATOM      7  N   UNL     1       6.569  -0.215  24.209  0.00  0.00    -0.195 NA
ENDBRANCH   1   6
BRANCH   1   8
ATOM      8  C   UNL     1       7.396  -2.980  23.934  0.00  0.00    +0.186 A 
ATOM      9  N   UNL     1       8.061  -4.004  23.285  0.00  0.00    -0.195 NA
ATOM     10  C   UNL     1       7.094  -4.597  22.624  0.00  0.00    +0.224 A 
ATOM     11  C   UNL     1       7.144  -5.808  21.787  0.00  0.00    +0.112 C 
ATOM     12  O   UNL     1       5.876  -4.020  22.816  0.00  0.00    -0.338 OA
ATOM     13  N   UNL     1       6.075  -2.949  23.687  0.00  0.00    -0.060 NA
ENDBRANCH   1   8
BRANCH   1  14
ATOM     14  C   UNL     1       8.231  -2.949  26.305  0.00  0.00    +0.058 C 
BRANCH  14  15
ATOM     15  C   UNL     1       7.064  -3.871  26.652  0.00  0.00    -0.046 A 
ATOM     16  C   UNL     1       5.845  -3.348  27.106  0.00  0.00    +0.005 A 
ATOM     17  C   UNL     1       4.698  -4.143  27.167  0.00  0.00    +0.025 A 
ATOM     18  C   UNL     1       4.780  -5.488  26.809  0.00  0.00    +0.050 A 
ATOM     19  C   UNL     1       6.013  -6.056  26.509  0.00  0.00    +0.025 A 
ATOM     20  C   UNL     1       7.153  -5.252  26.437  0.00  0.00    +0.005 A 
BRANCH  18  21
ATOM     21  N   UNL     1       3.617  -6.305  26.730  0.00  0.00    -0.197 N 
ATOM     22  H   UNL     1       3.669  -7.164  27.276  0.00  0.00    +0.176 HD
BRANCH  21  23
ATOM     23  S   UNL     1       3.008  -6.650  25.206  0.00  0.00    +0.164 S 
ATOM     24  O   UNL     1       1.607  -6.310  25.234  0.00  0.00    -0.127 OA
ATOM     25  O   UNL     1       3.463  -7.960  24.816  0.00  0.00    -0.127 OA
BRANCH  23  26
ATOM     26  O   UNL     1       3.767  -5.598  24.254  0.00  0.00    -0.238 OA
ATOM     27  H   UNL     1       4.173  -4.923  24.834  0.00  0.00    +0.246 HD
ENDBRANCH  23  26
ENDBRANCH  21  23
ENDBRANCH  18  21
ENDBRANCH  14  15
ENDBRANCH   1  14
BRANCH   1  28
ATOM     28  C   UNL     1       9.545  -1.800  24.405  0.00  0.00    +0.058 C 
BRANCH  28  29
ATOM     29  C   UNL     1       9.737  -0.497  23.657  0.00  0.00    -0.046 A 
ATOM     30  C   UNL     1       9.409  -0.398  22.298  0.00  0.00    +0.003 A 
ATOM     31  C   UNL     1       9.562   0.812  21.617  0.00  0.00    +0.000 A 
ATOM     32  C   UNL     1      10.051   1.931  22.286  0.00  0.00    +0.000 A 
ATOM     33  C   UNL     1      10.406   1.838  23.630  0.00  0.00    +0.000 A 
ATOM     34  C   UNL     1      10.258   0.629  24.311  0.00  0.00    +0.003 A 
ENDBRANCH  28  29
ENDBRANCH   1  28
TORSDOF 9
ENDMDL
MODEL 8
REMARK VINA RESULT:      -6.8      3.579      7.815
REMARK  Name = 
REMARK  11 active torsions:
REMARK  status: ('A' for Active; 'I' for Inactive)
REMARK    1  A    between atoms: C_1  and  C_2
REMARK    2  A    between atoms: C_4  and  C_7
REMARK    3  A    between atoms: C_7  and  C_8
REMARK    4  A    between atoms: C_7  and  C_15
REMARK    5  A    between atoms: C_7  and  C_27
REMARK    6  A    between atoms: C_8  and  C_9
REMARK    7  A    between atoms: C_15  and  C_16
REMARK    8  A    between atoms: C_19  and  N_20
REMARK    9  A    between atoms: N_20  and  S_21
REMARK   10  A    between atoms: S_21  and  O_22
REMARK   11  A    between atoms: C_30  and  C_31
REMARK                            x       y       z     vdW  Elec       q    Type
REMARK                         _______ _______ _______ _____ _____    ______ ____
ROOT
ATOM      1  C   UNL     1       7.750  -2.235  24.715  0.00  0.00    +0.104 C 
ENDROOT
BRANCH   1   6
ATOM      2  C   UNL     1      11.478   1.048  24.450  0.00  0.00    +0.112 C 
ATOM      3  C   UNL     1      10.581  -0.106  24.273  0.00  0.00    +0.224 A 
ATOM      4  O   UNL     1      10.697  -0.827  23.124  0.00  0.00    -0.338 OA
ATOM      5  N   UNL     1       9.669  -1.775  23.146  0.00  0.00    -0.060 NA
ATOM      6  C   UNL     1       9.015  -1.506  24.292  0.00  0.00    +0.186 A 
ATOM      7  N   UNL     1       9.621  -0.533  25.055  0.00  0.00    -0.195 NA
ENDBRANCH   1   6
BRANCH   1   8
ATOM      8  C   UNL     1       7.644  -3.592  24.021  0.00  0.00    +0.186 A 
ATOM      9  N   UNL     1       6.631  -3.857  23.118  0.00  0.00    -0.195 NA
ATOM     10  C   UNL     1       6.978  -5.029  22.638  0.00  0.00    +0.224 A 
ATOM     11  C   UNL     1       6.338  -5.829  21.581  0.00  0.00    +0.112 C 
ATOM     12  O   UNL     1       8.133  -5.511  23.174  0.00  0.00    -0.338 OA
ATOM     13  N   UNL     1       8.577  -4.557  24.088  0.00  0.00    -0.060 NA
ENDBRANCH   1   8
BRANCH   1  14
ATOM     14  C   UNL     1       6.434  -1.417  24.380  0.00  0.00    +0.058 C 
BRANCH  14  15
ATOM     15  C   UNL     1       6.621   0.005  23.856  0.00  0.00    -0.046 A 
ATOM     16  C   UNL     1       6.539   1.105  24.721  0.00  0.00    +0.005 A 
ATOM     17  C   UNL     1       6.971   2.372  24.318  0.00  0.00    +0.025 A 
ATOM     18  C   UNL     1       7.451   2.549  23.022  0.00  0.00    +0.050 A 
ATOM     19  C   UNL     1       7.391   1.504  22.107  0.00  0.00    +0.025 A 
ATOM     20  C   UNL     1       6.971   0.237  22.521  0.00  0.00    +0.005 A 
BRANCH  18  21
ATOM     21  N   UNL     1       8.021   3.785  22.606  0.00  0.00    -0.197 N 
ATOM     22  H   UNL     1       8.940   3.979  23.002  0.00  0.00    +0.176 HD
BRANCH  21  23
ATOM     23  S   UNL     1       7.067   5.159  22.715  0.00  0.00    +0.164 S 
ATOM     24  O   UNL     1       7.504   5.875  23.888  0.00  0.00    -0.127 OA
ATOM     25  O   UNL     1       5.689   4.778  22.529  0.00  0.00    -0.127 OA
BRANCH  23  26
ATOM     26  O   UNL     1       7.487   6.010  21.415  0.00  0.00    -0.238 OA
ATOM     27  H   UNL     1       8.212   6.610  21.684  0.00  0.00    +0.246 HD
ENDBRANCH  23  26
ENDBRANCH  21  23
ENDBRANCH  18  21
ENDBRANCH  14  15
ENDBRANCH   1  14
BRANCH   1  28
ATOM     28  C   UNL     1       7.812  -2.512  26.266  0.00  0.00    +0.058 C 
BRANCH  28  29
ATOM     29  C   UNL     1       6.749  -3.415  26.856  0.00  0.00    -0.046 A 
ATOM     30  C   UNL     1       7.032  -4.757  27.148  0.00  0.00    +0.003 A 
ATOM     31  C   UNL     1       6.058  -5.580  27.716  0.00  0.00    +0.000 A 
ATOM     32  C   UNL     1       4.790  -5.072  27.992  0.00  0.00    +0.000 A 
ATOM     33  C   UNL     1       4.488  -3.749  27.681  0.00  0.00    +0.000 A 
ATOM     34  C   UNL     1       5.460  -2.925  27.108  0.00  0.00    +0.003 A 
ENDBRANCH  28  29
ENDBRANCH   1  28
TORSDOF 9
ENDMDL
MODEL 9
REMARK VINA RESULT:      -6.8      3.278      7.932
REMARK  Name = 
REMARK  11 active torsions:
REMARK  status: ('A' for Active; 'I' for Inactive)
REMARK    1  A    between atoms: C_1  and  C_2
REMARK    2  A    between atoms: C_4  and  C_7
REMARK    3  A    between atoms: C_7  and  C_8
REMARK    4  A    between atoms: C_7  and  C_15
REMARK    5  A    between atoms: C_7  and  C_27
REMARK    6  A    between atoms: C_8  and  C_9
REMARK    7  A    between atoms: C_15  and  C_16
REMARK    8  A    between atoms: C_19  and  N_20
REMARK    9  A    between atoms: N_20  and  S_21
REMARK   10  A    between atoms: S_21  and  O_22
REMARK   11  A    between atoms: C_30  and  C_31
REMARK                            x       y       z     vdW  Elec       q    Type
REMARK                         _______ _______ _______ _____ _____    ______ ____
ROOT
ATOM      1  C   UNL     1       7.395  -1.587  23.771  0.00  0.00    +0.104 C 
ENDROOT
BRANCH   1   6
ATOM      2  C   UNL     1       5.525   2.837  25.069  0.00  0.00    +0.112 C 
ATOM      3  C   UNL     1       6.190   1.522  25.043  0.00  0.00    +0.224 A 
ATOM      4  O   UNL     1       7.123   1.267  26.002  0.00  0.00    -0.338 OA
ATOM      5  N   UNL     1       7.683   0.025  25.688  0.00  0.00    -0.060 NA
ATOM      6  C   UNL     1       7.055  -0.327  24.550  0.00  0.00    +0.186 A 
ATOM      7  N   UNL     1       6.056   0.545  24.182  0.00  0.00    -0.195 NA
ENDBRANCH   1   6
BRANCH   1   8
ATOM      8  C   UNL     1       7.722  -2.742  24.716  0.00  0.00    +0.186 A 
ATOM      9  N   UNL     1       8.914  -3.436  24.614  0.00  0.00    -0.195 NA
ATOM     10  C   UNL     1       8.884  -4.210  25.673  0.00  0.00    +0.224 A 
ATOM     11  C   UNL     1       9.904  -5.149  26.170  0.00  0.00    +0.112 C 
ATOM     12  O   UNL     1       7.763  -4.048  26.429  0.00  0.00    -0.338 OA
ATOM     13  N   UNL     1       6.994  -3.072  25.796  0.00  0.00    -0.060 NA
ENDBRANCH   1   8
BRANCH   1  14
ATOM     14  C   UNL     1       8.636  -1.389  22.804  0.00  0.00    +0.058 C 
BRANCH  14  15
ATOM     15  C   UNL     1       9.284  -0.007  22.789  0.00  0.00    -0.046 A 
ATOM     16  C   UNL     1       8.799   1.006  21.950  0.00  0.00    +0.005 A 
ATOM     17  C   UNL     1       9.199   2.334  22.118  0.00  0.00    +0.025 A 
ATOM     18  C   UNL     1      10.126   2.647  23.111  0.00  0.00    +0.050 A 
ATOM     19  C   UNL     1      10.731   1.633  23.844  0.00  0.00    +0.025 A 
ATOM     20  C   UNL     1      10.317   0.309  23.679  0.00  0.00    +0.005 A 
BRANCH  18  21
ATOM     21  N   UNL     1      10.466   3.997  23.407  0.00  0.00    -0.197 N 
ATOM     22  H   UNL     1      11.356   4.110  23.891  0.00  0.00    +0.176 HD
BRANCH  21  23
ATOM     23  S   UNL     1       9.303   4.949  24.151  0.00  0.00    +0.164 S 
ATOM     24  O   UNL     1       8.702   4.138  25.181  0.00  0.00    -0.127 OA
ATOM     25  O   UNL     1       8.512   5.589  23.131  0.00  0.00    -0.127 OA
BRANCH  23  26
ATOM     26  O   UNL     1      10.167   6.109  24.857  0.00  0.00    -0.238 OA
ATOM     27  H   UNL     1      10.985   5.695  25.198  0.00  0.00    +0.246 HD
ENDBRANCH  23  26
ENDBRANCH  21  23
ENDBRANCH  18  21
ENDBRANCH  14  15
ENDBRANCH   1  14
BRANCH   1  28
ATOM     28  C   UNL     1       6.138  -2.024  22.925  0.00  0.00    +0.058 C 
BRANCH  28  29
ATOM     29  C   UNL     1       5.994  -3.496  22.599  0.00  0.00    -0.046 A 
ATOM     30  C   UNL     1       6.939  -4.145  21.793  0.00  0.00    +0.003 A 
ATOM     31  C   UNL     1       6.819  -5.508  21.516  0.00  0.00    +0.000 A 
ATOM     32  C   UNL     1       5.749  -6.234  22.036  0.00  0.00    +0.000 A 
ATOM     33  C   UNL     1       4.789  -5.594  22.816  0.00  0.00    +0.000 A 
ATOM     34  C   UNL     1       4.906  -4.230  23.091  0.00  0.00    +0.003 A 
ENDBRANCH  28  29
ENDBRANCH   1  28
TORSDOF 9
ENDMDL
