MODEL 1
REMARK VINA RESULT:      -7.2      0.000      0.000
REMARK  Name = 
REMARK  7 active torsions:
REMARK  status: ('A' for Active; 'I' for Inactive)
REMARK    1  A    between atoms: C_2  and  C_3
REMARK    2  A    between atoms: C_2  and  O_10
REMARK    3  A    between atoms: C_2  and  C_23
REMARK    4  A    between atoms: C_3  and  C_4
REMARK    5  A    between atoms: O_10  and  C_11
REMARK    6  A    between atoms: C_14  and  C_17
REMARK    7  A    between atoms: C_23  and  O_24
REMARK                            x       y       z     vdW  Elec       q    Type
REMARK                         _______ _______ _______ _____ _____    ______ ____
ROOT
ATOM      1  O   UNL     1       7.631  -5.206  26.162  0.00  0.00    -0.477 OA
ENDROOT
BRANCH   1   2
ATOM      2  C   UNL     1       8.152  -4.017  25.753  0.00  0.00    +0.122 A 
ATOM      3  C   UNL     1       8.944  -4.092  24.607  0.00  0.00    +0.046 A 
ATOM      4  C   UNL     1       9.477  -2.935  24.027  0.00  0.00    +0.012 A 
ATOM      5  C   UNL     1       9.235  -1.665  24.574  0.00  0.00    -0.018 A 
ATOM      6  C   UNL     1       8.509  -1.627  25.783  0.00  0.00    +0.012 A 
ATOM      7  C   UNL     1       7.980  -2.788  26.374  0.00  0.00    +0.046 A 
BRANCH   5   8
ATOM      8  C   UNL     1       9.667  -0.424  23.879  0.00  0.00    -0.018 A 
ATOM      9  C   UNL     1       9.472  -0.258  22.493  0.00  0.00    +0.008 A 
ATOM     10  C   UNL     1       9.802   0.934  21.837  0.00  0.00    +0.001 A 
ATOM     11  C   UNL     1      10.334   1.998  22.555  0.00  0.00    +0.000 A 
ATOM     12  C   UNL     1      10.555   1.861  23.922  0.00  0.00    +0.001 A 
ATOM     13  C   UNL     1      10.233   0.661  24.572  0.00  0.00    +0.008 A 
ENDBRANCH   5   8
ENDBRANCH   1   2
BRANCH   1  14
ATOM     14  C   UNL     1       6.215  -5.333  26.409  0.00  0.00    +0.285 C 
BRANCH  14  15
ATOM     15  C   UNL     1       6.205  -6.292  27.610  0.00  0.00    +0.346 C 
ATOM     16  O   UNL     1       6.943  -6.247  28.582  0.00  0.00    -0.247 OA
BRANCH  15  17
ATOM     17  O   UNL     1       5.236  -7.241  27.504  0.00  0.00    -0.478 OA
ATOM     18  H   UNL     1       4.458  -6.893  27.021  0.00  0.00    +0.295 HD
ENDBRANCH  15  17
ENDBRANCH  14  15
BRANCH  14  19
ATOM     19  C   UNL     1       5.408  -5.916  25.236  0.00  0.00    +0.091 C 
BRANCH  19  20
ATOM     20  C   UNL     1       5.631  -5.208  23.912  0.00  0.00    -0.043 A 
ATOM     21  C   UNL     1       5.281  -3.857  23.771  0.00  0.00    +0.004 A 
ATOM     22  C   UNL     1       5.497  -3.183  22.568  0.00  0.00    +0.000 A 
ATOM     23  C   UNL     1       6.066  -3.849  21.487  0.00  0.00    +0.000 A 
ATOM     24  C   UNL     1       6.413  -5.193  21.608  0.00  0.00    +0.000 A 
ATOM     25  C   UNL     1       6.191  -5.874  22.811  0.00  0.00    +0.004 A 
ENDBRANCH  19  20
ENDBRANCH  14  19
ENDBRANCH   1  14
TORSDOF 7
ENDMDL
MODEL 2
REMARK VINA RESULT:      -6.9      1.979      3.407
REMARK  Name = 
REMARK  7 active torsions:
REMARK  status: ('A' for Active; 'I' for Inactive)
REMARK    1  A    between atoms: C_2  and  C_3
REMARK    2  A    between atoms: C_2  and  O_10
REMARK    3  A    between atoms: C_2  and  C_23
REMARK    4  A    between atoms: C_3  and  C_4
REMARK    5  A    between atoms: O_10  and  C_11
REMARK    6  A    between atoms: C_14  and  C_17
REMARK    7  A    between atoms: C_23  and  O_24
REMARK                            x       y       z     vdW  Elec       q    Type
REMARK                         _______ _______ _______ _____ _____    ______ ____
ROOT
ATOM      1  O   UNL     1       9.856  -3.287  24.036  0.00  0.00    -0.477 OA
ENDROOT
BRANCH   1   2
ATOM      2  C   UNL     1       9.816  -1.936  23.879  0.00  0.00    +0.122 A 
ATOM      3  C   UNL     1       9.440  -1.227  25.020  0.00  0.00    +0.046 A 
ATOM      4  C   UNL     1       9.436   0.172  25.027  0.00  0.00    +0.012 A 
ATOM      5  C   UNL     1       9.810   0.909  23.892  0.00  0.00    -0.018 A 
ATOM      6  C   UNL     1      10.096   0.169  22.726  0.00  0.00    +0.012 A 
ATOM      7  C   UNL     1      10.091  -1.237  22.713  0.00  0.00    +0.046 A 
BRANCH   5   8
ATOM      8  C   UNL     1       9.956   2.388  23.939  0.00  0.00    -0.018 A 
ATOM      9  C   UNL     1      11.104   3.024  23.424  0.00  0.00    +0.008 A 
ATOM     10  C   UNL     1      11.223   4.419  23.389  0.00  0.00    +0.001 A 
ATOM     11  C   UNL     1      10.192   5.217  23.867  0.00  0.00    +0.000 A 
ATOM     12  C   UNL     1       9.052   4.620  24.397  0.00  0.00    +0.001 A 
ATOM     13  C   UNL     1       8.942   3.223  24.440  0.00  0.00    +0.008 A 
ENDBRANCH   5   8
ENDBRANCH   1   2
BRANCH   1  14
ATOM     14  C   UNL     1       8.719  -3.990  24.581  0.00  0.00    +0.285 C 
BRANCH  14  15
ATOM     15  C   UNL     1       9.368  -4.747  25.750  0.00  0.00    +0.346 C 
ATOM     16  O   UNL     1       9.083  -4.640  26.934  0.00  0.00    -0.247 OA
BRANCH  15  17
ATOM     17  O   UNL     1      10.332  -5.613  25.333  0.00  0.00    -0.478 OA
ATOM     18  H   UNL     1      10.177  -6.509  25.699  0.00  0.00    +0.295 HD
ENDBRANCH  15  17
ENDBRANCH  14  15
BRANCH  14  19
ATOM     19  C   UNL     1       8.041  -4.968  23.605  0.00  0.00    +0.091 C 
BRANCH  19  20
ATOM     20  C   UNL     1       6.529  -4.843  23.548  0.00  0.00    -0.043 A 
ATOM     21  C   UNL     1       5.765  -5.846  22.935  0.00  0.00    +0.004 A 
ATOM     22  C   UNL     1       4.372  -5.759  22.890  0.00  0.00    +0.000 A 
ATOM     23  C   UNL     1       3.722  -4.666  23.456  0.00  0.00    +0.000 A 
ATOM     24  C   UNL     1       4.468  -3.657  24.062  0.00  0.00    +0.000 A 
ATOM     25  C   UNL     1       5.865  -3.738  24.102  0.00  0.00    +0.004 A 
ENDBRANCH  19  20
ENDBRANCH  14  19
ENDBRANCH   1  14
TORSDOF 7
ENDMDL
MODEL 3
REMARK VINA RESULT:      -6.7      2.191      4.120
REMARK  Name = 
REMARK  7 active torsions:
REMARK  status: ('A' for Active; 'I' for Inactive)
REMARK    1  A    between atoms: C_2  and  C_3
REMARK    2  A    between atoms: C_2  and  O_10
REMARK    3  A    between atoms: C_2  and  C_23
REMARK    4  A    between atoms: C_3  and  C_4
REMARK    5  A    between atoms: O_10  and  C_11
REMARK    6  A    between atoms: C_14  and  C_17
REMARK    7  A    between atoms: C_23  and  O_24
REMARK                            x       y       z     vdW  Elec       q    Type
REMARK                         _______ _______ _______ _____ _____    ______ ____
ROOT
ATOM      1  O   UNL     1       9.754  -2.229  23.093  0.00  0.00    -0.477 OA
ENDROOT
BRANCH   1   2
ATOM      2  C   UNL     1      10.026  -0.906  23.264  0.00  0.00    +0.122 A 
ATOM      3  C   UNL     1       9.851  -0.122  22.124  0.00  0.00    +0.046 A 
ATOM      4  C   UNL     1      10.015   1.266  22.175  0.00  0.00    +0.012 A 
ATOM      5  C   UNL     1      10.358   1.918  23.371  0.00  0.00    -0.018 A 
ATOM      6  C   UNL     1      10.619   1.094  24.485  0.00  0.00    +0.012 A 
ATOM      7  C   UNL     1      10.464  -0.303  24.434  0.00  0.00    +0.046 A 
BRANCH   5   8
ATOM      8  C   UNL     1      10.382   3.401  23.469  0.00  0.00    -0.018 A 
ATOM      9  C   UNL     1       9.203   4.136  23.709  0.00  0.00    +0.008 A 
ATOM     10  C   UNL     1       9.220   5.525  23.882  0.00  0.00    +0.001 A 
ATOM     11  C   UNL     1      10.423   6.218  23.822  0.00  0.00    +0.000 A 
ATOM     12  C   UNL     1      11.603   5.525  23.569  0.00  0.00    +0.001 A 
ATOM     13  C   UNL     1      11.579   4.135  23.386  0.00  0.00    +0.008 A 
ENDBRANCH   5   8
ENDBRANCH   1   2
BRANCH   1  14
ATOM     14  C   UNL     1       8.501  -2.779  23.549  0.00  0.00    +0.285 C 
BRANCH  14  15
ATOM     15  C   UNL     1       8.975  -3.705  24.680  0.00  0.00    +0.346 C 
ATOM     16  O   UNL     1       9.675  -4.700  24.561  0.00  0.00    -0.247 OA
BRANCH  15  17
ATOM     17  O   UNL     1       8.541  -3.291  25.902  0.00  0.00    -0.478 OA
ATOM     18  H   UNL     1       8.431  -4.053  26.508  0.00  0.00    +0.295 HD
ENDBRANCH  15  17
ENDBRANCH  14  15
BRANCH  14  19
ATOM     19  C   UNL     1       7.721  -3.570  22.484  0.00  0.00    +0.091 C 
BRANCH  19  20
ATOM     20  C   UNL     1       6.417  -4.167  22.981  0.00  0.00    -0.043 A 
ATOM     21  C   UNL     1       6.210  -5.552  22.919  0.00  0.00    +0.004 A 
ATOM     22  C   UNL     1       5.025  -6.121  23.389  0.00  0.00    +0.000 A 
ATOM     23  C   UNL     1       4.029  -5.314  23.929  0.00  0.00    +0.000 A 
ATOM     24  C   UNL     1       4.215  -3.934  23.991  0.00  0.00    +0.000 A 
ATOM     25  C   UNL     1       5.399  -3.360  23.514  0.00  0.00    +0.004 A 
ENDBRANCH  19  20
ENDBRANCH  14  19
ENDBRANCH   1  14
TORSDOF 7
ENDMDL
MODEL 4
REMARK VINA RESULT:      -6.7      1.354      2.090
REMARK  Name = 
REMARK  7 active torsions:
REMARK  status: ('A' for Active; 'I' for Inactive)
REMARK    1  A    between atoms: C_2  and  C_3
REMARK    2  A    between atoms: C_2  and  O_10
REMARK    3  A    between atoms: C_2  and  C_23
REMARK    4  A    between atoms: C_3  and  C_4
REMARK    5  A    between atoms: O_10  and  C_11
REMARK    6  A    between atoms: C_14  and  C_17
REMARK    7  A    between atoms: C_23  and  O_24
REMARK                            x       y       z     vdW  Elec       q    Type
REMARK                         _______ _______ _______ _____ _____    ______ ____
ROOT
ATOM      1  O   UNL     1       8.302  -3.668  25.701  0.00  0.00    -0.477 OA
ENDROOT
BRANCH   1   2
ATOM      2  C   UNL     1       8.651  -2.362  25.538  0.00  0.00    +0.122 A 
ATOM      3  C   UNL     1       9.280  -2.074  24.328  0.00  0.00    +0.046 A 
ATOM      4  C   UNL     1       9.621  -0.759  23.991  0.00  0.00    +0.012 A 
ATOM      5  C   UNL     1       9.341   0.312  24.855  0.00  0.00    -0.018 A 
ATOM      6  C   UNL     1       8.790  -0.018  26.110  0.00  0.00    +0.012 A 
ATOM      7  C   UNL     1       8.455  -1.340  26.456  0.00  0.00    +0.046 A 
BRANCH   5   8
ATOM      8  C   UNL     1       9.558   1.723  24.440  0.00  0.00    -0.018 A 
ATOM      9  C   UNL     1       8.662   2.742  24.822  0.00  0.00    +0.008 A 
ATOM     10  C   UNL     1       8.893   4.086  24.506  0.00  0.00    +0.001 A 
ATOM     11  C   UNL     1      10.033   4.448  23.800  0.00  0.00    +0.000 A 
ATOM     12  C   UNL     1      10.930   3.464  23.393  0.00  0.00    +0.001 A 
ATOM     13  C   UNL     1      10.689   2.118  23.703  0.00  0.00    +0.008 A 
ENDBRANCH   5   8
ENDBRANCH   1   2
BRANCH   1  14
ATOM     14  C   UNL     1       7.201  -4.024  26.564  0.00  0.00    +0.285 C 
BRANCH  14  15
ATOM     15  C   UNL     1       7.655  -5.401  27.074  0.00  0.00    +0.346 C 
ATOM     16  O   UNL     1       7.203  -6.006  28.034  0.00  0.00    -0.247 OA
BRANCH  15  17
ATOM     17  O   UNL     1       8.649  -5.932  26.311  0.00  0.00    -0.478 OA
ATOM     18  H   UNL     1       9.520  -5.567  26.572  0.00  0.00    +0.295 HD
ENDBRANCH  15  17
ENDBRANCH  14  15
BRANCH  14  19
ATOM     19  C   UNL     1       5.838  -4.124  25.857  0.00  0.00    +0.091 C 
BRANCH  19  20
ATOM     20  C   UNL     1       5.925  -4.213  24.344  0.00  0.00    -0.043 A 
ATOM     21  C   UNL     1       5.670  -3.080  23.559  0.00  0.00    +0.004 A 
ATOM     22  C   UNL     1       5.764  -3.136  22.168  0.00  0.00    +0.000 A 
ATOM     23  C   UNL     1       6.114  -4.328  21.539  0.00  0.00    +0.000 A 
ATOM     24  C   UNL     1       6.364  -5.465  22.305  0.00  0.00    +0.000 A 
ATOM     25  C   UNL     1       6.263  -5.413  23.700  0.00  0.00    +0.004 A 
ENDBRANCH  19  20
ENDBRANCH  14  19
ENDBRANCH   1  14
TORSDOF 7
ENDMDL
MODEL 5
REMARK VINA RESULT:      -6.6      4.602      8.096
REMARK  Name = 
REMARK  7 active torsions:
REMARK  status: ('A' for Active; 'I' for Inactive)
REMARK    1  A    between atoms: C_2  and  C_3
REMARK    2  A    between atoms: C_2  and  O_10
REMARK    3  A    between atoms: C_2  and  C_23
REMARK    4  A    between atoms: C_3  and  C_4
REMARK    5  A    between atoms: O_10  and  C_11
REMARK    6  A    between atoms: C_14  and  C_17
REMARK    7  A    between atoms: C_23  and  O_24
REMARK                            x       y       z     vdW  Elec       q    Type
REMARK                         _______ _______ _______ _____ _____    ______ ____
ROOT
ATOM      1  O   UNL     1      11.017   3.178  23.635  0.00  0.00    -0.477 OA
ENDROOT
BRANCH   1   2
ATOM      2  C   UNL     1      10.579   1.912  23.393  0.00  0.00    +0.122 A 
ATOM      3  C   UNL     1      10.677   1.044  24.480  0.00  0.00    +0.046 A 
ATOM      4  C   UNL     1      10.188  -0.265  24.400  0.00  0.00    +0.012 A 
ATOM      5  C   UNL     1       9.583  -0.748  23.229  0.00  0.00    -0.018 A 
ATOM      6  C   UNL     1       9.580   0.119  22.117  0.00  0.00    +0.012 A 
ATOM      7  C   UNL     1      10.079   1.432  22.191  0.00  0.00    +0.046 A 
BRANCH   5   8
ATOM      8  C   UNL     1       8.925  -2.080  23.187  0.00  0.00    -0.018 A 
ATOM      9  C   UNL     1       9.225  -3.073  24.142  0.00  0.00    +0.008 A 
ATOM     10  C   UNL     1       8.558  -4.304  24.163  0.00  0.00    +0.001 A 
ATOM     11  C   UNL     1       7.567  -4.574  23.228  0.00  0.00    +0.000 A 
ATOM     12  C   UNL     1       7.258  -3.622  22.261  0.00  0.00    +0.001 A 
ATOM     13  C   UNL     1       7.936  -2.395  22.237  0.00  0.00    +0.008 A 
ENDBRANCH   5   8
ENDBRANCH   1   2
BRANCH   1  14
ATOM     14  C   UNL     1      10.121   4.299  23.486  0.00  0.00    +0.285 C 
BRANCH  14  15
ATOM     15  C   UNL     1      11.099   5.480  23.594  0.00  0.00    +0.346 C 
ATOM     16  O   UNL     1      11.092   6.355  24.446  0.00  0.00    -0.247 OA
BRANCH  15  17
ATOM     17  O   UNL     1      12.043   5.459  22.613  0.00  0.00    -0.478 OA
ATOM     18  H   UNL     1      12.681   4.729  22.760  0.00  0.00    +0.295 HD
ENDBRANCH  15  17
ENDBRANCH  14  15
BRANCH  14  19
ATOM     19  C   UNL     1       9.027   4.394  24.564  0.00  0.00    +0.091 C 
BRANCH  19  20
ATOM     20  C   UNL     1       7.923   3.363  24.424  0.00  0.00    -0.043 A 
ATOM     21  C   UNL     1       7.199   3.268  23.227  0.00  0.00    +0.004 A 
ATOM     22  C   UNL     1       6.193   2.313  23.072  0.00  0.00    +0.000 A 
ATOM     23  C   UNL     1       5.894   1.438  24.112  0.00  0.00    +0.000 A 
ATOM     24  C   UNL     1       6.599   1.524  25.311  0.00  0.00    +0.000 A 
ATOM     25  C   UNL     1       7.603   2.485  25.472  0.00  0.00    +0.004 A 
ENDBRANCH  19  20
ENDBRANCH  14  19
ENDBRANCH   1  14
TORSDOF 7
ENDMDL
MODEL 6
REMARK VINA RESULT:      -6.6      2.637      4.647
REMARK  Name = 
REMARK  7 active torsions:
REMARK  status: ('A' for Active; 'I' for Inactive)
REMARK    1  A    between atoms: C_2  and  C_3
REMARK    2  A    between atoms: C_2  and  O_10
REMARK    3  A    between atoms: C_2  and  C_23
REMARK    4  A    between atoms: C_3  and  C_4
REMARK    5  A    between atoms: O_10  and  C_11
REMARK    6  A    between atoms: C_14  and  C_17
REMARK    7  A    between atoms: C_23  and  O_24
REMARK                            x       y       z     vdW  Elec       q    Type
REMARK                         _______ _______ _______ _____ _____    ______ ____
ROOT
ATOM      1  O   UNL     1       9.484  -2.447  23.539  0.00  0.00    -0.477 OA
ENDROOT
BRANCH   1   2
ATOM      2  C   UNL     1       9.811  -1.130  23.638  0.00  0.00    +0.122 A 
ATOM      3  C   UNL     1       9.776  -0.429  22.433  0.00  0.00    +0.046 A 
ATOM      4  C   UNL     1      10.010   0.950  22.397  0.00  0.00    +0.012 A 
ATOM      5  C   UNL     1      10.285   1.675  23.569  0.00  0.00    -0.018 A 
ATOM      6  C   UNL     1      10.406   0.927  24.758  0.00  0.00    +0.012 A 
ATOM      7  C   UNL     1      10.181  -0.461  24.796  0.00  0.00    +0.046 A 
BRANCH   5   8
ATOM      8  C   UNL     1      10.382   3.158  23.561  0.00  0.00    -0.018 A 
ATOM      9  C   UNL     1       9.256   3.964  23.827  0.00  0.00    +0.008 A 
ATOM     10  C   UNL     1       9.346   5.359  23.901  0.00  0.00    +0.001 A 
ATOM     11  C   UNL     1      10.571   5.987  23.712  0.00  0.00    +0.000 A 
ATOM     12  C   UNL     1      11.698   5.222  23.431  0.00  0.00    +0.001 A 
ATOM     13  C   UNL     1      11.601   3.826  23.348  0.00  0.00    +0.008 A 
ENDBRANCH   5   8
ENDBRANCH   1   2
BRANCH   1  14
ATOM     14  C   UNL     1       8.361  -2.975  24.277  0.00  0.00    +0.285 C 
BRANCH  14  15
ATOM     15  C   UNL     1       8.410  -4.458  23.874  0.00  0.00    +0.346 C 
ATOM     16  O   UNL     1       9.103  -5.327  24.380  0.00  0.00    -0.247 OA
BRANCH  15  17
ATOM     17  O   UNL     1       7.551  -4.745  22.858  0.00  0.00    -0.478 OA
ATOM     18  H   UNL     1       7.208  -5.659  22.940  0.00  0.00    +0.295 HD
ENDBRANCH  15  17
ENDBRANCH  14  15
BRANCH  14  19
ATOM     19  C   UNL     1       7.002  -2.353  23.911  0.00  0.00    +0.091 C 
BRANCH  19  20
ATOM     20  C   UNL     1       6.764  -0.979  24.512  0.00  0.00    -0.043 A 
ATOM     21  C   UNL     1       6.812  -0.804  25.903  0.00  0.00    +0.004 A 
ATOM     22  C   UNL     1       6.614   0.454  26.473  0.00  0.00    +0.000 A 
ATOM     23  C   UNL     1       6.367   1.558  25.662  0.00  0.00    +0.000 A 
ATOM     24  C   UNL     1       6.309   1.399  24.278  0.00  0.00    +0.000 A 
ATOM     25  C   UNL     1       6.499   0.137  23.704  0.00  0.00    +0.004 A 
ENDBRANCH  19  20
ENDBRANCH  14  19
ENDBRANCH   1  14
TORSDOF 7
ENDMDL
MODEL 7
REMARK VINA RESULT:      -6.6      2.046      3.261
REMARK  Name = 
REMARK  7 active torsions:
REMARK  status: ('A' for Active; 'I' for Inactive)
REMARK    1  A    between atoms: C_2  and  C_3
REMARK    2  A    between atoms: C_2  and  O_10
REMARK    3  A    between atoms: C_2  and  C_23
REMARK    4  A    between atoms: C_3  and  C_4
REMARK    5  A    between atoms: O_10  and  C_11
REMARK    6  A    between atoms: C_14  and  C_17
REMARK    7  A    between atoms: C_23  and  O_24
REMARK                            x       y       z     vdW  Elec       q    Type
REMARK                         _______ _______ _______ _____ _____    ______ ____
ROOT
ATOM      1  O   UNL     1       9.753  -3.264  24.039  0.00  0.00    -0.477 OA
ENDROOT
BRANCH   1   2
ATOM      2  C   UNL     1       9.542  -1.965  23.692  0.00  0.00    +0.122 A 
ATOM      3  C   UNL     1       8.514  -1.335  24.391  0.00  0.00    +0.046 A 
ATOM      4  C   UNL     1       8.240   0.024  24.196  0.00  0.00    +0.012 A 
ATOM      5  C   UNL     1       8.989   0.797  23.294  0.00  0.00    -0.018 A 
ATOM      6  C   UNL     1       9.960   0.114  22.533  0.00  0.00    +0.012 A 
ATOM      7  C   UNL     1      10.231  -1.253  22.720  0.00  0.00    +0.046 A 
BRANCH   5   8
ATOM      8  C   UNL     1       8.807   2.269  23.194  0.00  0.00    -0.018 A 
ATOM      9  C   UNL     1       7.739   2.824  22.459  0.00  0.00    +0.008 A 
ATOM     10  C   UNL     1       7.508   4.205  22.420  0.00  0.00    +0.001 A 
ATOM     11  C   UNL     1       8.340   5.069  23.120  0.00  0.00    +0.000 A 
ATOM     12  C   UNL     1       9.413   4.554  23.842  0.00  0.00    +0.001 A 
ATOM     13  C   UNL     1       9.646   3.172  23.870  0.00  0.00    +0.008 A 
ENDBRANCH   5   8
ENDBRANCH   1   2
BRANCH   1  14
ATOM     14  C   UNL     1       8.683  -4.049  24.605  0.00  0.00    +0.285 C 
BRANCH  14  15
ATOM     15  C   UNL     1       9.412  -4.765  25.754  0.00  0.00    +0.346 C 
ATOM     16  O   UNL     1       9.153  -4.680  26.945  0.00  0.00    -0.247 OA
BRANCH  15  17
ATOM     17  O   UNL     1      10.420  -5.563  25.307  0.00  0.00    -0.478 OA
ATOM     18  H   UNL     1      10.335  -6.468  25.672  0.00  0.00    +0.295 HD
ENDBRANCH  15  17
ENDBRANCH  14  15
BRANCH  14  19
ATOM     19  C   UNL     1       8.052  -5.067  23.639  0.00  0.00    +0.091 C 
BRANCH  19  20
ATOM     20  C   UNL     1       6.538  -4.990  23.554  0.00  0.00    -0.043 A 
ATOM     21  C   UNL     1       5.864  -3.863  24.047  0.00  0.00    +0.004 A 
ATOM     22  C   UNL     1       4.475  -3.766  23.961  0.00  0.00    +0.000 A 
ATOM     23  C   UNL     1       3.737  -4.793  23.380  0.00  0.00    +0.000 A 
ATOM     24  C   UNL     1       4.390  -5.922  22.892  0.00  0.00    +0.000 A 
ATOM     25  C   UNL     1       5.783  -6.027  22.984  0.00  0.00    +0.004 A 
ENDBRANCH  19  20
ENDBRANCH  14  19
ENDBRANCH   1  14
TORSDOF 7
ENDMDL
MODEL 8
REMARK VINA RESULT:      -6.5      1.885      3.334
REMARK  Name = 
REMARK  7 active torsions:
REMARK  status: ('A' for Active; 'I' for Inactive)
REMARK    1  A    between atoms: C_2  and  C_3
REMARK    2  A    between atoms: C_2  and  O_10
REMARK    3  A    between atoms: C_2  and  C_23
REMARK    4  A    between atoms: C_3  and  C_4
REMARK    5  A    between atoms: O_10  and  C_11
REMARK    6  A    between atoms: C_14  and  C_17
REMARK    7  A    between atoms: C_23  and  O_24
REMARK                            x       y       z     vdW  Elec       q    Type
REMARK                         _______ _______ _______ _____ _____    ______ ____
ROOT
ATOM      1  O   UNL     1       8.966  -2.725  24.276  0.00  0.00    -0.477 OA
ENDROOT
BRANCH   1   2
ATOM      2  C   UNL     1       9.214  -1.389  24.355  0.00  0.00    +0.122 A 
ATOM      3  C   UNL     1      10.171  -0.919  23.456  0.00  0.00    +0.046 A 
ATOM      4  C   UNL     1      10.466   0.446  23.370  0.00  0.00    +0.012 A 
ATOM      5  C   UNL     1       9.812   1.387  24.182  0.00  0.00    -0.018 A 
ATOM      6  C   UNL     1       8.918   0.876  25.145  0.00  0.00    +0.012 A 
ATOM      7  C   UNL     1       8.626  -0.497  25.240  0.00  0.00    +0.046 A 
BRANCH   5   8
ATOM      8  C   UNL     1      10.008   2.848  23.990  0.00  0.00    -0.018 A 
ATOM      9  C   UNL     1       9.019   3.774  24.380  0.00  0.00    +0.008 A 
ATOM     10  C   UNL     1       9.219   5.156  24.278  0.00  0.00    +0.001 A 
ATOM     11  C   UNL     1      10.420   5.650  23.785  0.00  0.00    +0.000 A 
ATOM     12  C   UNL     1      11.410   4.762  23.375  0.00  0.00    +0.001 A 
ATOM     13  C   UNL     1      11.201   3.380  23.469  0.00  0.00    +0.008 A 
ENDBRANCH   5   8
ENDBRANCH   1   2
BRANCH   1  14
ATOM     14  C   UNL     1       8.348  -3.417  25.381  0.00  0.00    +0.285 C 
BRANCH  14  15
ATOM     15  C   UNL     1       9.337  -4.573  25.600  0.00  0.00    +0.346 C 
ATOM     16  O   UNL     1      10.271  -4.880  24.874  0.00  0.00    -0.247 OA
BRANCH  15  17
ATOM     17  O   UNL     1       9.084  -5.258  26.749  0.00  0.00    -0.478 OA
ATOM     18  H   UNL     1       8.470  -6.002  26.582  0.00  0.00    +0.295 HD
ENDBRANCH  15  17
ENDBRANCH  14  15
BRANCH  14  19
ATOM     19  C   UNL     1       6.935  -3.953  25.094  0.00  0.00    +0.091 C 
BRANCH  19  20
ATOM     20  C   UNL     1       6.698  -4.341  23.646  0.00  0.00    -0.043 A 
ATOM     21  C   UNL     1       7.112  -5.598  23.179  0.00  0.00    +0.004 A 
ATOM     22  C   UNL     1       6.885  -5.981  21.856  0.00  0.00    +0.000 A 
ATOM     23  C   UNL     1       6.241  -5.114  20.978  0.00  0.00    +0.000 A 
ATOM     24  C   UNL     1       5.830  -3.859  21.424  0.00  0.00    +0.000 A 
ATOM     25  C   UNL     1       6.063  -3.469  22.748  0.00  0.00    +0.004 A 
ENDBRANCH  19  20
ENDBRANCH  14  19
ENDBRANCH   1  14
TORSDOF 7
ENDMDL
MODEL 9
REMARK VINA RESULT:      -6.3      1.472      2.070
REMARK  Name = 
REMARK  7 active torsions:
REMARK  status: ('A' for Active; 'I' for Inactive)
REMARK    1  A    between atoms: C_2  and  C_3
REMARK    2  A    between atoms: C_2  and  O_10
REMARK    3  A    between atoms: C_2  and  C_23
REMARK    4  A    between atoms: C_3  and  C_4
REMARK    5  A    between atoms: O_10  and  C_11
REMARK    6  A    between atoms: C_14  and  C_17
REMARK    7  A    between atoms: C_23  and  O_24
REMARK                            x       y       z     vdW  Elec       q    Type
REMARK                         _______ _______ _______ _____ _____    ______ ____
ROOT
ATOM      1  O   UNL     1       6.309  -3.436  27.194  0.00  0.00    -0.477 OA
ENDROOT
BRANCH   1   2
ATOM      2  C   UNL     1       6.763  -2.440  26.385  0.00  0.00    +0.122 A 
ATOM      3  C   UNL     1       8.025  -1.949  26.717  0.00  0.00    +0.046 A 
ATOM      4  C   UNL     1       8.650  -0.980  25.923  0.00  0.00    +0.012 A 
ATOM      5  C   UNL     1       8.032  -0.472  24.769  0.00  0.00    -0.018 A 
ATOM      6  C   UNL     1       6.719  -0.917  24.509  0.00  0.00    +0.012 A 
ATOM      7  C   UNL     1       6.085  -1.883  25.310  0.00  0.00    +0.046 A 
BRANCH   5   8
ATOM      8  C   UNL     1       8.750   0.439  23.840  0.00  0.00    -0.018 A 
ATOM      9  C   UNL     1       9.638   1.422  24.322  0.00  0.00    +0.008 A 
ATOM     10  C   UNL     1      10.381   2.235  23.458  0.00  0.00    +0.001 A 
ATOM     11  C   UNL     1      10.258   2.083  22.083  0.00  0.00    +0.000 A 
ATOM     12  C   UNL     1       9.378   1.133  21.574  0.00  0.00    +0.001 A 
ATOM     13  C   UNL     1       8.628   0.328  22.443  0.00  0.00    +0.008 A 
ENDBRANCH   5   8
ENDBRANCH   1   2
BRANCH   1  14
ATOM     14  C   UNL     1       6.186  -4.783  26.690  0.00  0.00    +0.285 C 
BRANCH  14  15
ATOM     15  C   UNL     1       6.289  -5.598  27.989  0.00  0.00    +0.346 C 
ATOM     16  O   UNL     1       5.444  -5.674  28.869  0.00  0.00    -0.247 OA
BRANCH  15  17
ATOM     17  O   UNL     1       7.460  -6.286  28.076  0.00  0.00    -0.478 OA
ATOM     18  H   UNL     1       7.851  -6.420  27.188  0.00  0.00    +0.295 HD
ENDBRANCH  15  17
ENDBRANCH  14  15
BRANCH  14  19
ATOM     19  C   UNL     1       7.283  -5.199  25.695  0.00  0.00    +0.091 C 
BRANCH  19  20
ATOM     20  C   UNL     1       6.797  -5.365  24.266  0.00  0.00    -0.043 A 
ATOM     21  C   UNL     1       5.454  -5.678  24.014  0.00  0.00    +0.004 A 
ATOM     22  C   UNL     1       4.984  -5.816  22.707  0.00  0.00    +0.000 A 
ATOM     23  C   UNL     1       5.850  -5.643  21.631  0.00  0.00    +0.000 A 
ATOM     24  C   UNL     1       7.190  -5.340  21.865  0.00  0.00    +0.000 A 
ATOM     25  C   UNL     1       7.666  -5.209  23.175  0.00  0.00    +0.004 A 
ENDBRANCH  19  20
ENDBRANCH  14  19
ENDBRANCH   1  14
TORSDOF 7
ENDMDL
