MODEL 1
REMARK VINA RESULT:      -7.6      0.000      0.000
REMARK  Name = 
REMARK  3 active torsions:
REMARK  status: ('A' for Active; 'I' for Inactive)
REMARK    1  A    between atoms: C_4  and  O_14
REMARK    2  A    between atoms: O_14  and  C_15
REMARK    3  A    between atoms: C_15  and  C_17
REMARK                            x       y       z     vdW  Elec       q    Type
REMARK                         _______ _______ _______ _____ _____    ______ ____
ROOT
ATOM      1  O   UNL     1       7.664  -2.458  26.206  0.00  0.00    -0.458 OA
ENDROOT
BRANCH   1  10
ATOM      2  C   UNL     1       8.312  -3.705  23.487  0.00  0.00    +0.062 C 
ATOM      3  N   UNL     1       7.826  -5.118  23.611  0.00  0.00    -0.289 NA
ATOM      4  C   UNL     1       6.708  -4.968  24.546  0.00  0.00    +0.062 C 
ATOM      5  C   UNL     1       5.742  -3.891  23.847  0.00  0.00    +0.030 C 
ATOM      6  C   UNL     1       6.256  -3.503  22.344  0.00  0.00    +0.059 C 
ATOM      7  C   UNL     1       6.382  -4.826  21.641  0.00  0.00    +0.150 C 
ATOM      8  O   UNL     1       5.852  -5.077  20.565  0.00  0.00    -0.296 OA
ATOM      9  C   UNL     1       7.495  -4.755  25.889  0.00  0.00    +0.063 C 
ATOM     10  C   UNL     1       8.533  -3.586  25.921  0.00  0.00    +0.180 C 
ATOM     11  C   UNL     1       7.314  -5.775  22.375  0.00  0.00    +0.159 C 
ATOM     12  C   UNL     1       7.757  -3.009  22.273  0.00  0.00    +0.030 C 
ATOM     13  C   UNL     1       9.335  -3.417  24.562  0.00  0.00    +0.063 C 
ENDBRANCH   1  10
BRANCH   1  14
ATOM     14  C   UNL     1       8.159  -1.205  26.125  0.00  0.00    +0.341 C 
ATOM     15  O   UNL     1       9.018  -0.757  26.873  0.00  0.00    -0.245 OA
BRANCH  14  16
ATOM     16  C   UNL     1       7.552  -0.457  25.034  0.00  0.00    +0.084 A 
ATOM     17  C   UNL     1       8.231   0.142  23.935  0.00  0.00    +0.014 A 
ATOM     18  C   UNL     1       7.280   0.814  23.163  0.00  0.00    +0.047 A 
ATOM     19  C   UNL     1       7.618   1.535  22.011  0.00  0.00    +0.026 A 
ATOM     20  C   UNL     1       8.964   1.558  21.634  0.00  0.00    +0.002 A 
ATOM     21  C   UNL     1       9.933   0.886  22.375  0.00  0.00    +0.001 A 
ATOM     22  N   UNL     1       6.054   0.614  23.760  0.00  0.00    -0.360 N 
ATOM     23  H   UNL     1       5.184   0.987  23.418  0.00  0.00    +0.165 HD
ATOM     24  C   UNL     1       9.579   0.177  23.525  0.00  0.00    +0.011 A 
ATOM     25  C   UNL     1       6.208  -0.149  24.883  0.00  0.00    +0.098 A 
ENDBRANCH  14  16
ENDBRANCH   1  14
TORSDOF 3
ENDMDL
MODEL 2
REMARK VINA RESULT:      -7.1      2.180      6.252
REMARK  Name = 
REMARK  3 active torsions:
REMARK  status: ('A' for Active; 'I' for Inactive)
REMARK    1  A    between atoms: C_4  and  O_14
REMARK    2  A    between atoms: O_14  and  C_15
REMARK    3  A    between atoms: C_15  and  C_17
REMARK                            x       y       z     vdW  Elec       q    Type
REMARK                         _______ _______ _______ _____ _____    ______ ____
ROOT
ATOM      1  O   UNL     1       8.637  -2.764  24.443  0.00  0.00    -0.458 OA
ENDROOT
BRANCH   1  10
ATOM      2  C   UNL     1       9.939  -0.309  23.162  0.00  0.00    +0.062 C 
ATOM      3  N   UNL     1       8.793   0.419  22.526  0.00  0.00    -0.289 NA
ATOM      4  C   UNL     1       7.684   0.064  23.416  0.00  0.00    +0.062 C 
ATOM      5  C   UNL     1       8.170   0.539  24.872  0.00  0.00    +0.030 C 
ATOM      6  C   UNL     1       9.586   1.354  24.801  0.00  0.00    +0.059 C 
ATOM      7  C   UNL     1       9.334   2.450  23.803  0.00  0.00    +0.150 C 
ATOM      8  O   UNL     1       9.544   3.637  24.030  0.00  0.00    -0.296 OA
ATOM      9  C   UNL     1       7.437  -1.422  22.973  0.00  0.00    +0.063 C 
ATOM     10  C   UNL     1       8.661  -2.392  23.040  0.00  0.00    +0.180 C 
ATOM     11  C   UNL     1       8.880   1.906  22.460  0.00  0.00    +0.159 C 
ATOM     12  C   UNL     1      10.752   0.577  24.068  0.00  0.00    +0.030 C 
ATOM     13  C   UNL     1      10.028  -1.711  22.607  0.00  0.00    +0.063 C 
ENDBRANCH   1  10
BRANCH   1  14
ATOM     14  C   UNL     1       9.061  -3.992  24.808  0.00  0.00    +0.341 C 
ATOM     15  O   UNL     1      10.202  -4.403  24.642  0.00  0.00    -0.245 OA
BRANCH  14  16
ATOM     16  C   UNL     1       7.996  -4.764  25.433  0.00  0.00    +0.084 A 
ATOM     17  C   UNL     1       6.825  -5.266  24.796  0.00  0.00    +0.014 A 
ATOM     18  C   UNL     1       6.045  -5.889  25.772  0.00  0.00    +0.047 A 
ATOM     19  C   UNL     1       4.804  -6.473  25.485  0.00  0.00    +0.026 A 
ATOM     20  C   UNL     1       4.359  -6.427  24.160  0.00  0.00    +0.002 A 
ATOM     21  C   UNL     1       5.122  -5.826  23.163  0.00  0.00    +0.001 A 
ATOM     22  N   UNL     1       6.727  -5.791  26.966  0.00  0.00    -0.360 N 
ATOM     23  H   UNL     1       6.397  -6.153  27.844  0.00  0.00    +0.165 HD
ATOM     24  C   UNL     1       6.353  -5.242  23.468  0.00  0.00    +0.011 A 
ATOM     25  C   UNL     1       7.900  -5.119  26.771  0.00  0.00    +0.098 A 
ENDBRANCH  14  16
ENDBRANCH   1  14
TORSDOF 3
ENDMDL
MODEL 3
REMARK VINA RESULT:      -7.1      1.566      2.298
REMARK  Name = 
REMARK  3 active torsions:
REMARK  status: ('A' for Active; 'I' for Inactive)
REMARK    1  A    between atoms: C_4  and  O_14
REMARK    2  A    between atoms: O_14  and  C_15
REMARK    3  A    between atoms: C_15  and  C_17
REMARK                            x       y       z     vdW  Elec       q    Type
REMARK                         _______ _______ _______ _____ _____    ______ ____
ROOT
ATOM      1  O   UNL     1       6.747  -1.898  25.554  0.00  0.00    -0.458 OA
ENDROOT
BRANCH   1  10
ATOM      2  C   UNL     1       6.782  -4.661  24.237  0.00  0.00    +0.062 C 
ATOM      3  N   UNL     1       5.342  -4.925  23.910  0.00  0.00    -0.289 NA
ATOM      4  C   UNL     1       4.836  -3.569  23.678  0.00  0.00    +0.062 C 
ATOM      5  C   UNL     1       5.781  -2.981  22.520  0.00  0.00    +0.030 C 
ATOM      6  C   UNL     1       6.805  -4.116  21.939  0.00  0.00    +0.059 C 
ATOM      7  C   UNL     1       5.909  -5.255  21.539  0.00  0.00    +0.150 C 
ATOM      8  O   UNL     1       5.923  -5.773  20.429  0.00  0.00    -0.296 OA
ATOM      9  C   UNL     1       4.763  -3.042  25.156  0.00  0.00    +0.063 C 
ATOM     10  C   UNL     1       6.081  -3.110  25.995  0.00  0.00    +0.180 C 
ATOM     11  C   UNL     1       5.056  -5.743  22.697  0.00  0.00    +0.159 C 
ATOM     12  C   UNL     1       7.683  -4.830  23.043  0.00  0.00    +0.030 C 
ATOM     13  C   UNL     1       6.936  -4.419  25.720  0.00  0.00    +0.063 C 
ENDBRANCH   1  10
BRANCH   1  14
ATOM     14  C   UNL     1       8.067  -1.747  25.789  0.00  0.00    +0.341 C 
ATOM     15  O   UNL     1       8.578  -1.801  26.900  0.00  0.00    -0.245 OA
BRANCH  14  16
ATOM     16  C   UNL     1       8.810  -1.520  24.558  0.00  0.00    +0.084 A 
ATOM     17  C   UNL     1       8.594  -0.474  23.617  0.00  0.00    +0.014 A 
ATOM     18  C   UNL     1       9.481  -0.668  22.555  0.00  0.00    +0.047 A 
ATOM     19  C   UNL     1       9.516   0.177  21.438  0.00  0.00    +0.026 A 
ATOM     20  C   UNL     1       8.627   1.256  21.417  0.00  0.00    +0.002 A 
ATOM     21  C   UNL     1       7.742   1.485  22.468  0.00  0.00    +0.001 A 
ATOM     22  N   UNL     1      10.231  -1.786  22.848  0.00  0.00    -0.360 N 
ATOM     23  H   UNL     1      10.951  -2.164  22.255  0.00  0.00    +0.165 HD
ATOM     24  C   UNL     1       7.716   0.627  23.569  0.00  0.00    +0.011 A 
ATOM     25  C   UNL     1       9.836  -2.304  24.049  0.00  0.00    +0.098 A 
ENDBRANCH  14  16
ENDBRANCH   1  14
TORSDOF 3
ENDMDL
MODEL 4
REMARK VINA RESULT:      -7.1      2.329      3.806
REMARK  Name = 
REMARK  3 active torsions:
REMARK  status: ('A' for Active; 'I' for Inactive)
REMARK    1  A    between atoms: C_4  and  O_14
REMARK    2  A    between atoms: O_14  and  C_15
REMARK    3  A    between atoms: C_15  and  C_17
REMARK                            x       y       z     vdW  Elec       q    Type
REMARK                         _______ _______ _______ _____ _____    ______ ____
ROOT
ATOM      1  O   UNL     1       8.878  -2.269  22.739  0.00  0.00    -0.458 OA
ENDROOT
BRANCH   1  10
ATOM      2  C   UNL     1       7.072  -3.114  25.061  0.00  0.00    +0.062 C 
ATOM      3  N   UNL     1       6.632  -4.499  24.692  0.00  0.00    -0.289 NA
ATOM      4  C   UNL     1       7.781  -4.982  23.922  0.00  0.00    +0.062 C 
ATOM      5  C   UNL     1       9.029  -4.823  24.922  0.00  0.00    +0.030 C 
ATOM      6  C   UNL     1       8.553  -4.359  26.416  0.00  0.00    +0.059 C 
ATOM      7  C   UNL     1       7.521  -5.379  26.810  0.00  0.00    +0.150 C 
ATOM      8  O   UNL     1       7.562  -6.016  27.857  0.00  0.00    -0.296 OA
ATOM      9  C   UNL     1       7.574  -4.187  22.584  0.00  0.00    +0.063 C 
ATOM     10  C   UNL     1       7.473  -2.630  22.697  0.00  0.00    +0.180 C 
ATOM     11  C   UNL     1       6.383  -5.456  25.808  0.00  0.00    +0.159 C 
ATOM     12  C   UNL     1       7.669  -3.048  26.442  0.00  0.00    +0.030 C 
ATOM     13  C   UNL     1       6.672  -2.142  23.976  0.00  0.00    +0.063 C 
ENDBRANCH   1  10
BRANCH   1  14
ATOM     14  C   UNL     1       9.285  -1.125  22.149  0.00  0.00    +0.341 C 
ATOM     15  O   UNL     1       9.479  -1.004  20.947  0.00  0.00    -0.245 OA
BRANCH  14  16
ATOM     16  C   UNL     1       9.454  -0.052  23.117  0.00  0.00    +0.084 A 
ATOM     17  C   UNL     1       8.924   1.266  23.025  0.00  0.00    +0.014 A 
ATOM     18  C   UNL     1       9.381   1.987  24.131  0.00  0.00    +0.047 A 
ATOM     19  C   UNL     1       9.062   3.335  24.337  0.00  0.00    +0.026 A 
ATOM     20  C   UNL     1       8.241   3.956  23.390  0.00  0.00    +0.002 A 
ATOM     21  C   UNL     1       7.757   3.260  22.286  0.00  0.00    +0.001 A 
ATOM     22  N   UNL     1      10.151   1.130  24.888  0.00  0.00    -0.360 N 
ATOM     23  H   UNL     1      10.613   1.382  25.745  0.00  0.00    +0.165 HD
ATOM     24  C   UNL     1       8.092   1.918  22.093  0.00  0.00    +0.011 A 
ATOM     25  C   UNL     1      10.199  -0.096  24.288  0.00  0.00    +0.098 A 
ENDBRANCH  14  16
ENDBRANCH   1  14
TORSDOF 3
ENDMDL
MODEL 5
REMARK VINA RESULT:      -6.9      2.273      3.178
REMARK  Name = 
REMARK  3 active torsions:
REMARK  status: ('A' for Active; 'I' for Inactive)
REMARK    1  A    between atoms: C_4  and  O_14
REMARK    2  A    between atoms: O_14  and  C_15
REMARK    3  A    between atoms: C_15  and  C_17
REMARK                            x       y       z     vdW  Elec       q    Type
REMARK                         _______ _______ _______ _____ _____    ______ ____
ROOT
ATOM      1  O   UNL     1       7.897  -3.401  24.177  0.00  0.00    -0.458 OA
ENDROOT
BRANCH   1  10
ATOM      2  C   UNL     1       4.942  -3.705  23.442  0.00  0.00    +0.062 C 
ATOM      3  N   UNL     1       4.870  -5.048  22.778  0.00  0.00    -0.289 NA
ATOM      4  C   UNL     1       5.945  -5.775  23.459  0.00  0.00    +0.062 C 
ATOM      5  C   UNL     1       5.569  -5.678  25.018  0.00  0.00    +0.030 C 
ATOM      6  C   UNL     1       4.108  -4.980  25.246  0.00  0.00    +0.059 C 
ATOM      7  C   UNL     1       3.172  -5.790  24.395  0.00  0.00    +0.150 C 
ATOM      8  O   UNL     1       2.139  -6.300  24.816  0.00  0.00    -0.296 OA
ATOM      9  C   UNL     1       7.199  -5.120  22.778  0.00  0.00    +0.063 C 
ATOM     10  C   UNL     1       7.314  -3.563  22.858  0.00  0.00    +0.180 C 
ATOM     11  C   UNL     1       3.607  -5.823  22.941  0.00  0.00    +0.159 C 
ATOM     12  C   UNL     1       3.948  -3.563  24.562  0.00  0.00    +0.030 C 
ATOM     13  C   UNL     1       5.920  -2.820  22.705  0.00  0.00    +0.063 C 
ENDBRANCH   1  10
BRANCH   1  14
ATOM     14  C   UNL     1       9.169  -2.964  24.289  0.00  0.00    +0.341 C 
ATOM     15  O   UNL     1      10.154  -3.681  24.176  0.00  0.00    -0.245 OA
BRANCH  14  16
ATOM     16  C   UNL     1       9.225  -1.533  24.549  0.00  0.00    +0.084 A 
ATOM     17  C   UNL     1       9.352  -0.498  23.580  0.00  0.00    +0.014 A 
ATOM     18  C   UNL     1       9.431   0.718  24.264  0.00  0.00    +0.047 A 
ATOM     19  C   UNL     1       9.587   1.944  23.606  0.00  0.00    +0.026 A 
ATOM     20  C   UNL     1       9.650   1.924  22.209  0.00  0.00    +0.002 A 
ATOM     21  C   UNL     1       9.558   0.730  21.499  0.00  0.00    +0.001 A 
ATOM     22  N   UNL     1       9.335   0.437  25.610  0.00  0.00    -0.360 N 
ATOM     23  H   UNL     1       9.364   1.126  26.342  0.00  0.00    +0.165 HD
ATOM     24  C   UNL     1       9.411  -0.484  22.172  0.00  0.00    +0.011 A 
ATOM     25  C   UNL     1       9.209  -0.912  25.790  0.00  0.00    +0.098 A 
ENDBRANCH  14  16
ENDBRANCH   1  14
TORSDOF 3
ENDMDL
MODEL 6
REMARK VINA RESULT:      -6.9      2.106      2.970
REMARK  Name = 
REMARK  3 active torsions:
REMARK  status: ('A' for Active; 'I' for Inactive)
REMARK    1  A    between atoms: C_4  and  O_14
REMARK    2  A    between atoms: O_14  and  C_15
REMARK    3  A    between atoms: C_15  and  C_17
REMARK                            x       y       z     vdW  Elec       q    Type
REMARK                         _______ _______ _______ _____ _____    ______ ____
ROOT
ATOM      1  O   UNL     1       9.031  -3.099  25.016  0.00  0.00    -0.458 OA
ENDROOT
BRANCH   1  10
ATOM      2  C   UNL     1       6.721  -5.098  24.831  0.00  0.00    +0.062 C 
ATOM      3  N   UNL     1       6.759  -5.818  26.147  0.00  0.00    -0.289 NA
ATOM      4  C   UNL     1       7.287  -4.782  27.039  0.00  0.00    +0.062 C 
ATOM      5  C   UNL     1       6.266  -3.552  26.875  0.00  0.00    +0.030 C 
ATOM      6  C   UNL     1       4.982  -3.952  25.945  0.00  0.00    +0.059 C 
ATOM      7  C   UNL     1       4.423  -5.188  26.593  0.00  0.00    +0.150 C 
ATOM      8  O   UNL     1       3.249  -5.310  26.924  0.00  0.00    -0.296 OA
ATOM      9  C   UNL     1       8.796  -4.782  26.602  0.00  0.00    +0.063 C 
ATOM     10  C   UNL     1       9.092  -4.548  25.085  0.00  0.00    +0.180 C 
ATOM     11  C   UNL     1       5.459  -6.292  26.702  0.00  0.00    +0.159 C 
ATOM     12  C   UNL     1       5.360  -4.533  24.523  0.00  0.00    +0.030 C 
ATOM     13  C   UNL     1       8.046  -5.254  24.122  0.00  0.00    +0.063 C 
ENDBRANCH   1  10
BRANCH   1  14
ATOM     14  C   UNL     1       9.386  -2.476  23.873  0.00  0.00    +0.341 C 
ATOM     15  O   UNL     1      10.406  -2.724  23.243  0.00  0.00    -0.245 OA
BRANCH  14  16
ATOM     16  C   UNL     1       8.402  -1.479  23.476  0.00  0.00    +0.084 A 
ATOM     17  C   UNL     1       8.669  -0.203  22.903  0.00  0.00    +0.014 A 
ATOM     18  C   UNL     1       7.447   0.453  22.739  0.00  0.00    +0.047 A 
ATOM     19  C   UNL     1       7.352   1.750  22.218  0.00  0.00    +0.026 A 
ATOM     20  C   UNL     1       8.541   2.384  21.843  0.00  0.00    +0.002 A 
ATOM     21  C   UNL     1       9.772   1.749  21.980  0.00  0.00    +0.001 A 
ATOM     22  N   UNL     1       6.461  -0.403  23.179  0.00  0.00    -0.360 N 
ATOM     23  H   UNL     1       5.477  -0.190  23.180  0.00  0.00    +0.165 HD
ATOM     24  C   UNL     1       9.849   0.459  22.509  0.00  0.00    +0.011 A 
ATOM     25  C   UNL     1       7.024  -1.566  23.622  0.00  0.00    +0.098 A 
ENDBRANCH  14  16
ENDBRANCH   1  14
TORSDOF 3
ENDMDL
MODEL 7
REMARK VINA RESULT:      -6.9      2.344      6.127
REMARK  Name = 
REMARK  3 active torsions:
REMARK  status: ('A' for Active; 'I' for Inactive)
REMARK    1  A    between atoms: C_4  and  O_14
REMARK    2  A    between atoms: O_14  and  C_15
REMARK    3  A    between atoms: C_15  and  C_17
REMARK                            x       y       z     vdW  Elec       q    Type
REMARK                         _______ _______ _______ _____ _____    ______ ____
ROOT
ATOM      1  O   UNL     1       9.760  -1.366  23.617  0.00  0.00    -0.458 OA
ENDROOT
BRANCH   1  10
ATOM      2  C   UNL     1       8.100   1.124  24.260  0.00  0.00    +0.062 C 
ATOM      3  N   UNL     1       9.116   2.225  24.339  0.00  0.00    -0.289 NA
ATOM      4  C   UNL     1      10.134   1.760  23.393  0.00  0.00    +0.062 C 
ATOM      5  C   UNL     1       9.338   1.559  22.012  0.00  0.00    +0.030 C 
ATOM      6  C   UNL     1       7.792   2.081  22.124  0.00  0.00    +0.059 C 
ATOM      7  C   UNL     1       7.913   3.498  22.611  0.00  0.00    +0.150 C 
ATOM      8  O   UNL     1       7.388   4.456  22.053  0.00  0.00    -0.296 OA
ATOM      9  C   UNL     1      10.799   0.618  24.240  0.00  0.00    +0.063 C 
ATOM     10  C   UNL     1       9.852  -0.503  24.781  0.00  0.00    +0.180 C 
ATOM     11  C   UNL     1       8.678   3.588  23.919  0.00  0.00    +0.159 C 
ATOM     12  C   UNL     1       6.972   1.447  23.318  0.00  0.00    +0.030 C 
ATOM     13  C   UNL     1       8.440   0.041  25.258  0.00  0.00    +0.063 C 
ENDBRANCH   1  10
BRANCH   1  14
ATOM     14  C   UNL     1       9.425  -2.663  23.781  0.00  0.00    +0.341 C 
ATOM     15  O   UNL     1      10.177  -3.516  24.233  0.00  0.00    -0.245 OA
BRANCH  14  16
ATOM     16  C   UNL     1       8.054  -2.920  23.362  0.00  0.00    +0.084 A 
ATOM     17  C   UNL     1       7.145  -3.843  23.953  0.00  0.00    +0.014 A 
ATOM     18  C   UNL     1       5.967  -3.819  23.202  0.00  0.00    +0.047 A 
ATOM     19  C   UNL     1       4.867  -4.633  23.500  0.00  0.00    +0.026 A 
ATOM     20  C   UNL     1       4.973  -5.484  24.606  0.00  0.00    +0.002 A 
ATOM     21  C   UNL     1       6.128  -5.518  25.382  0.00  0.00    +0.001 A 
ATOM     22  N   UNL     1       6.143  -2.895  22.195  0.00  0.00    -0.360 N 
ATOM     23  H   UNL     1       5.453  -2.672  21.497  0.00  0.00    +0.165 HD
ATOM     24  C   UNL     1       7.218  -4.705  25.066  0.00  0.00    +0.011 A 
ATOM     25  C   UNL     1       7.392  -2.350  22.284  0.00  0.00    +0.098 A 
ENDBRANCH  14  16
ENDBRANCH   1  14
TORSDOF 3
ENDMDL
MODEL 8
REMARK VINA RESULT:      -6.9      1.788      2.708
REMARK  Name = 
REMARK  3 active torsions:
REMARK  status: ('A' for Active; 'I' for Inactive)
REMARK    1  A    between atoms: C_4  and  O_14
REMARK    2  A    between atoms: O_14  and  C_15
REMARK    3  A    between atoms: C_15  and  C_17
REMARK                            x       y       z     vdW  Elec       q    Type
REMARK                         _______ _______ _______ _____ _____    ______ ____
ROOT
ATOM      1  O   UNL     1       9.243  -1.412  23.893  0.00  0.00    -0.458 OA
ENDROOT
BRANCH   1  10
ATOM      2  C   UNL     1       7.725  -4.069  23.820  0.00  0.00    +0.062 C 
ATOM      3  N   UNL     1       6.643  -3.896  24.844  0.00  0.00    -0.289 NA
ATOM      4  C   UNL     1       6.397  -2.453  24.777  0.00  0.00    +0.062 C 
ATOM      5  C   UNL     1       6.035  -2.178  23.236  0.00  0.00    +0.030 C 
ATOM      6  C   UNL     1       5.918  -3.570  22.385  0.00  0.00    +0.059 C 
ATOM      7  C   UNL     1       4.925  -4.394  23.155  0.00  0.00    +0.150 C 
ATOM      8  O   UNL     1       3.927  -4.901  22.654  0.00  0.00    -0.296 OA
ATOM      9  C   UNL     1       7.669  -1.919  25.527  0.00  0.00    +0.063 C 
ATOM     10  C   UNL     1       9.059  -2.369  24.969  0.00  0.00    +0.180 C 
ATOM     11  C   UNL     1       5.352  -4.600  24.598  0.00  0.00    +0.159 C 
ATOM     12  C   UNL     1       7.189  -4.505  22.483  0.00  0.00    +0.030 C 
ATOM     13  C   UNL     1       9.078  -3.874  24.465  0.00  0.00    +0.063 C 
ENDBRANCH   1  10
BRANCH   1  14
ATOM     14  C   UNL     1       9.783  -0.206  24.167  0.00  0.00    +0.341 C 
ATOM     15  O   UNL     1      10.576   0.002  25.075  0.00  0.00    -0.245 OA
BRANCH  14  16
ATOM     16  C   UNL     1       9.312   0.815  23.242  0.00  0.00    +0.084 A 
ATOM     17  C   UNL     1       8.040   1.455  23.260  0.00  0.00    +0.014 A 
ATOM     18  C   UNL     1       7.983   2.317  22.162  0.00  0.00    +0.047 A 
ATOM     19  C   UNL     1       6.852   3.088  21.868  0.00  0.00    +0.026 A 
ATOM     20  C   UNL     1       5.756   2.983  22.730  0.00  0.00    +0.002 A 
ATOM     21  C   UNL     1       5.789   2.144  23.841  0.00  0.00    +0.001 A 
ATOM     22  N   UNL     1       9.191   2.223  21.504  0.00  0.00    -0.360 N 
ATOM     23  H   UNL     1       9.430   2.734  20.672  0.00  0.00    +0.165 HD
ATOM     24  C   UNL     1       6.923   1.377  24.115  0.00  0.00    +0.011 A 
ATOM     25  C   UNL     1       9.995   1.325  22.147  0.00  0.00    +0.098 A 
ENDBRANCH  14  16
ENDBRANCH   1  14
TORSDOF 3
ENDMDL
MODEL 9
REMARK VINA RESULT:      -6.8      2.212      3.470
REMARK  Name = 
REMARK  3 active torsions:
REMARK  status: ('A' for Active; 'I' for Inactive)
REMARK    1  A    between atoms: C_4  and  O_14
REMARK    2  A    between atoms: O_14  and  C_15
REMARK    3  A    between atoms: C_15  and  C_17
REMARK                            x       y       z     vdW  Elec       q    Type
REMARK                         _______ _______ _______ _____ _____    ______ ____
ROOT
ATOM      1  O   UNL     1       9.566  -2.769  23.993  0.00  0.00    -0.458 OA
ENDROOT
BRANCH   1  10
ATOM      2  C   UNL     1       6.573  -2.191  23.715  0.00  0.00    +0.062 C 
ATOM      3  N   UNL     1       5.917  -3.297  24.487  0.00  0.00    -0.289 NA
ATOM      4  C   UNL     1       6.922  -3.579  25.516  0.00  0.00    +0.062 C 
ATOM      5  C   UNL     1       7.148  -2.169  26.253  0.00  0.00    +0.030 C 
ATOM      6  C   UNL     1       6.102  -1.032  25.718  0.00  0.00    +0.059 C 
ATOM      7  C   UNL     1       4.748  -1.658  25.900  0.00  0.00    +0.150 C 
ATOM      8  O   UNL     1       3.827  -1.121  26.507  0.00  0.00    -0.296 OA
ATOM      9  C   UNL     1       7.992  -4.344  24.658  0.00  0.00    +0.063 C 
ATOM     10  C   UNL     1       8.543  -3.607  23.394  0.00  0.00    +0.180 C 
ATOM     11  C   UNL     1       4.629  -2.983  25.168  0.00  0.00    +0.159 C 
ATOM     12  C   UNL     1       6.104  -0.828  24.150  0.00  0.00    +0.030 C 
ATOM     13  C   UNL     1       7.437  -2.771  22.620  0.00  0.00    +0.063 C 
ENDBRANCH   1  10
BRANCH   1  14
ATOM     14  C   UNL     1      10.097  -1.758  23.273  0.00  0.00    +0.341 C 
ATOM     15  O   UNL     1      10.765  -1.914  22.260  0.00  0.00    -0.245 OA
BRANCH  14  16
ATOM     16  C   UNL     1       9.771  -0.461  23.847  0.00  0.00    +0.084 A 
ATOM     17  C   UNL     1       9.136   0.626  23.181  0.00  0.00    +0.014 A 
ATOM     18  C   UNL     1       9.075   1.696  24.076  0.00  0.00    +0.047 A 
ATOM     19  C   UNL     1       8.526   2.938  23.731  0.00  0.00    +0.026 A 
ATOM     20  C   UNL     1       8.016   3.081  22.437  0.00  0.00    +0.002 A 
ATOM     21  C   UNL     1       8.049   2.028  21.526  0.00  0.00    +0.001 A 
ATOM     22  N   UNL     1       9.636   1.271  25.261  0.00  0.00    -0.360 N 
ATOM     23  H   UNL     1       9.729   1.838  26.087  0.00  0.00    +0.165 HD
ATOM     24  C   UNL     1       8.606   0.799  21.886  0.00  0.00    +0.011 A 
ATOM     25  C   UNL     1      10.055  -0.023  25.133  0.00  0.00    +0.098 A 
ENDBRANCH  14  16
ENDBRANCH   1  14
TORSDOF 3
ENDMDL
