MODEL 1
REMARK VINA RESULT:      -2.9      0.000      0.000
REMARK  Name = 
REMARK  4 active torsions:
REMARK  status: ('A' for Active; 'I' for Inactive)
REMARK    1  A    between atoms: C_1  and  C_2
REMARK    2  A    between atoms: C_2  and  O_3
REMARK    3  A    between atoms: C_2  and  C_4
REMARK    4  A    between atoms: C_4  and  O_5
REMARK                            x       y       z     vdW  Elec       q    Type
REMARK                         _______ _______ _______ _____ _____    ______ ____
ROOT
ATOM      1  C   UNL     1       8.658  -4.239  24.245  0.00  0.00    +0.040 C 
ATOM      2  C   UNL     1       8.901  -5.281  25.323  0.00  0.00    +0.137 C 
ENDROOT
BRANCH   2   3
ATOM      3  O   UNL     1      10.293  -5.596  25.354  0.00  0.00    -0.390 OA
ATOM      4  H   UNL     1      10.633  -5.555  24.441  0.00  0.00    +0.210 HD
ENDBRANCH   2   3
BRANCH   2   5
ATOM      5  C   UNL     1       8.424  -4.794  26.699  0.00  0.00    +0.186 C 
BRANCH   5   6
ATOM      6  O   UNL     1       7.936  -5.880  27.489  0.00  0.00    -0.392 OA
ATOM      7  H   UNL     1       8.197  -5.717  28.413  0.00  0.00    +0.210 HD
ENDBRANCH   5   6
ENDBRANCH   2   5
TORSDOF 3
ENDMDL
MODEL 2
REMARK VINA RESULT:      -2.8      1.036      2.357
REMARK  Name = 
REMARK  4 active torsions:
REMARK  status: ('A' for Active; 'I' for Inactive)
REMARK    1  A    between atoms: C_1  and  C_2
REMARK    2  A    between atoms: C_2  and  O_3
REMARK    3  A    between atoms: C_2  and  C_4
REMARK    4  A    between atoms: C_4  and  O_5
REMARK                            x       y       z     vdW  Elec       q    Type
REMARK                         _______ _______ _______ _____ _____    ______ ____
ROOT
ATOM      1  C   UNL     1       7.031  -5.215  25.405  0.00  0.00    +0.040 C 
ATOM      2  C   UNL     1       8.041  -4.903  26.495  0.00  0.00    +0.137 C 
ENDROOT
BRANCH   2   3
ATOM      3  O   UNL     1       7.960  -5.913  27.502  0.00  0.00    -0.390 OA
ATOM      4  H   UNL     1       8.169  -5.500  28.360  0.00  0.00    +0.210 HD
ENDBRANCH   2   3
BRANCH   2   5
ATOM      5  C   UNL     1       9.468  -4.809  25.935  0.00  0.00    +0.186 C 
BRANCH   5   6
ATOM      6  O   UNL     1       9.814  -5.989  25.208  0.00  0.00    -0.392 OA
ATOM      7  H   UNL     1       9.636  -6.755  25.783  0.00  0.00    +0.210 HD
ENDBRANCH   5   6
ENDBRANCH   2   5
TORSDOF 3
ENDMDL
MODEL 3
REMARK VINA RESULT:      -2.8      5.849      6.935
REMARK  Name = 
REMARK  4 active torsions:
REMARK  status: ('A' for Active; 'I' for Inactive)
REMARK    1  A    between atoms: C_1  and  C_2
REMARK    2  A    between atoms: C_2  and  O_3
REMARK    3  A    between atoms: C_2  and  C_4
REMARK    4  A    between atoms: C_4  and  O_5
REMARK                            x       y       z     vdW  Elec       q    Type
REMARK                         _______ _______ _______ _____ _____    ______ ____
ROOT
ATOM      1  C   UNL     1       8.962  -0.856  23.364  0.00  0.00    +0.040 C 
ATOM      2  C   UNL     1       9.842  -0.369  22.227  0.00  0.00    +0.137 C 
ENDROOT
BRANCH   2   3
ATOM      3  O   UNL     1      10.132  -1.468  21.364  0.00  0.00    -0.390 OA
ATOM      4  H   UNL     1      10.988  -1.294  20.931  0.00  0.00    +0.210 HD
ENDBRANCH   2   3
BRANCH   2   5
ATOM      5  C   UNL     1       9.175   0.773  21.445  0.00  0.00    +0.186 C 
BRANCH   5   6
ATOM      6  O   UNL     1       9.955   1.967  21.512  0.00  0.00    -0.392 OA
ATOM      7  H   UNL     1       9.859   2.434  20.662  0.00  0.00    +0.210 HD
ENDBRANCH   5   6
ENDBRANCH   2   5
TORSDOF 3
ENDMDL
MODEL 4
REMARK VINA RESULT:      -2.7      6.453      7.447
REMARK  Name = 
REMARK  4 active torsions:
REMARK  status: ('A' for Active; 'I' for Inactive)
REMARK    1  A    between atoms: C_1  and  C_2
REMARK    2  A    between atoms: C_2  and  O_3
REMARK    3  A    between atoms: C_2  and  C_4
REMARK    4  A    between atoms: C_4  and  O_5
REMARK                            x       y       z     vdW  Elec       q    Type
REMARK                         _______ _______ _______ _____ _____    ______ ____
ROOT
ATOM      1  C   UNL     1       7.914   1.502  22.046  0.00  0.00    +0.040 C 
ATOM      2  C   UNL     1       9.264   1.103  21.475  0.00  0.00    +0.137 C 
ENDROOT
BRANCH   2   3
ATOM      3  O   UNL     1      10.160   2.208  21.595  0.00  0.00    -0.390 OA
ATOM      4  H   UNL     1      10.736   2.216  20.808  0.00  0.00    +0.210 HD
ENDBRANCH   2   3
BRANCH   2   5
ATOM      5  C   UNL     1       9.834  -0.136  22.180  0.00  0.00    +0.186 C 
BRANCH   5   6
ATOM      6  O   UNL     1       9.929  -1.242  21.280  0.00  0.00    -0.392 OA
ATOM      7  H   UNL     1       9.268  -1.903  21.551  0.00  0.00    +0.210 HD
ENDBRANCH   5   6
ENDBRANCH   2   5
TORSDOF 3
ENDMDL
MODEL 5
REMARK VINA RESULT:      -2.6      6.927      7.788
REMARK  Name = 
REMARK  4 active torsions:
REMARK  status: ('A' for Active; 'I' for Inactive)
REMARK    1  A    between atoms: C_1  and  C_2
REMARK    2  A    between atoms: C_2  and  O_3
REMARK    3  A    between atoms: C_2  and  C_4
REMARK    4  A    between atoms: C_4  and  O_5
REMARK                            x       y       z     vdW  Elec       q    Type
REMARK                         _______ _______ _______ _____ _____    ______ ____
ROOT
ATOM      1  C   UNL     1       9.009   2.609  24.525  0.00  0.00    +0.040 C 
ATOM      2  C   UNL     1      10.247   1.861  24.061  0.00  0.00    +0.137 C 
ENDROOT
BRANCH   2   3
ATOM      3  O   UNL     1      10.570   0.860  25.027  0.00  0.00    -0.390 OA
ATOM      4  H   UNL     1       9.912   0.909  25.744  0.00  0.00    +0.210 HD
ENDBRANCH   2   3
BRANCH   2   5
ATOM      5  C   UNL     1      10.042   1.232  22.676  0.00  0.00    +0.186 C 
BRANCH   5   6
ATOM      6  O   UNL     1      10.235   2.196  21.639  0.00  0.00    -0.392 OA
ATOM      7  H   UNL     1       9.958   3.063  21.984  0.00  0.00    +0.210 HD
ENDBRANCH   5   6
ENDBRANCH   2   5
TORSDOF 3
ENDMDL
MODEL 6
REMARK VINA RESULT:      -2.6      7.706      8.116
REMARK  Name = 
REMARK  4 active torsions:
REMARK  status: ('A' for Active; 'I' for Inactive)
REMARK    1  A    between atoms: C_1  and  C_2
REMARK    2  A    between atoms: C_2  and  O_3
REMARK    3  A    between atoms: C_2  and  C_4
REMARK    4  A    between atoms: C_4  and  O_5
REMARK                            x       y       z     vdW  Elec       q    Type
REMARK                         _______ _______ _______ _____ _____    ______ ____
ROOT
ATOM      1  C   UNL     1      10.750   1.239  24.186  0.00  0.00    +0.040 C 
ATOM      2  C   UNL     1       9.978   1.887  23.050  0.00  0.00    +0.137 C 
ENDROOT
BRANCH   2   3
ATOM      3  O   UNL     1      10.680   3.055  22.623  0.00  0.00    -0.390 OA
ATOM      4  H   UNL     1      10.179   3.835  22.925  0.00  0.00    +0.210 HD
ENDBRANCH   2   3
BRANCH   2   5
ATOM      5  C   UNL     1       9.777   0.916  21.877  0.00  0.00    +0.186 C 
BRANCH   5   6
ATOM      6  O   UNL     1       8.829   1.430  20.940  0.00  0.00    -0.392 OA
ATOM      7  H   UNL     1       9.090   1.122  20.054  0.00  0.00    +0.210 HD
ENDBRANCH   5   6
ENDBRANCH   2   5
TORSDOF 3
ENDMDL
MODEL 7
REMARK VINA RESULT:      -2.6      3.602      4.868
REMARK  Name = 
REMARK  4 active torsions:
REMARK  status: ('A' for Active; 'I' for Inactive)
REMARK    1  A    between atoms: C_1  and  C_2
REMARK    2  A    between atoms: C_2  and  O_3
REMARK    3  A    between atoms: C_2  and  C_4
REMARK    4  A    between atoms: C_4  and  O_5
REMARK                            x       y       z     vdW  Elec       q    Type
REMARK                         _______ _______ _______ _____ _____    ______ ____
ROOT
ATOM      1  C   UNL     1       9.194  -1.286  24.865  0.00  0.00    +0.040 C 
ATOM      2  C   UNL     1       9.912  -2.040  23.760  0.00  0.00    +0.137 C 
ENDROOT
BRANCH   2   3
ATOM      3  O   UNL     1       9.988  -3.420  24.116  0.00  0.00    -0.390 OA
ATOM      4  H   UNL     1       9.528  -3.538  24.968  0.00  0.00    +0.210 HD
ENDBRANCH   2   3
BRANCH   2   5
ATOM      5  C   UNL     1       9.207  -1.867  22.406  0.00  0.00    +0.186 C 
BRANCH   5   6
ATOM      6  O   UNL     1      10.140  -1.526  21.380  0.00  0.00    -0.392 OA
ATOM      7  H   UNL     1       9.879  -2.001  20.571  0.00  0.00    +0.210 HD
ENDBRANCH   5   6
ENDBRANCH   2   5
TORSDOF 3
ENDMDL
MODEL 8
REMARK VINA RESULT:      -2.5      6.592      7.296
REMARK  Name = 
REMARK  4 active torsions:
REMARK  status: ('A' for Active; 'I' for Inactive)
REMARK    1  A    between atoms: C_1  and  C_2
REMARK    2  A    between atoms: C_2  and  O_3
REMARK    3  A    between atoms: C_2  and  C_4
REMARK    4  A    between atoms: C_4  and  O_5
REMARK                            x       y       z     vdW  Elec       q    Type
REMARK                         _______ _______ _______ _____ _____    ______ ____
ROOT
ATOM      1  C   UNL     1       8.828   0.351  22.114  0.00  0.00    +0.040 C 
ATOM      2  C   UNL     1      10.098   1.135  22.394  0.00  0.00    +0.137 C 
ENDROOT
BRANCH   2   3
ATOM      3  O   UNL     1      10.133   2.278  21.540  0.00  0.00    -0.390 OA
ATOM      4  H   UNL     1      10.830   2.877  21.866  0.00  0.00    +0.210 HD
ENDBRANCH   2   3
BRANCH   2   5
ATOM      5  C   UNL     1      10.189   1.557  23.868  0.00  0.00    +0.186 C 
BRANCH   5   6
ATOM      6  O   UNL     1      11.059   0.691  24.599  0.00  0.00    -0.392 OA
ATOM      7  H   UNL     1      10.509   0.155  25.198  0.00  0.00    +0.210 HD
ENDBRANCH   5   6
ENDBRANCH   2   5
TORSDOF 3
ENDMDL
MODEL 9
REMARK VINA RESULT:      -2.5      3.769      4.670
REMARK  Name = 
REMARK  4 active torsions:
REMARK  status: ('A' for Active; 'I' for Inactive)
REMARK    1  A    between atoms: C_1  and  C_2
REMARK    2  A    between atoms: C_2  and  O_3
REMARK    3  A    between atoms: C_2  and  C_4
REMARK    4  A    between atoms: C_4  and  O_5
REMARK                            x       y       z     vdW  Elec       q    Type
REMARK                         _______ _______ _______ _____ _____    ______ ____
ROOT
ATOM      1  C   UNL     1       8.212  -0.629  22.573  0.00  0.00    +0.040 C 
ATOM      2  C   UNL     1       9.179  -1.794  22.457  0.00  0.00    +0.137 C 
ENDROOT
BRANCH   2   3
ATOM      3  O   UNL     1      10.081  -1.539  21.380  0.00  0.00    -0.390 OA
ATOM      4  H   UNL     1      10.264  -2.385  20.932  0.00  0.00    +0.210 HD
ENDBRANCH   2   3
BRANCH   2   5
ATOM      5  C   UNL     1       9.949  -2.023  23.766  0.00  0.00    +0.186 C 
BRANCH   5   6
ATOM      6  O   UNL     1       9.975  -3.409  24.112  0.00  0.00    -0.392 OA
ATOM      7  H   UNL     1      10.417  -3.492  24.976  0.00  0.00    +0.210 HD
ENDBRANCH   5   6
ENDBRANCH   2   5
TORSDOF 3
ENDMDL
