MODEL 1
REMARK VINA RESULT:      -7.8      0.000      0.000
REMARK  Name = 
REMARK  4 active torsions:
REMARK  status: ('A' for Active; 'I' for Inactive)
REMARK    1  A    between atoms: C_2  and  C_22
REMARK    2  A    between atoms: C_9  and  O_10
REMARK    3  A    between atoms: O_10  and  C_11
REMARK    4  A    between atoms: C_11  and  C_12
REMARK                            x       y       z     vdW  Elec       q    Type
REMARK                         _______ _______ _______ _____ _____    ______ ____
ROOT
ATOM      1  C   UNL     1       5.188  -4.780  25.854  0.00  0.00    +0.200 C 
ATOM      2  N   UNL     1       6.327  -4.508  25.001  0.00  0.00    -0.286 N 
ATOM      3  C   UNL     1       6.287  -5.187  23.810  0.00  0.00    +0.083 A 
ATOM      4  C   UNL     1       7.256  -5.011  22.899  0.00  0.00    +0.157 A 
ATOM      5  N   UNL     1       8.309  -4.137  23.062  0.00  0.00    -0.195 NA
ATOM      6  C   UNL     1       8.332  -3.427  24.155  0.00  0.00    +0.283 A 
ATOM      7 CL   UNL     1       7.204  -5.834  21.376  0.00  0.00    -0.060 Cl
ATOM      8  C   UNL     1       5.079  -5.968  23.817  0.00  0.00    +0.027 C 
ATOM      9  C   UNL     1       7.273  -3.575  25.296  0.00  0.00    +0.315 A 
ATOM     10  O   UNL     1       7.268  -2.913  26.324  0.00  0.00    -0.262 OA
ATOM     11  C   UNL     1       4.427  -5.740  24.973  0.00  0.00    +0.009 C 
ENDROOT
BRANCH   1  12
ATOM     12  C   UNL     1       5.619  -5.438  27.191  0.00  0.00    +0.243 C 
ATOM     13  N   UNL     1       5.121  -4.838  28.330  0.00  0.00    -0.300 N 
ATOM     14  C   UNL     1       4.442  -3.560  28.401  0.00  0.00    +0.108 C 
ATOM     15  C   UNL     1       3.873  -3.485  29.810  0.00  0.00    +0.020 C 
ATOM     16  C   UNL     1       4.269  -4.801  30.483  0.00  0.00    +0.020 C 
ATOM     17  C   UNL     1       5.433  -5.319  29.657  0.00  0.00    +0.108 C 
ATOM     18  O   UNL     1       6.313  -6.451  27.241  0.00  0.00    -0.273 OA
ENDBRANCH   1  12
BRANCH   6  19
ATOM     19  O   UNL     1       9.302  -2.512  24.298  0.00  0.00    -0.468 OA
BRANCH  19  20
ATOM     20  C   UNL     1      10.032  -2.086  23.139  0.00  0.00    +0.266 C 
BRANCH  20  21
ATOM     21  C   UNL     1      10.147  -0.587  23.145  0.00  0.00    -0.010 A 
ATOM     22  C   UNL     1      10.476   0.085  24.331  0.00  0.00    +0.010 A 
ATOM     23  C   UNL     1      10.543   1.477  24.347  0.00  0.00    +0.039 A 
ATOM     24  C   UNL     1      10.275   2.188  23.185  0.00  0.00    +0.123 A 
ATOM     25  F   UNL     1      10.341   3.528  23.206  0.00  0.00    -0.205 F 
ATOM     26  C   UNL     1       9.936   1.541  22.005  0.00  0.00    +0.039 A 
ATOM     27  C   UNL     1       9.869   0.150  21.984  0.00  0.00    +0.010 A 
ENDBRANCH  20  21
ENDBRANCH  19  20
ENDBRANCH   6  19
TORSDOF 4
ENDMDL
MODEL 2
REMARK VINA RESULT:      -7.4      2.685      3.896
REMARK  Name = 
REMARK  4 active torsions:
REMARK  status: ('A' for Active; 'I' for Inactive)
REMARK    1  A    between atoms: C_2  and  C_22
REMARK    2  A    between atoms: C_9  and  O_10
REMARK    3  A    between atoms: O_10  and  C_11
REMARK    4  A    between atoms: C_11  and  C_12
REMARK                            x       y       z     vdW  Elec       q    Type
REMARK                         _______ _______ _______ _____ _____    ______ ____
ROOT
ATOM      1  C   UNL     1       5.103  -5.426  24.133  0.00  0.00    +0.200 C 
ATOM      2  N   UNL     1       6.265  -4.560  24.135  0.00  0.00    -0.286 N 
ATOM      3  C   UNL     1       7.076  -4.745  25.227  0.00  0.00    +0.083 A 
ATOM      4  C   UNL     1       8.211  -4.040  25.351  0.00  0.00    +0.157 A 
ATOM      5  N   UNL     1       8.657  -3.137  24.412  0.00  0.00    -0.195 NA
ATOM      6  C   UNL     1       7.941  -2.995  23.332  0.00  0.00    +0.283 A 
ATOM      7 CL   UNL     1       9.264  -4.285  26.705  0.00  0.00    -0.060 Cl
ATOM      8  C   UNL     1       6.469  -5.776  26.025  0.00  0.00    +0.027 C 
ATOM      9  C   UNL     1       6.587  -3.742  23.097  0.00  0.00    +0.315 A 
ATOM     10  O   UNL     1       5.904  -3.633  22.090  0.00  0.00    -0.262 OA
ATOM     11  C   UNL     1       5.345  -6.190  25.412  0.00  0.00    +0.009 C 
ENDROOT
BRANCH   1  12
ATOM     12  C   UNL     1       3.784  -4.612  24.185  0.00  0.00    +0.243 C 
ATOM     13  N   UNL     1       2.685  -5.235  23.629  0.00  0.00    -0.300 N 
ATOM     14  C   UNL     1       2.696  -6.440  22.825  0.00  0.00    +0.108 C 
ATOM     15  C   UNL     1       1.236  -6.846  22.688  0.00  0.00    +0.020 C 
ATOM     16  C   UNL     1       0.444  -5.801  23.478  0.00  0.00    +0.020 C 
ATOM     17  C   UNL     1       1.382  -4.611  23.586  0.00  0.00    +0.108 C 
ATOM     18  O   UNL     1       3.702  -3.511  24.726  0.00  0.00    -0.273 OA
ENDBRANCH   1  12
BRANCH   6  19
ATOM     19  O   UNL     1       8.398  -2.183  22.368  0.00  0.00    -0.468 OA
BRANCH  19  20
ATOM     20  C   UNL     1       9.793  -1.849  22.344  0.00  0.00    +0.266 C 
BRANCH  20  21
ATOM     21  C   UNL     1       9.965  -0.394  22.677  0.00  0.00    -0.010 A 
ATOM     22  C   UNL     1       9.647   0.585  21.725  0.00  0.00    +0.010 A 
ATOM     23  C   UNL     1       9.843   1.932  22.019  0.00  0.00    +0.039 A 
ATOM     24  C   UNL     1      10.362   2.295  23.255  0.00  0.00    +0.123 A 
ATOM     25  F   UNL     1      10.550   3.593  23.533  0.00  0.00    -0.205 F 
ATOM     26  C   UNL     1      10.695   1.339  24.206  0.00  0.00    +0.039 A 
ATOM     27  C   UNL     1      10.498  -0.009  23.917  0.00  0.00    +0.010 A 
ENDBRANCH  20  21
ENDBRANCH  19  20
ENDBRANCH   6  19
TORSDOF 4
ENDMDL
MODEL 3
REMARK VINA RESULT:      -7.1      1.874      2.383
REMARK  Name = 
REMARK  4 active torsions:
REMARK  status: ('A' for Active; 'I' for Inactive)
REMARK    1  A    between atoms: C_2  and  C_22
REMARK    2  A    between atoms: C_9  and  O_10
REMARK    3  A    between atoms: O_10  and  C_11
REMARK    4  A    between atoms: C_11  and  C_12
REMARK                            x       y       z     vdW  Elec       q    Type
REMARK                         _______ _______ _______ _____ _____    ______ ____
ROOT
ATOM      1  C   UNL     1       4.887  -2.659  25.038  0.00  0.00    +0.200 C 
ATOM      2  N   UNL     1       6.160  -3.117  24.520  0.00  0.00    -0.286 N 
ATOM      3  C   UNL     1       6.054  -4.235  23.732  0.00  0.00    +0.083 A 
ATOM      4  C   UNL     1       7.144  -4.758  23.151  0.00  0.00    +0.157 A 
ATOM      5  N   UNL     1       8.405  -4.213  23.262  0.00  0.00    -0.195 NA
ATOM      6  C   UNL     1       8.521  -3.111  23.948  0.00  0.00    +0.283 A 
ATOM      7 CL   UNL     1       7.024  -6.148  22.125  0.00  0.00    -0.060 Cl
ATOM      8  C   UNL     1       4.658  -4.582  23.688  0.00  0.00    +0.027 C 
ATOM      9  C   UNL     1       7.324  -2.434  24.692  0.00  0.00    +0.315 A 
ATOM     10  O   UNL     1       7.406  -1.395  25.331  0.00  0.00    -0.262 OA
ATOM     11  C   UNL     1       3.969  -3.685  24.418  0.00  0.00    +0.009 C 
ENDROOT
BRANCH   1  12
ATOM     12  C   UNL     1       4.848  -2.708  26.587  0.00  0.00    +0.243 C 
ATOM     13  N   UNL     1       4.464  -1.534  27.204  0.00  0.00    -0.300 N 
ATOM     14  C   UNL     1       4.318  -0.239  26.572  0.00  0.00    +0.108 C 
ATOM     15  C   UNL     1       3.632   0.639  27.608  0.00  0.00    +0.020 C 
ATOM     16  C   UNL     1       3.403  -0.262  28.823  0.00  0.00    +0.020 C 
ATOM     17  C   UNL     1       4.385  -1.406  28.642  0.00  0.00    +0.108 C 
ATOM     18  O   UNL     1       5.091  -3.729  27.227  0.00  0.00    -0.273 OA
ENDBRANCH   1  12
BRANCH   6  19
ATOM     19  O   UNL     1       9.723  -2.519  24.002  0.00  0.00    -0.468 OA
BRANCH  19  20
ATOM     20  C   UNL     1      10.240  -1.887  22.822  0.00  0.00    +0.266 C 
BRANCH  20  21
ATOM     21  C   UNL     1      10.179  -0.394  22.988  0.00  0.00    -0.010 A 
ATOM     22  C   UNL     1       9.930   0.425  21.878  0.00  0.00    +0.010 A 
ATOM     23  C   UNL     1       9.914   1.810  22.024  0.00  0.00    +0.039 A 
ATOM     24  C   UNL     1      10.154   2.370  23.272  0.00  0.00    +0.123 A 
ATOM     25  F   UNL     1      10.138   3.704  23.407  0.00  0.00    -0.205 F 
ATOM     26  C   UNL     1      10.415   1.575  24.381  0.00  0.00    +0.039 A 
ATOM     27  C   UNL     1      10.430   0.190  24.239  0.00  0.00    +0.010 A 
ENDBRANCH  20  21
ENDBRANCH  19  20
ENDBRANCH   6  19
TORSDOF 4
ENDMDL
MODEL 4
REMARK VINA RESULT:      -6.8      3.231      5.048
REMARK  Name = 
REMARK  4 active torsions:
REMARK  status: ('A' for Active; 'I' for Inactive)
REMARK    1  A    between atoms: C_2  and  C_22
REMARK    2  A    between atoms: C_9  and  O_10
REMARK    3  A    between atoms: O_10  and  C_11
REMARK    4  A    between atoms: C_11  and  C_12
REMARK                            x       y       z     vdW  Elec       q    Type
REMARK                         _______ _______ _______ _____ _____    ______ ____
ROOT
ATOM      1  C   UNL     1       6.929  -3.275  25.027  0.00  0.00    +0.200 C 
ATOM      2  N   UNL     1       7.639  -2.059  25.369  0.00  0.00    -0.286 N 
ATOM      3  C   UNL     1       7.094  -1.396  26.440  0.00  0.00    +0.083 A 
ATOM      4  C   UNL     1       7.662  -0.271  26.897  0.00  0.00    +0.157 A 
ATOM      5  N   UNL     1       8.817   0.270  26.375  0.00  0.00    -0.195 NA
ATOM      6  C   UNL     1       9.393  -0.379  25.402  0.00  0.00    +0.283 A 
ATOM      7 CL   UNL     1       7.008   0.561  28.269  0.00  0.00    -0.060 Cl
ATOM      8  C   UNL     1       5.960  -2.168  26.873  0.00  0.00    +0.027 C 
ATOM      9  C   UNL     1       8.802  -1.682  24.772  0.00  0.00    +0.315 A 
ATOM     10  O   UNL     1       9.329  -2.314  23.868  0.00  0.00    -0.262 OA
ATOM     11  C   UNL     1       5.854  -3.255  26.086  0.00  0.00    +0.009 C 
ENDROOT
BRANCH   1  12
ATOM     12  C   UNL     1       6.334  -3.208  23.597  0.00  0.00    +0.243 C 
ATOM     13  N   UNL     1       6.617  -4.291  22.789  0.00  0.00    -0.300 N 
ATOM     14  C   UNL     1       7.573  -5.344  23.068  0.00  0.00    +0.108 C 
ATOM     15  C   UNL     1       7.314  -6.411  22.014  0.00  0.00    +0.020 C 
ATOM     16  C   UNL     1       6.155  -5.879  21.168  0.00  0.00    +0.020 C 
ATOM     17  C   UNL     1       6.147  -4.383  21.425  0.00  0.00    +0.108 C 
ATOM     18  O   UNL     1       5.619  -2.283  23.216  0.00  0.00    -0.273 OA
ENDBRANCH   1  12
BRANCH   6  19
ATOM     19  O   UNL     1      10.561   0.084  24.933  0.00  0.00    -0.468 OA
BRANCH  19  20
ATOM     20  C   UNL     1      10.687   0.358  23.530  0.00  0.00    +0.266 C 
BRANCH  20  21
ATOM     21  C   UNL     1       9.749   1.470  23.153  0.00  0.00    -0.010 A 
ATOM     22  C   UNL     1       9.821   2.703  23.816  0.00  0.00    +0.010 A 
ATOM     23  C   UNL     1       8.926   3.720  23.494  0.00  0.00    +0.039 A 
ATOM     24  C   UNL     1       7.961   3.500  22.521  0.00  0.00    +0.123 A 
ATOM     25  F   UNL     1       7.101   4.482  22.215  0.00  0.00    -0.205 F 
ATOM     26  C   UNL     1       7.866   2.281  21.862  0.00  0.00    +0.039 A 
ATOM     27  C   UNL     1       8.760   1.262  22.179  0.00  0.00    +0.010 A 
ENDBRANCH  20  21
ENDBRANCH  19  20
ENDBRANCH   6  19
TORSDOF 4
ENDMDL
MODEL 5
REMARK VINA RESULT:      -6.7      4.367      6.669
REMARK  Name = 
REMARK  4 active torsions:
REMARK  status: ('A' for Active; 'I' for Inactive)
REMARK    1  A    between atoms: C_2  and  C_22
REMARK    2  A    between atoms: C_9  and  O_10
REMARK    3  A    between atoms: O_10  and  C_11
REMARK    4  A    between atoms: C_11  and  C_12
REMARK                            x       y       z     vdW  Elec       q    Type
REMARK                         _______ _______ _______ _____ _____    ______ ____
ROOT
ATOM      1  C   UNL     1       8.293  -1.213  22.490  0.00  0.00    +0.200 C 
ATOM      2  N   UNL     1       8.384  -0.093  23.405  0.00  0.00    -0.286 N 
ATOM      3  C   UNL     1       9.397   0.780  23.096  0.00  0.00    +0.083 A 
ATOM      4  C   UNL     1       9.584   1.885  23.832  0.00  0.00    +0.157 A 
ATOM      5  N   UNL     1       8.782   2.242  24.894  0.00  0.00    -0.195 NA
ATOM      6  C   UNL     1       7.770   1.466  25.165  0.00  0.00    +0.283 A 
ATOM      7 CL   UNL     1      10.836   3.015  23.435  0.00  0.00    -0.060 Cl
ATOM      8  C   UNL     1      10.046   0.262  21.921  0.00  0.00    +0.027 C 
ATOM      9  C   UNL     1       7.476   0.138  24.393  0.00  0.00    +0.315 A 
ATOM     10  O   UNL     1       6.529  -0.599  24.621  0.00  0.00    -0.262 OA
ATOM     11  C   UNL     1       9.422  -0.871  21.549  0.00  0.00    +0.009 C 
ENDROOT
BRANCH   1  12
ATOM     12  C   UNL     1       8.529  -2.563  23.214  0.00  0.00    +0.243 C 
ATOM     13  N   UNL     1       7.710  -3.599  22.810  0.00  0.00    -0.300 N 
ATOM     14  C   UNL     1       6.539  -3.488  21.966  0.00  0.00    +0.108 C 
ATOM     15  C   UNL     1       6.161  -4.920  21.613  0.00  0.00    +0.020 C 
ATOM     16  C   UNL     1       7.206  -5.801  22.301  0.00  0.00    +0.020 C 
ATOM     17  C   UNL     1       7.793  -4.921  23.390  0.00  0.00    +0.108 C 
ATOM     18  O   UNL     1       9.414  -2.723  24.052  0.00  0.00    -0.273 OA
ENDBRANCH   1  12
BRANCH   6  19
ATOM     19  O   UNL     1       6.929   1.836  26.141  0.00  0.00    -0.468 OA
BRANCH  19  20
ATOM     20  C   UNL     1       6.506   3.205  26.213  0.00  0.00    +0.266 C 
BRANCH  20  21
ATOM     21  C   UNL     1       5.639   3.523  25.027  0.00  0.00    -0.010 A 
ATOM     22  C   UNL     1       4.454   2.804  24.814  0.00  0.00    +0.010 A 
ATOM     23  C   UNL     1       3.670   3.070  23.693  0.00  0.00    +0.039 A 
ATOM     24  C   UNL     1       4.075   4.043  22.789  0.00  0.00    +0.123 A 
ATOM     25  F   UNL     1       3.318   4.295  21.712  0.00  0.00    -0.205 F 
ATOM     26  C   UNL     1       5.252   4.756  22.977  0.00  0.00    +0.039 A 
ATOM     27  C   UNL     1       6.038   4.495  24.097  0.00  0.00    +0.010 A 
ENDBRANCH  20  21
ENDBRANCH  19  20
ENDBRANCH   6  19
TORSDOF 4
ENDMDL
MODEL 6
REMARK VINA RESULT:      -6.6      5.014      7.803
REMARK  Name = 
REMARK  4 active torsions:
REMARK  status: ('A' for Active; 'I' for Inactive)
REMARK    1  A    between atoms: C_2  and  C_22
REMARK    2  A    between atoms: C_9  and  O_10
REMARK    3  A    between atoms: O_10  and  C_11
REMARK    4  A    between atoms: C_11  and  C_12
REMARK                            x       y       z     vdW  Elec       q    Type
REMARK                         _______ _______ _______ _____ _____    ______ ____
ROOT
ATOM      1  C   UNL     1       6.604   2.818  24.461  0.00  0.00    +0.200 C 
ATOM      2  N   UNL     1       7.253   1.525  24.549  0.00  0.00    -0.286 N 
ATOM      3  C   UNL     1       8.621   1.608  24.609  0.00  0.00    +0.083 A 
ATOM      4  C   UNL     1       9.360   0.495  24.729  0.00  0.00    +0.157 A 
ATOM      5  N   UNL     1       8.826  -0.770  24.837  0.00  0.00    -0.195 NA
ATOM      6  C   UNL     1       7.526  -0.870  24.853  0.00  0.00    +0.283 A 
ATOM      7 CL   UNL     1      11.087   0.583  24.840  0.00  0.00    -0.060 Cl
ATOM      8  C   UNL     1       8.955   3.007  24.563  0.00  0.00    +0.027 C 
ATOM      9  C   UNL     1       6.570   0.357  24.689  0.00  0.00    +0.315 A 
ATOM     10  O   UNL     1       5.350   0.290  24.713  0.00  0.00    -0.262 OA
ATOM     11  C   UNL     1       7.815   3.719  24.491  0.00  0.00    +0.009 C 
ENDROOT
BRANCH   1  12
ATOM     12  C   UNL     1       5.803   2.968  23.142  0.00  0.00    +0.243 C 
ATOM     13  N   UNL     1       4.474   3.310  23.295  0.00  0.00    -0.300 N 
ATOM     14  C   UNL     1       3.728   3.319  24.537  0.00  0.00    +0.108 C 
ATOM     15  C   UNL     1       2.412   4.011  24.209  0.00  0.00    +0.020 C 
ATOM     16  C   UNL     1       2.505   4.388  22.728  0.00  0.00    +0.020 C 
ATOM     17  C   UNL     1       3.585   3.479  22.169  0.00  0.00    +0.108 C 
ATOM     18  O   UNL     1       6.318   2.842  22.033  0.00  0.00    -0.273 OA
ENDBRANCH   1  12
BRANCH   6  19
ATOM     19  O   UNL     1       6.983  -2.082  25.039  0.00  0.00    -0.468 OA
BRANCH  19  20
ATOM     20  C   UNL     1       7.787  -3.247  24.801  0.00  0.00    +0.266 C 
BRANCH  20  21
ATOM     21  C   UNL     1       7.279  -3.962  23.581  0.00  0.00    -0.010 A 
ATOM     22  C   UNL     1       7.702  -5.271  23.309  0.00  0.00    +0.010 A 
ATOM     23  C   UNL     1       7.264  -5.920  22.157  0.00  0.00    +0.039 A 
ATOM     24  C   UNL     1       6.415  -5.258  21.280  0.00  0.00    +0.123 A 
ATOM     25  F   UNL     1       5.997  -5.887  20.172  0.00  0.00    -0.205 F 
ATOM     26  C   UNL     1       5.995  -3.958  21.526  0.00  0.00    +0.039 A 
ATOM     27  C   UNL     1       6.430  -3.306  22.677  0.00  0.00    +0.010 A 
ENDBRANCH  20  21
ENDBRANCH  19  20
ENDBRANCH   6  19
TORSDOF 4
ENDMDL
MODEL 7
REMARK VINA RESULT:      -6.6      5.549      8.348
REMARK  Name = 
REMARK  4 active torsions:
REMARK  status: ('A' for Active; 'I' for Inactive)
REMARK    1  A    between atoms: C_2  and  C_22
REMARK    2  A    between atoms: C_9  and  O_10
REMARK    3  A    between atoms: O_10  and  C_11
REMARK    4  A    between atoms: C_11  and  C_12
REMARK                            x       y       z     vdW  Elec       q    Type
REMARK                         _______ _______ _______ _____ _____    ______ ____
ROOT
ATOM      1  C   UNL     1       7.559   4.390  24.184  0.00  0.00    +0.200 C 
ATOM      2  N   UNL     1       8.748   3.589  23.972  0.00  0.00    -0.286 N 
ATOM      3  C   UNL     1       9.868   4.339  23.715  0.00  0.00    +0.083 A 
ATOM      4  C   UNL     1      11.054   3.739  23.532  0.00  0.00    +0.157 A 
ATOM      5  N   UNL     1      11.245   2.378  23.622  0.00  0.00    -0.195 NA
ATOM      6  C   UNL     1      10.211   1.649  23.934  0.00  0.00    +0.283 A 
ATOM      7 CL   UNL     1      12.485   4.672  23.240  0.00  0.00    -0.060 Cl
ATOM      8  C   UNL     1       9.461   5.718  23.747  0.00  0.00    +0.027 C 
ATOM      9  C   UNL     1       8.776   2.239  24.139  0.00  0.00    +0.315 A 
ATOM     10  O   UNL     1       7.795   1.578  24.443  0.00  0.00    -0.262 OA
ATOM     11  C   UNL     1       8.145   5.772  24.026  0.00  0.00    +0.009 C 
ENDROOT
BRANCH   1  12
ATOM     12  C   UNL     1       6.473   4.096  23.117  0.00  0.00    +0.243 C 
ATOM     13  N   UNL     1       5.231   3.762  23.618  0.00  0.00    -0.300 N 
ATOM     14  C   UNL     1       4.916   3.450  24.997  0.00  0.00    +0.108 C 
ATOM     15  C   UNL     1       3.396   3.416  25.064  0.00  0.00    +0.020 C 
ATOM     16  C   UNL     1       2.915   3.744  23.649  0.00  0.00    +0.020 C 
ATOM     17  C   UNL     1       4.110   3.449  22.760  0.00  0.00    +0.108 C 
ATOM     18  O   UNL     1       6.681   4.198  21.910  0.00  0.00    -0.273 OA
ENDBRANCH   1  12
BRANCH   6  19
ATOM     19  O   UNL     1      10.390   0.332  24.108  0.00  0.00    -0.468 OA
BRANCH  19  20
ATOM     20  C   UNL     1      10.442  -0.521  22.955  0.00  0.00    +0.266 C 
BRANCH  20  21
ATOM     21  C   UNL     1       9.508  -1.682  23.150  0.00  0.00    -0.010 A 
ATOM     22  C   UNL     1       9.795  -2.657  24.115  0.00  0.00    +0.010 A 
ATOM     23  C   UNL     1       8.951  -3.755  24.269  0.00  0.00    +0.039 A 
ATOM     24  C   UNL     1       7.833  -3.878  23.456  0.00  0.00    +0.123 A 
ATOM     25  F   UNL     1       7.024  -4.937  23.607  0.00  0.00    -0.205 F 
ATOM     26  C   UNL     1       7.539  -2.929  22.486  0.00  0.00    +0.039 A 
ATOM     27  C   UNL     1       8.379  -1.829  22.330  0.00  0.00    +0.010 A 
ENDBRANCH  20  21
ENDBRANCH  19  20
ENDBRANCH   6  19
TORSDOF 4
ENDMDL
MODEL 8
REMARK VINA RESULT:      -6.6      3.467      8.021
REMARK  Name = 
REMARK  4 active torsions:
REMARK  status: ('A' for Active; 'I' for Inactive)
REMARK    1  A    between atoms: C_2  and  C_22
REMARK    2  A    between atoms: C_9  and  O_10
REMARK    3  A    between atoms: O_10  and  C_11
REMARK    4  A    between atoms: C_11  and  C_12
REMARK                            x       y       z     vdW  Elec       q    Type
REMARK                         _______ _______ _______ _____ _____    ______ ____
ROOT
ATOM      1  C   UNL     1       9.322  -0.522  23.686  0.00  0.00    +0.200 C 
ATOM      2  N   UNL     1       8.636  -1.724  24.115  0.00  0.00    -0.286 N 
ATOM      3  C   UNL     1       8.286  -2.549  23.076  0.00  0.00    +0.083 A 
ATOM      4  C   UNL     1       7.675  -3.718  23.318  0.00  0.00    +0.157 A 
ATOM      5  N   UNL     1       7.395  -4.187  24.583  0.00  0.00    -0.195 NA
ATOM      6  C   UNL     1       7.780  -3.455  25.590  0.00  0.00    +0.283 A 
ATOM      7 CL   UNL     1       7.256  -4.787  22.021  0.00  0.00    -0.060 Cl
ATOM      8  C   UNL     1       8.739  -1.911  21.869  0.00  0.00    +0.027 C 
ATOM      9  C   UNL     1       8.472  -2.062  25.423  0.00  0.00    +0.315 A 
ATOM     10  O   UNL     1       8.852  -1.364  26.351  0.00  0.00    -0.262 OA
ATOM     11  C   UNL     1       9.347  -0.755  22.195  0.00  0.00    +0.009 C 
ENDROOT
BRANCH   1  12
ATOM     12  C   UNL     1       8.526   0.755  24.060  0.00  0.00    +0.243 C 
ATOM     13  N   UNL     1       9.246   1.932  24.015  0.00  0.00    -0.300 N 
ATOM     14  C   UNL     1      10.682   2.055  23.877  0.00  0.00    +0.108 C 
ATOM     15  C   UNL     1      10.936   3.533  23.619  0.00  0.00    +0.020 C 
ATOM     16  C   UNL     1       9.553   4.191  23.608  0.00  0.00    +0.020 C 
ATOM     17  C   UNL     1       8.658   3.211  24.344  0.00  0.00    +0.108 C 
ATOM     18  O   UNL     1       7.326   0.736  24.329  0.00  0.00    -0.273 OA
ENDBRANCH   1  12
BRANCH   6  19
ATOM     19  O   UNL     1       7.592  -3.930  26.830  0.00  0.00    -0.468 OA
BRANCH  19  20
ATOM     20  C   UNL     1       7.637  -5.347  27.046  0.00  0.00    +0.266 C 
BRANCH  20  21
ATOM     21  C   UNL     1       6.302  -5.819  27.548  0.00  0.00    -0.010 A 
ATOM     22  C   UNL     1       6.073  -5.938  28.926  0.00  0.00    +0.010 A 
ATOM     23  C   UNL     1       4.849  -6.413  29.391  0.00  0.00    +0.039 A 
ATOM     24  C   UNL     1       3.864  -6.774  28.480  0.00  0.00    +0.123 A 
ATOM     25  F   UNL     1       2.688  -7.232  28.933  0.00  0.00    -0.205 F 
ATOM     26  C   UNL     1       4.077  -6.675  27.112  0.00  0.00    +0.039 A 
ATOM     27  C   UNL     1       5.299  -6.199  26.643  0.00  0.00    +0.010 A 
ENDBRANCH  20  21
ENDBRANCH  19  20
ENDBRANCH   6  19
TORSDOF 4
ENDMDL
MODEL 9
REMARK VINA RESULT:      -6.5      2.572      3.345
REMARK  Name = 
REMARK  4 active torsions:
REMARK  status: ('A' for Active; 'I' for Inactive)
REMARK    1  A    between atoms: C_2  and  C_22
REMARK    2  A    between atoms: C_9  and  O_10
REMARK    3  A    between atoms: O_10  and  C_11
REMARK    4  A    between atoms: C_11  and  C_12
REMARK                            x       y       z     vdW  Elec       q    Type
REMARK                         _______ _______ _______ _____ _____    ______ ____
ROOT
ATOM      1  C   UNL     1       5.954  -2.835  26.649  0.00  0.00    +0.200 C 
ATOM      2  N   UNL     1       6.262  -2.113  25.432  0.00  0.00    -0.286 N 
ATOM      3  C   UNL     1       5.766  -0.833  25.420  0.00  0.00    +0.083 A 
ATOM      4  C   UNL     1       6.001  -0.028  24.374  0.00  0.00    +0.157 A 
ATOM      5  N   UNL     1       6.763  -0.391  23.285  0.00  0.00    -0.195 NA
ATOM      6  C   UNL     1       7.304  -1.577  23.303  0.00  0.00    +0.283 A 
ATOM      7 CL   UNL     1       5.411   1.601  24.357  0.00  0.00    -0.060 Cl
ATOM      8  C   UNL     1       5.083  -0.642  26.671  0.00  0.00    +0.027 C 
ATOM      9  C   UNL     1       7.072  -2.607  24.457  0.00  0.00    +0.315 A 
ATOM     10  O   UNL     1       7.577  -3.719  24.502  0.00  0.00    -0.262 OA
ATOM     11  C   UNL     1       5.188  -1.770  27.397  0.00  0.00    +0.009 C 
ENDROOT
BRANCH   1  12
ATOM     12  C   UNL     1       5.081  -4.085  26.367  0.00  0.00    +0.243 C 
ATOM     13  N   UNL     1       5.304  -5.161  27.203  0.00  0.00    -0.300 N 
ATOM     14  C   UNL     1       6.398  -5.306  28.142  0.00  0.00    +0.108 C 
ATOM     15  C   UNL     1       6.042  -6.521  28.988  0.00  0.00    +0.020 C 
ATOM     16  C   UNL     1       4.689  -7.005  28.461  0.00  0.00    +0.020 C 
ATOM     17  C   UNL     1       4.583  -6.406  27.070  0.00  0.00    +0.108 C 
ATOM     18  O   UNL     1       4.215  -4.109  25.495  0.00  0.00    -0.273 OA
ENDBRANCH   1  12
BRANCH   6  19
ATOM     19  O   UNL     1       8.116  -1.921  22.293  0.00  0.00    -0.468 OA
BRANCH  19  20
ATOM     20  C   UNL     1       9.535  -1.794  22.467  0.00  0.00    +0.266 C 
BRANCH  20  21
ATOM     21  C   UNL     1       9.873  -0.365  22.785  0.00  0.00    -0.010 A 
ATOM     22  C   UNL     1       9.769   0.617  21.790  0.00  0.00    +0.010 A 
ATOM     23  C   UNL     1      10.120   1.936  22.073  0.00  0.00    +0.039 A 
ATOM     24  C   UNL     1      10.580   2.265  23.341  0.00  0.00    +0.123 A 
ATOM     25  F   UNL     1      10.917   3.535  23.608  0.00  0.00    -0.205 F 
ATOM     26  C   UNL     1      10.701   1.303  24.335  0.00  0.00    +0.039 A 
ATOM     27  C   UNL     1      10.349  -0.015  24.058  0.00  0.00    +0.010 A 
ENDBRANCH  20  21
ENDBRANCH  19  20
ENDBRANCH   6  19
TORSDOF 4
ENDMDL
