MODEL 1
REMARK VINA RESULT:      -7.3      0.000      0.000
REMARK  Name = 
REMARK  4 active torsions:
REMARK  status: ('A' for Active; 'I' for Inactive)
REMARK    1  A    between atoms: C_1  and  C_2
REMARK    2  A    between atoms: C_2  and  C_16
REMARK    3  A    between atoms: N_6  and  N_7
REMARK    4  A    between atoms: N_7  and  C_8
REMARK                            x       y       z     vdW  Elec       q    Type
REMARK                         _______ _______ _______ _____ _____    ______ ____
ROOT
ATOM      1  C   UNL     1       8.633  -0.321  26.375  0.00  0.00    +0.071 C 
ATOM      2  C   UNL     1       8.898  -0.170  24.877  0.00  0.00    +0.217 C 
ATOM      3  C   UNL     1       7.762  -0.750  24.053  0.00  0.00    +0.289 C 
ATOM      4  O   UNL     1       6.629  -0.288  23.969  0.00  0.00    -0.269 OA
ATOM      5  N   UNL     1       8.271  -1.845  23.407  0.00  0.00    -0.119 N 
ATOM      6  C   UNL     1       9.621  -1.874  23.537  0.00  0.00    +0.428 C 
ATOM      7  O   UNL     1      10.419  -2.473  22.831  0.00  0.00    -0.224 OA
ATOM      8  O   UNL     1      10.004  -1.043  24.546  0.00  0.00    -0.428 OA
ENDROOT
BRANCH   2   9
ATOM      9  C   UNL     1       9.236   1.266  24.489  0.00  0.00    +0.040 A 
ATOM     10  C   UNL     1       8.450   2.338  24.942  0.00  0.00    +0.134 A 
ATOM     11  F   UNL     1       7.381   2.108  25.716  0.00  0.00    -0.205 F 
ATOM     12  C   UNL     1       8.754   3.660  24.630  0.00  0.00    +0.077 A 
ATOM     13  C   UNL     1       9.864   3.930  23.855  0.00  0.00    +0.126 A 
ATOM     14  F   UNL     1      10.186   5.197  23.570  0.00  0.00    -0.205 F 
ATOM     15  C   UNL     1      10.663   2.899  23.373  0.00  0.00    +0.039 A 
ATOM     16  C   UNL     1      10.351   1.572  23.684  0.00  0.00    +0.013 A 
ENDBRANCH   2   9
BRANCH   5  17
ATOM     17  N   UNL     1       7.675  -2.316  22.235  0.00  0.00    -0.252 N 
ATOM     18  H   UNL     1       8.152  -2.110  21.359  0.00  0.00    +0.171 HD
BRANCH  17  19
ATOM     19  C   UNL     1       6.874  -3.469  22.281  0.00  0.00    +0.045 A 
ATOM     20  C   UNL     1       7.370  -4.774  22.172  0.00  0.00    +0.024 A 
ATOM     21  C   UNL     1       6.557  -5.878  22.448  0.00  0.00    +0.002 A 
ATOM     22  C   UNL     1       5.236  -5.690  22.846  0.00  0.00    +0.000 A 
ATOM     23  C   UNL     1       4.715  -4.402  22.923  0.00  0.00    +0.002 A 
ATOM     24  C   UNL     1       5.526  -3.303  22.631  0.00  0.00    +0.024 A 
ENDBRANCH  17  19
ENDBRANCH   5  17
TORSDOF 3
ENDMDL
MODEL 2
REMARK VINA RESULT:      -7.2      3.296      7.439
REMARK  Name = 
REMARK  4 active torsions:
REMARK  status: ('A' for Active; 'I' for Inactive)
REMARK    1  A    between atoms: C_1  and  C_2
REMARK    2  A    between atoms: C_2  and  C_16
REMARK    3  A    between atoms: N_6  and  N_7
REMARK    4  A    between atoms: N_7  and  C_8
REMARK                            x       y       z     vdW  Elec       q    Type
REMARK                         _______ _______ _______ _____ _____    ______ ____
ROOT
ATOM      1  C   UNL     1       6.941  -5.590  21.799  0.00  0.00    +0.071 C 
ATOM      2  C   UNL     1       7.060  -5.033  23.217  0.00  0.00    +0.217 C 
ATOM      3  C   UNL     1       7.010  -3.515  23.222  0.00  0.00    +0.289 C 
ATOM      4  O   UNL     1       6.028  -2.829  22.961  0.00  0.00    -0.269 OA
ATOM      5  N   UNL     1       8.252  -3.087  23.610  0.00  0.00    -0.119 N 
ATOM      6  C   UNL     1       8.980  -4.136  24.072  0.00  0.00    +0.428 C 
ATOM      7  O   UNL     1       9.959  -4.091  24.803  0.00  0.00    -0.224 OA
ATOM      8  O   UNL     1       8.406  -5.305  23.674  0.00  0.00    -0.428 OA
ENDROOT
BRANCH   2   9
ATOM      9  C   UNL     1       6.051  -5.660  24.174  0.00  0.00    +0.040 A 
ATOM     10  C   UNL     1       6.137  -5.437  25.558  0.00  0.00    +0.134 A 
ATOM     11  F   UNL     1       7.119  -4.675  26.057  0.00  0.00    -0.205 F 
ATOM     12  C   UNL     1       5.210  -5.969  26.450  0.00  0.00    +0.077 A 
ATOM     13  C   UNL     1       4.171  -6.737  25.963  0.00  0.00    +0.126 A 
ATOM     14  F   UNL     1       3.257  -7.232  26.805  0.00  0.00    -0.205 F 
ATOM     15  C   UNL     1       4.056  -6.996  24.602  0.00  0.00    +0.039 A 
ATOM     16  C   UNL     1       4.991  -6.464  23.710  0.00  0.00    +0.013 A 
ENDBRANCH   2   9
BRANCH   5  17
ATOM     17  N   UNL     1       8.420  -1.822  24.175  0.00  0.00    -0.252 N 
ATOM     18  H   UNL     1       8.483  -1.773  25.190  0.00  0.00    +0.171 HD
BRANCH  17  19
ATOM     19  C   UNL     1       9.064  -0.815  23.437  0.00  0.00    +0.045 A 
ATOM     20  C   UNL     1       8.848  -0.582  22.073  0.00  0.00    +0.024 A 
ATOM     21  C   UNL     1       9.347   0.568  21.452  0.00  0.00    +0.002 A 
ATOM     22  C   UNL     1      10.064   1.506  22.191  0.00  0.00    +0.000 A 
ATOM     23  C   UNL     1      10.320   1.272  23.539  0.00  0.00    +0.002 A 
ATOM     24  C   UNL     1       9.834   0.115  24.151  0.00  0.00    +0.024 A 
ENDBRANCH  17  19
ENDBRANCH   5  17
TORSDOF 3
ENDMDL
MODEL 3
REMARK VINA RESULT:      -7.1      3.451      6.643
REMARK  Name = 
REMARK  4 active torsions:
REMARK  status: ('A' for Active; 'I' for Inactive)
REMARK    1  A    between atoms: C_1  and  C_2
REMARK    2  A    between atoms: C_2  and  C_16
REMARK    3  A    between atoms: N_6  and  N_7
REMARK    4  A    between atoms: N_7  and  C_8
REMARK                            x       y       z     vdW  Elec       q    Type
REMARK                         _______ _______ _______ _____ _____    ______ ____
ROOT
ATOM      1  C   UNL     1       7.629  -4.657  26.011  0.00  0.00    +0.071 C 
ATOM      2  C   UNL     1       7.738  -3.601  24.911  0.00  0.00    +0.217 C 
ATOM      3  C   UNL     1       9.136  -3.009  24.849  0.00  0.00    +0.289 C 
ATOM      4  O   UNL     1      10.148  -3.595  24.482  0.00  0.00    -0.269 OA
ATOM      5  N   UNL     1       9.020  -1.701  25.240  0.00  0.00    -0.119 N 
ATOM      6  C   UNL     1       7.710  -1.350  25.303  0.00  0.00    +0.428 C 
ATOM      7  O   UNL     1       7.246  -0.220  25.269  0.00  0.00    -0.224 OA
ATOM      8  O   UNL     1       6.934  -2.469  25.319  0.00  0.00    -0.428 OA
ENDROOT
BRANCH   2   9
ATOM      9  C   UNL     1       7.257  -4.119  23.559  0.00  0.00    +0.040 A 
ATOM     10  C   UNL     1       7.720  -5.344  23.051  0.00  0.00    +0.134 A 
ATOM     11  F   UNL     1       8.604  -6.071  23.748  0.00  0.00    -0.205 F 
ATOM     12  C   UNL     1       7.273  -5.856  21.837  0.00  0.00    +0.077 A 
ATOM     13  C   UNL     1       6.343  -5.142  21.107  0.00  0.00    +0.126 A 
ATOM     14  F   UNL     1       5.882  -5.634  19.952  0.00  0.00    -0.205 F 
ATOM     15  C   UNL     1       5.868  -3.918  21.564  0.00  0.00    +0.039 A 
ATOM     16  C   UNL     1       6.324  -3.405  22.782  0.00  0.00    +0.013 A 
ENDBRANCH   2   9
BRANCH   5  17
ATOM     17  N   UNL     1       9.975  -0.759  24.852  0.00  0.00    -0.252 N 
ATOM     18  H   UNL     1      10.914  -0.870  25.230  0.00  0.00    +0.171 HD
BRANCH  17  19
ATOM     19  C   UNL     1       9.849  -0.119  23.608  0.00  0.00    +0.045 A 
ATOM     20  C   UNL     1       9.570  -0.784  22.408  0.00  0.00    +0.024 A 
ATOM     21  C   UNL     1       9.238  -0.072  21.250  0.00  0.00    +0.002 A 
ATOM     22  C   UNL     1       9.173   1.319  21.281  0.00  0.00    +0.000 A 
ATOM     23  C   UNL     1       9.484   1.998  22.455  0.00  0.00    +0.002 A 
ATOM     24  C   UNL     1       9.831   1.283  23.604  0.00  0.00    +0.024 A 
ENDBRANCH  17  19
ENDBRANCH   5  17
TORSDOF 3
ENDMDL
MODEL 4
REMARK VINA RESULT:      -7.0      2.508      3.113
REMARK  Name = 
REMARK  4 active torsions:
REMARK  status: ('A' for Active; 'I' for Inactive)
REMARK    1  A    between atoms: C_1  and  C_2
REMARK    2  A    between atoms: C_2  and  C_16
REMARK    3  A    between atoms: N_6  and  N_7
REMARK    4  A    between atoms: N_7  and  C_8
REMARK                            x       y       z     vdW  Elec       q    Type
REMARK                         _______ _______ _______ _____ _____    ______ ____
ROOT
ATOM      1  C   UNL     1       8.544  -1.201  26.714  0.00  0.00    +0.071 C 
ATOM      2  C   UNL     1       8.622  -1.757  25.292  0.00  0.00    +0.217 C 
ATOM      3  C   UNL     1       7.297  -2.362  24.861  0.00  0.00    +0.289 C 
ATOM      4  O   UNL     1       6.265  -1.739  24.634  0.00  0.00    -0.269 OA
ATOM      5  N   UNL     1       7.506  -3.709  24.741  0.00  0.00    -0.119 N 
ATOM      6  C   UNL     1       8.834  -3.981  24.809  0.00  0.00    +0.428 C 
ATOM      7  O   UNL     1       9.405  -4.982  24.403  0.00  0.00    -0.224 OA
ATOM      8  O   UNL     1       9.496  -2.910  25.329  0.00  0.00    -0.428 OA
ENDROOT
BRANCH   2   9
ATOM      9  C   UNL     1       9.156  -0.733  24.296  0.00  0.00    +0.040 A 
ATOM     10  C   UNL     1       9.215  -1.027  22.924  0.00  0.00    +0.134 A 
ATOM     11  F   UNL     1       8.811  -2.222  22.473  0.00  0.00    -0.205 F 
ATOM     12  C   UNL     1       9.667  -0.100  21.989  0.00  0.00    +0.077 A 
ATOM     13  C   UNL     1      10.066   1.150  22.420  0.00  0.00    +0.126 A 
ATOM     14  F   UNL     1      10.476   2.062  21.531  0.00  0.00    -0.205 F 
ATOM     15  C   UNL     1      10.038   1.479  23.771  0.00  0.00    +0.039 A 
ATOM     16  C   UNL     1       9.589   0.543  24.707  0.00  0.00    +0.013 A 
ENDBRANCH   2   9
BRANCH   5  17
ATOM     17  N   UNL     1       6.679  -4.484  23.925  0.00  0.00    -0.252 N 
ATOM     18  H   UNL     1       6.977  -4.620  22.961  0.00  0.00    +0.171 HD
BRANCH  17  19
ATOM     19  C   UNL     1       5.877  -5.483  24.503  0.00  0.00    +0.045 A 
ATOM     20  C   UNL     1       5.858  -5.780  25.871  0.00  0.00    +0.024 A 
ATOM     21  C   UNL     1       4.882  -6.626  26.410  0.00  0.00    +0.002 A 
ATOM     22  C   UNL     1       3.906  -7.179  25.586  0.00  0.00    +0.000 A 
ATOM     23  C   UNL     1       3.931  -6.925  24.218  0.00  0.00    +0.002 A 
ATOM     24  C   UNL     1       4.918  -6.093  23.682  0.00  0.00    +0.024 A 
ENDBRANCH  17  19
ENDBRANCH   5  17
TORSDOF 3
ENDMDL
MODEL 5
REMARK VINA RESULT:      -6.8      2.522      3.572
REMARK  Name = 
REMARK  4 active torsions:
REMARK  status: ('A' for Active; 'I' for Inactive)
REMARK    1  A    between atoms: C_1  and  C_2
REMARK    2  A    between atoms: C_2  and  C_16
REMARK    3  A    between atoms: N_6  and  N_7
REMARK    4  A    between atoms: N_7  and  C_8
REMARK                            x       y       z     vdW  Elec       q    Type
REMARK                         _______ _______ _______ _____ _____    ______ ____
ROOT
ATOM      1  C   UNL     1       9.674  -3.685  24.703  0.00  0.00    +0.071 C 
ATOM      2  C   UNL     1       8.629  -3.070  23.773  0.00  0.00    +0.217 C 
ATOM      3  C   UNL     1       7.261  -3.020  24.434  0.00  0.00    +0.289 C 
ATOM      4  O   UNL     1       6.947  -2.302  25.377  0.00  0.00    -0.269 OA
ATOM      5  N   UNL     1       6.465  -3.894  23.744  0.00  0.00    -0.119 N 
ATOM      6  C   UNL     1       7.090  -4.292  22.606  0.00  0.00    +0.428 C 
ATOM      7  O   UNL     1       6.572  -4.767  21.606  0.00  0.00    -0.224 OA
ATOM      8  O   UNL     1       8.418  -4.002  22.686  0.00  0.00    -0.428 OA
ENDROOT
BRANCH   2   9
ATOM      9  C   UNL     1       9.067  -1.717  23.221  0.00  0.00    +0.040 A 
ATOM     10  C   UNL     1       9.578  -0.724  24.071  0.00  0.00    +0.134 A 
ATOM     11  F   UNL     1       9.678  -0.952  25.388  0.00  0.00    -0.205 F 
ATOM     12  C   UNL     1      10.016   0.506  23.590  0.00  0.00    +0.077 A 
ATOM     13  C   UNL     1       9.950   0.761  22.235  0.00  0.00    +0.126 A 
ATOM     14  F   UNL     1      10.393   1.928  21.753  0.00  0.00    -0.205 F 
ATOM     15  C   UNL     1       9.437  -0.188  21.357  0.00  0.00    +0.039 A 
ATOM     16  C   UNL     1       8.993  -1.421  21.845  0.00  0.00    +0.013 A 
ENDBRANCH   2   9
BRANCH   5  17
ATOM     17  N   UNL     1       5.076  -3.750  23.760  0.00  0.00    -0.252 N 
ATOM     18  H   UNL     1       4.682  -3.009  23.183  0.00  0.00    +0.171 HD
BRANCH  17  19
ATOM     19  C   UNL     1       4.268  -4.869  24.020  0.00  0.00    +0.045 A 
ATOM     20  C   UNL     1       3.129  -5.203  23.277  0.00  0.00    +0.024 A 
ATOM     21  C   UNL     1       2.500  -6.442  23.444  0.00  0.00    +0.002 A 
ATOM     22  C   UNL     1       3.008  -7.367  24.352  0.00  0.00    +0.000 A 
ATOM     23  C   UNL     1       4.117  -7.037  25.125  0.00  0.00    +0.002 A 
ATOM     24  C   UNL     1       4.732  -5.792  24.968  0.00  0.00    +0.024 A 
ENDBRANCH  17  19
ENDBRANCH   5  17
TORSDOF 3
ENDMDL
MODEL 6
REMARK VINA RESULT:      -6.8      3.475      6.501
REMARK  Name = 
REMARK  4 active torsions:
REMARK  status: ('A' for Active; 'I' for Inactive)
REMARK    1  A    between atoms: C_1  and  C_2
REMARK    2  A    between atoms: C_2  and  C_16
REMARK    3  A    between atoms: N_6  and  N_7
REMARK    4  A    between atoms: N_7  and  C_8
REMARK                            x       y       z     vdW  Elec       q    Type
REMARK                         _______ _______ _______ _____ _____    ______ ____
ROOT
ATOM      1  C   UNL     1       9.153  -4.713  25.954  0.00  0.00    +0.071 C 
ATOM      2  C   UNL     1       8.433  -3.456  25.469  0.00  0.00    +0.217 C 
ATOM      3  C   UNL     1       9.363  -2.559  24.669  0.00  0.00    +0.289 C 
ATOM      4  O   UNL     1       9.820  -2.809  23.559  0.00  0.00    -0.269 OA
ATOM      5  N   UNL     1       9.543  -1.424  25.413  0.00  0.00    -0.119 N 
ATOM      6  C   UNL     1       8.663  -1.403  26.447  0.00  0.00    +0.428 C 
ATOM      7  O   UNL     1       8.298  -0.428  27.087  0.00  0.00    -0.224 OA
ATOM      8  O   UNL     1       8.144  -2.648  26.635  0.00  0.00    -0.428 OA
ENDROOT
BRANCH   2   9
ATOM      9  C   UNL     1       7.140  -3.777  24.726  0.00  0.00    +0.040 A 
ATOM     10  C   UNL     1       7.097  -4.798  23.764  0.00  0.00    +0.134 A 
ATOM     11  F   UNL     1       8.202  -5.500  23.477  0.00  0.00    -0.205 F 
ATOM     12  C   UNL     1       5.924  -5.134  23.095  0.00  0.00    +0.077 A 
ATOM     13  C   UNL     1       4.763  -4.446  23.387  0.00  0.00    +0.126 A 
ATOM     14  F   UNL     1       3.620  -4.776  22.773  0.00  0.00    -0.205 F 
ATOM     15  C   UNL     1       4.761  -3.418  24.323  0.00  0.00    +0.039 A 
ATOM     16  C   UNL     1       5.943  -3.080  24.988  0.00  0.00    +0.013 A 
ENDBRANCH   2   9
BRANCH   5  17
ATOM     17  N   UNL     1       9.924  -0.229  24.801  0.00  0.00    -0.252 N 
ATOM     18  H   UNL     1      10.909   0.024  24.855  0.00  0.00    +0.171 HD
BRANCH  17  19
ATOM     19  C   UNL     1       9.193   0.250  23.702  0.00  0.00    +0.045 A 
ATOM     20  C   UNL     1       7.837   0.595  23.753  0.00  0.00    +0.024 A 
ATOM     21  C   UNL     1       7.226   1.272  22.690  0.00  0.00    +0.002 A 
ATOM     22  C   UNL     1       7.969   1.619  21.565  0.00  0.00    +0.000 A 
ATOM     23  C   UNL     1       9.308   1.249  21.481  0.00  0.00    +0.002 A 
ATOM     24  C   UNL     1       9.909   0.560  22.536  0.00  0.00    +0.024 A 
ENDBRANCH  17  19
ENDBRANCH   5  17
TORSDOF 3
ENDMDL
MODEL 7
REMARK VINA RESULT:      -6.7      2.680      7.135
REMARK  Name = 
REMARK  4 active torsions:
REMARK  status: ('A' for Active; 'I' for Inactive)
REMARK    1  A    between atoms: C_1  and  C_2
REMARK    2  A    between atoms: C_2  and  C_16
REMARK    3  A    between atoms: N_6  and  N_7
REMARK    4  A    between atoms: N_7  and  C_8
REMARK                            x       y       z     vdW  Elec       q    Type
REMARK                         _______ _______ _______ _____ _____    ______ ____
ROOT
ATOM      1  C   UNL     1       8.882  -0.844  26.880  0.00  0.00    +0.071 C 
ATOM      2  C   UNL     1       8.472  -0.658  25.419  0.00  0.00    +0.217 C 
ATOM      3  C   UNL     1       9.440   0.252  24.683  0.00  0.00    +0.289 C 
ATOM      4  O   UNL     1      10.601  -0.019  24.395  0.00  0.00    -0.269 OA
ATOM      5  N   UNL     1       8.747   1.394  24.382  0.00  0.00    -0.119 N 
ATOM      6  C   UNL     1       7.423   1.209  24.622  0.00  0.00    +0.428 C 
ATOM      7  O   UNL     1       6.492   1.851  24.158  0.00  0.00    -0.224 OA
ATOM      8  O   UNL     1       7.247   0.113  25.411  0.00  0.00    -0.428 OA
ENDROOT
BRANCH   2   9
ATOM      9  C   UNL     1       8.252  -1.988  24.704  0.00  0.00    +0.040 A 
ATOM     10  C   UNL     1       7.910  -2.024  23.343  0.00  0.00    +0.134 A 
ATOM     11  F   UNL     1       7.761  -0.884  22.655  0.00  0.00    -0.205 F 
ATOM     12  C   UNL     1       7.736  -3.223  22.657  0.00  0.00    +0.077 A 
ATOM     13  C   UNL     1       7.909  -4.415  23.333  0.00  0.00    +0.126 A 
ATOM     14  F   UNL     1       7.773  -5.576  22.681  0.00  0.00    -0.205 F 
ATOM     15  C   UNL     1       8.234  -4.426  24.685  0.00  0.00    +0.039 A 
ATOM     16  C   UNL     1       8.402  -3.220  25.370  0.00  0.00    +0.013 A 
ENDBRANCH   2   9
BRANCH   5  17
ATOM     17  N   UNL     1       9.155   2.212  23.327  0.00  0.00    -0.252 N 
ATOM     18  H   UNL     1       8.552   2.242  22.506  0.00  0.00    +0.171 HD
BRANCH  17  19
ATOM     19  C   UNL     1       9.944   3.342  23.593  0.00  0.00    +0.045 A 
ATOM     20  C   UNL     1      11.308   3.436  23.290  0.00  0.00    +0.024 A 
ATOM     21  C   UNL     1      11.981   4.660  23.375  0.00  0.00    +0.002 A 
ATOM     22  C   UNL     1      11.295   5.809  23.757  0.00  0.00    +0.000 A 
ATOM     23  C   UNL     1       9.948   5.728  24.098  0.00  0.00    +0.002 A 
ATOM     24  C   UNL     1       9.284   4.501  24.028  0.00  0.00    +0.024 A 
ENDBRANCH  17  19
ENDBRANCH   5  17
TORSDOF 3
ENDMDL
MODEL 8
REMARK VINA RESULT:      -6.7      2.764      6.879
REMARK  Name = 
REMARK  4 active torsions:
REMARK  status: ('A' for Active; 'I' for Inactive)
REMARK    1  A    between atoms: C_1  and  C_2
REMARK    2  A    between atoms: C_2  and  C_16
REMARK    3  A    between atoms: N_6  and  N_7
REMARK    4  A    between atoms: N_7  and  C_8
REMARK                            x       y       z     vdW  Elec       q    Type
REMARK                         _______ _______ _______ _____ _____    ______ ____
ROOT
ATOM      1  C   UNL     1       9.092  -1.376  21.626  0.00  0.00    +0.071 C 
ATOM      2  C   UNL     1       9.140  -0.917  23.083  0.00  0.00    +0.217 C 
ATOM      3  C   UNL     1       8.296   0.328  23.299  0.00  0.00    +0.289 C 
ATOM      4  O   UNL     1       7.072   0.382  23.250  0.00  0.00    -0.269 OA
ATOM      5  N   UNL     1       9.169   1.341  23.595  0.00  0.00    -0.119 N 
ATOM      6  C   UNL     1      10.407   0.834  23.822  0.00  0.00    +0.428 C 
ATOM      7  O   UNL     1      11.322   1.366  24.435  0.00  0.00    -0.224 OA
ATOM      8  O   UNL     1      10.481  -0.437  23.339  0.00  0.00    -0.428 OA
ENDROOT
BRANCH   2   9
ATOM      9  C   UNL     1       8.795  -2.040  24.057  0.00  0.00    +0.040 A 
ATOM     10  C   UNL     1       8.807  -1.818  25.443  0.00  0.00    +0.134 A 
ATOM     11  F   UNL     1       9.132  -0.613  25.930  0.00  0.00    -0.205 F 
ATOM     12  C   UNL     1       8.465  -2.815  26.353  0.00  0.00    +0.077 A 
ATOM     13  C   UNL     1       8.100  -4.060  25.881  0.00  0.00    +0.126 A 
ATOM     14  F   UNL     1       7.741  -5.020  26.741  0.00  0.00    -0.205 F 
ATOM     15  C   UNL     1       8.088  -4.328  24.516  0.00  0.00    +0.039 A 
ATOM     16  C   UNL     1       8.438  -3.326  23.607  0.00  0.00    +0.013 A 
ENDBRANCH   2   9
BRANCH   5  17
ATOM     17  N   UNL     1       8.736   2.464  24.303  0.00  0.00    -0.252 N 
ATOM     18  H   UNL     1       8.938   2.488  25.300  0.00  0.00    +0.171 HD
BRANCH  17  19
ATOM     19  C   UNL     1       8.610   3.694  23.637  0.00  0.00    +0.045 A 
ATOM     20  C   UNL     1       7.545   4.022  22.789  0.00  0.00    +0.024 A 
ATOM     21  C   UNL     1       7.363   5.334  22.337  0.00  0.00    +0.002 A 
ATOM     22  C   UNL     1       8.241   6.338  22.736  0.00  0.00    +0.000 A 
ATOM     23  C   UNL     1       9.327   6.023  23.548  0.00  0.00    +0.002 A 
ATOM     24  C   UNL     1       9.514   4.709  23.983  0.00  0.00    +0.024 A 
ENDBRANCH  17  19
ENDBRANCH   5  17
TORSDOF 3
ENDMDL
MODEL 9
REMARK VINA RESULT:      -6.5      2.499      2.749
REMARK  Name = 
REMARK  4 active torsions:
REMARK  status: ('A' for Active; 'I' for Inactive)
REMARK    1  A    between atoms: C_1  and  C_2
REMARK    2  A    between atoms: C_2  and  C_16
REMARK    3  A    between atoms: N_6  and  N_7
REMARK    4  A    between atoms: N_7  and  C_8
REMARK                            x       y       z     vdW  Elec       q    Type
REMARK                         _______ _______ _______ _____ _____    ______ ____
ROOT
ATOM      1  C   UNL     1      11.018   0.799  24.745  0.00  0.00    +0.071 C 
ATOM      2  C   UNL     1       9.789   0.530  23.878  0.00  0.00    +0.217 C 
ATOM      3  C   UNL     1       8.838  -0.444  24.552  0.00  0.00    +0.289 C 
ATOM      4  O   UNL     1       8.167  -0.215  25.553  0.00  0.00    -0.269 OA
ATOM      5  N   UNL     1       8.856  -1.588  23.799  0.00  0.00    -0.119 N 
ATOM      6  C   UNL     1       9.504  -1.362  22.628  0.00  0.00    +0.428 C 
ATOM      7  O   UNL     1       9.414  -2.012  21.596  0.00  0.00    -0.224 OA
ATOM      8  O   UNL     1      10.233  -0.215  22.719  0.00  0.00    -0.428 OA
ENDROOT
BRANCH   2   9
ATOM      9  C   UNL     1       9.099   1.817  23.434  0.00  0.00    +0.040 A 
ATOM     10  C   UNL     1       7.993   1.778  22.569  0.00  0.00    +0.134 A 
ATOM     11  F   UNL     1       7.536   0.605  22.112  0.00  0.00    -0.205 F 
ATOM     12  C   UNL     1       7.324   2.934  22.174  0.00  0.00    +0.077 A 
ATOM     13  C   UNL     1       7.757   4.156  22.648  0.00  0.00    +0.126 A 
ATOM     14  F   UNL     1       7.107   5.273  22.301  0.00  0.00    -0.205 F 
ATOM     15  C   UNL     1       8.856   4.243  23.495  0.00  0.00    +0.039 A 
ATOM     16  C   UNL     1       9.528   3.080  23.885  0.00  0.00    +0.013 A 
ENDBRANCH   2   9
BRANCH   5  17
ATOM     17  N   UNL     1       7.782  -2.479  23.839  0.00  0.00    -0.252 N 
ATOM     18  H   UNL     1       7.263  -2.616  22.973  0.00  0.00    +0.171 HD
BRANCH  17  19
ATOM     19  C   UNL     1       7.795  -3.538  24.761  0.00  0.00    +0.045 A 
ATOM     20  C   UNL     1       8.943  -3.982  25.429  0.00  0.00    +0.024 A 
ATOM     21  C   UNL     1       8.852  -4.885  26.494  0.00  0.00    +0.002 A 
ATOM     22  C   UNL     1       7.608  -5.352  26.909  0.00  0.00    +0.000 A 
ATOM     23  C   UNL     1       6.459  -4.951  26.232  0.00  0.00    +0.002 A 
ATOM     24  C   UNL     1       6.557  -4.061  25.160  0.00  0.00    +0.024 A 
ENDBRANCH  17  19
ENDBRANCH   5  17
TORSDOF 3
ENDMDL
