MODEL 1
REMARK VINA RESULT:      -3.8      0.000      0.000
REMARK  Name = 
REMARK  7 active torsions:
REMARK  status: ('A' for Active; 'I' for Inactive)
REMARK    1  A    between atoms: C_1  and  S_2
REMARK    2  A    between atoms: S_2  and  S_3
REMARK    3  A    between atoms: S_3  and  C_4
REMARK    4  A    between atoms: C_4  and  C_5
REMARK    5  A    between atoms: C_5  and  N_7
REMARK    6  A    between atoms: C_5  and  C_8
REMARK    7  A    between atoms: C_8  and  O_9
REMARK                            x       y       z     vdW  Elec       q    Type
REMARK                         _______ _______ _______ _____ _____    ______ ____
ROOT
ATOM      1  C   UNK     1       8.652  -4.614  26.572  0.00  0.00    +0.171 C 
ENDROOT
BRANCH   1   2
ATOM      2  N   UNK     1       7.952  -5.748  27.269  0.00  0.00    -0.318 NA
ATOM      3  H   UNK     1       7.572  -5.381  28.149  0.00  0.00    +0.119 HD
ATOM      4  H   UNK     1       7.120  -5.992  26.722  0.00  0.00    +0.119 HD
ENDBRANCH   1   2
BRANCH   1   5
ATOM      5  C   UNK     1       9.274  -5.176  25.284  0.00  0.00    +0.323 C 
ATOM      6  O   UNK     1       8.699  -5.313  24.219  0.00  0.00    -0.249 OA
BRANCH   5   7
ATOM      7  O   UNK     1      10.583  -5.501  25.473  0.00  0.00    -0.480 OA
ATOM      8  H   UNK     1      10.603  -6.446  25.766  0.00  0.00    +0.295 HD
ENDBRANCH   5   7
ENDBRANCH   1   5
BRANCH   1   9
ATOM      9  C   UNK     1       7.635  -3.514  26.251  0.00  0.00    +0.111 C 
BRANCH   9  10
ATOM     10  S   UNK     1       8.397  -1.873  26.041  0.00  0.00    -0.091 S 
BRANCH  10  12
ATOM     11  C   UNK     1       9.939  -2.037  23.479  0.00  0.00    +0.097 C 
ATOM     12  S   UNK     1       8.260  -1.617  24.003  0.00  0.00    -0.096 S 
ENDBRANCH  10  12
ENDBRANCH   9  10
ENDBRANCH   1   9
TORSDOF 6
ENDMDL
MODEL 2
REMARK VINA RESULT:      -3.7      2.330      2.533
REMARK  Name = 
REMARK  7 active torsions:
REMARK  status: ('A' for Active; 'I' for Inactive)
REMARK    1  A    between atoms: C_1  and  S_2
REMARK    2  A    between atoms: S_2  and  S_3
REMARK    3  A    between atoms: S_3  and  C_4
REMARK    4  A    between atoms: C_4  and  C_5
REMARK    5  A    between atoms: C_5  and  N_7
REMARK    6  A    between atoms: C_5  and  C_8
REMARK    7  A    between atoms: C_8  and  O_9
REMARK                            x       y       z     vdW  Elec       q    Type
REMARK                         _______ _______ _______ _____ _____    ______ ____
ROOT
ATOM      1  C   UNK     1       8.465  -4.459  26.434  0.00  0.00    +0.171 C 
ENDROOT
BRANCH   1   2
ATOM      2  N   UNK     1       8.080  -5.685  27.215  0.00  0.00    -0.318 NA
ATOM      3  H   UNK     1       8.754  -6.424  26.980  0.00  0.00    +0.119 HD
ATOM      4  H   UNK     1       8.255  -5.497  28.207  0.00  0.00    +0.119 HD
ENDBRANCH   1   2
BRANCH   1   5
ATOM      5  C   UNK     1       9.528  -4.879  25.407  0.00  0.00    +0.323 C 
ATOM      6  O   UNK     1      10.003  -4.163  24.544  0.00  0.00    -0.249 OA
BRANCH   5   7
ATOM      7  O   UNK     1       9.897  -6.178  25.586  0.00  0.00    -0.480 OA
ATOM      8  H   UNK     1       9.067  -6.689  25.756  0.00  0.00    +0.295 HD
ENDBRANCH   5   7
ENDBRANCH   1   5
BRANCH   1   9
ATOM      9  C   UNK     1       7.224  -3.895  25.734  0.00  0.00    +0.111 C 
BRANCH   9  10
ATOM     10  S   UNK     1       6.378  -5.118  24.681  0.00  0.00    -0.091 S 
BRANCH  10  12
ATOM     11  C   UNK     1       7.147  -5.878  21.888  0.00  0.00    +0.097 C 
ATOM     12  S   UNK     1       6.754  -4.368  22.802  0.00  0.00    -0.096 S 
ENDBRANCH  10  12
ENDBRANCH   9  10
ENDBRANCH   1   9
TORSDOF 6
ENDMDL
MODEL 3
REMARK VINA RESULT:      -3.6      2.958      3.298
REMARK  Name = 
REMARK  7 active torsions:
REMARK  status: ('A' for Active; 'I' for Inactive)
REMARK    1  A    between atoms: C_1  and  S_2
REMARK    2  A    between atoms: S_2  and  S_3
REMARK    3  A    between atoms: S_3  and  C_4
REMARK    4  A    between atoms: C_4  and  C_5
REMARK    5  A    between atoms: C_5  and  N_7
REMARK    6  A    between atoms: C_5  and  C_8
REMARK    7  A    between atoms: C_8  and  O_9
REMARK                            x       y       z     vdW  Elec       q    Type
REMARK                         _______ _______ _______ _____ _____    ______ ____
ROOT
ATOM      1  C   UNK     1       8.831  -5.032  25.158  0.00  0.00    +0.171 C 
ENDROOT
BRANCH   1   2
ATOM      2  N   UNK     1      10.214  -5.592  25.351  0.00  0.00    -0.318 NA
ATOM      3  H   UNK     1      10.846  -5.068  24.734  0.00  0.00    +0.119 HD
ATOM      4  H   UNK     1      10.527  -5.346  26.295  0.00  0.00    +0.119 HD
ENDBRANCH   1   2
BRANCH   1   5
ATOM      5  C   UNK     1       8.202  -4.864  26.549  0.00  0.00    +0.323 C 
ATOM      6  O   UNK     1       7.858  -3.808  27.050  0.00  0.00    -0.249 OA
BRANCH   5   7
ATOM      7  O   UNK     1       8.057  -6.066  27.172  0.00  0.00    -0.480 OA
ATOM      8  H   UNK     1       8.838  -6.174  27.770  0.00  0.00    +0.295 HD
ENDBRANCH   5   7
ENDBRANCH   1   5
BRANCH   1   9
ATOM      9  C   UNK     1       8.928  -3.684  24.437  0.00  0.00    +0.111 C 
BRANCH   9  10
ATOM     10  S   UNK     1       7.758  -3.529  23.048  0.00  0.00    -0.091 S 
BRANCH  10  12
ATOM     11  C   UNK     1       6.514  -5.594  21.272  0.00  0.00    +0.097 C 
ATOM     12  S   UNK     1       6.899  -5.398  23.028  0.00  0.00    -0.096 S 
ENDBRANCH  10  12
ENDBRANCH   9  10
ENDBRANCH   1   9
TORSDOF 6
ENDMDL
MODEL 4
REMARK VINA RESULT:      -3.6      2.266      2.440
REMARK  Name = 
REMARK  7 active torsions:
REMARK  status: ('A' for Active; 'I' for Inactive)
REMARK    1  A    between atoms: C_1  and  S_2
REMARK    2  A    between atoms: S_2  and  S_3
REMARK    3  A    between atoms: S_3  and  C_4
REMARK    4  A    between atoms: C_4  and  C_5
REMARK    5  A    between atoms: C_5  and  N_7
REMARK    6  A    between atoms: C_5  and  C_8
REMARK    7  A    between atoms: C_8  and  O_9
REMARK                            x       y       z     vdW  Elec       q    Type
REMARK                         _______ _______ _______ _____ _____    ______ ____
ROOT
ATOM      1  C   UNK     1       8.747  -5.391  25.343  0.00  0.00    +0.171 C 
ENDROOT
BRANCH   1   2
ATOM      2  N   UNK     1      10.247  -5.386  25.448  0.00  0.00    -0.318 NA
ATOM      3  H   UNK     1      10.487  -5.087  26.401  0.00  0.00    +0.119 HD
ATOM      4  H   UNK     1      10.572  -6.356  25.403  0.00  0.00    +0.119 HD
ENDBRANCH   1   2
BRANCH   1   5
ATOM      5  C   UNK     1       8.186  -4.963  26.708  0.00  0.00    +0.323 C 
ATOM      6  O   UNK     1       7.970  -3.816  27.059  0.00  0.00    -0.249 OA
BRANCH   5   7
ATOM      7  O   UNK     1       7.939  -6.044  27.499  0.00  0.00    -0.480 OA
ATOM      8  H   UNK     1       7.332  -5.739  28.217  0.00  0.00    +0.295 HD
ENDBRANCH   5   7
ENDBRANCH   1   5
BRANCH   1   9
ATOM      9  C   UNK     1       8.314  -4.414  24.245  0.00  0.00    +0.111 C 
BRANCH   9  10
ATOM     10  S   UNK     1       9.430  -2.983  24.078  0.00  0.00    -0.091 S 
BRANCH  10  12
ATOM     11  C   UNK     1       9.896  -0.902  21.976  0.00  0.00    +0.097 C 
ATOM     12  S   UNK     1       8.531  -1.941  22.548  0.00  0.00    -0.096 S 
ENDBRANCH  10  12
ENDBRANCH   9  10
ENDBRANCH   1   9
TORSDOF 6
ENDMDL
MODEL 5
REMARK VINA RESULT:      -3.5      2.707      3.462
REMARK  Name = 
REMARK  7 active torsions:
REMARK  status: ('A' for Active; 'I' for Inactive)
REMARK    1  A    between atoms: C_1  and  S_2
REMARK    2  A    between atoms: S_2  and  S_3
REMARK    3  A    between atoms: S_3  and  C_4
REMARK    4  A    between atoms: C_4  and  C_5
REMARK    5  A    between atoms: C_5  and  N_7
REMARK    6  A    between atoms: C_5  and  C_8
REMARK    7  A    between atoms: C_8  and  O_9
REMARK                            x       y       z     vdW  Elec       q    Type
REMARK                         _______ _______ _______ _____ _____    ______ ____
ROOT
ATOM      1  C   UNK     1       8.489  -4.493  26.472  0.00  0.00    +0.171 C 
ENDROOT
BRANCH   1   2
ATOM      2  N   UNK     1       8.146  -5.739  27.241  0.00  0.00    -0.318 NA
ATOM      3  H   UNK     1       7.183  -5.636  27.581  0.00  0.00    +0.119 HD
ATOM      4  H   UNK     1       8.094  -6.518  26.578  0.00  0.00    +0.119 HD
ENDBRANCH   1   2
BRANCH   1   5
ATOM      5  C   UNK     1       9.522  -4.879  25.402  0.00  0.00    +0.323 C 
ATOM      6  O   UNK     1       9.986  -4.130  24.561  0.00  0.00    -0.249 OA
BRANCH   5   7
ATOM      7  O   UNK     1       9.880  -6.188  25.514  0.00  0.00    -0.480 OA
ATOM      8  H   UNK     1      10.781  -6.273  25.115  0.00  0.00    +0.295 HD
ENDBRANCH   5   7
ENDBRANCH   1   5
BRANCH   1   9
ATOM      9  C   UNK     1       7.217  -3.935  25.824  0.00  0.00    +0.111 C 
BRANCH   9  10
ATOM     10  S   UNK     1       6.457  -5.083  24.630  0.00  0.00    -0.091 S 
BRANCH  10  12
ATOM     11  C   UNK     1       4.734  -6.729  26.444  0.00  0.00    +0.097 C 
ATOM     12  S   UNK     1       4.556  -5.267  25.395  0.00  0.00    -0.096 S 
ENDBRANCH  10  12
ENDBRANCH   9  10
ENDBRANCH   1   9
TORSDOF 6
ENDMDL
MODEL 6
REMARK VINA RESULT:      -3.5      4.921      5.788
REMARK  Name = 
REMARK  7 active torsions:
REMARK  status: ('A' for Active; 'I' for Inactive)
REMARK    1  A    between atoms: C_1  and  S_2
REMARK    2  A    between atoms: S_2  and  S_3
REMARK    3  A    between atoms: S_3  and  C_4
REMARK    4  A    between atoms: C_4  and  C_5
REMARK    5  A    between atoms: C_5  and  N_7
REMARK    6  A    between atoms: C_5  and  C_8
REMARK    7  A    between atoms: C_8  and  O_9
REMARK                            x       y       z     vdW  Elec       q    Type
REMARK                         _______ _______ _______ _____ _____    ______ ____
ROOT
ATOM      1  C   UNK     1      10.213  -0.226  22.362  0.00  0.00    +0.171 C 
ENDROOT
BRANCH   1   2
ATOM      2  N   UNK     1       9.996  -1.352  21.388  0.00  0.00    -0.318 NA
ATOM      3  H   UNK     1       8.997  -1.588  21.409  0.00  0.00    +0.119 HD
ATOM      4  H   UNK     1      10.145  -0.987  20.443  0.00  0.00    +0.119 HD
ENDBRANCH   1   2
BRANCH   1   5
ATOM      5  C   UNK     1       9.321   0.945  21.922  0.00  0.00    +0.323 C 
ATOM      6  O   UNK     1       8.103   0.953  21.932  0.00  0.00    -0.249 OA
BRANCH   5   7
ATOM      7  O   UNK     1      10.071   2.008  21.518  0.00  0.00    -0.480 OA
ATOM      8  H   UNK     1      10.702   1.670  20.835  0.00  0.00    +0.295 HD
ENDBRANCH   5   7
ENDBRANCH   1   5
BRANCH   1   9
ATOM      9  C   UNK     1       9.836  -0.698  23.771  0.00  0.00    +0.111 C 
BRANCH   9  10
ATOM     10  S   UNK     1       9.638  -2.505  23.892  0.00  0.00    -0.091 S 
BRANCH  10  12
ATOM     11  C   UNK     1       7.362  -3.909  22.545  0.00  0.00    +0.097 C 
ATOM     12  S   UNK     1       7.589  -2.693  23.864  0.00  0.00    -0.096 S 
ENDBRANCH  10  12
ENDBRANCH   9  10
ENDBRANCH   1   9
TORSDOF 6
ENDMDL
MODEL 7
REMARK VINA RESULT:      -3.4      5.328      6.359
REMARK  Name = 
REMARK  7 active torsions:
REMARK  status: ('A' for Active; 'I' for Inactive)
REMARK    1  A    between atoms: C_1  and  S_2
REMARK    2  A    between atoms: S_2  and  S_3
REMARK    3  A    between atoms: S_3  and  C_4
REMARK    4  A    between atoms: C_4  and  C_5
REMARK    5  A    between atoms: C_5  and  N_7
REMARK    6  A    between atoms: C_5  and  C_8
REMARK    7  A    between atoms: C_8  and  O_9
REMARK                            x       y       z     vdW  Elec       q    Type
REMARK                         _______ _______ _______ _____ _____    ______ ____
ROOT
ATOM      1  C   UNK     1      10.045   1.126  22.735  0.00  0.00    +0.171 C 
ENDROOT
BRANCH   1   2
ATOM      2  N   UNK     1       9.966   2.203  21.688  0.00  0.00    -0.318 NA
ATOM      3  H   UNK     1      10.921   2.543  21.524  0.00  0.00    +0.119 HD
ATOM      4  H   UNK     1       9.703   1.764  20.800  0.00  0.00    +0.119 HD
ENDBRANCH   1   2
BRANCH   1   5
ATOM      5  C   UNK     1       9.997   1.812  24.108  0.00  0.00    +0.323 C 
ATOM      6  O   UNK     1       9.648   2.960  24.317  0.00  0.00    -0.249 OA
BRANCH   5   7
ATOM      7  O   UNK     1      10.389   0.961  25.096  0.00  0.00    -0.480 OA
ATOM      8  H   UNK     1      10.400   0.053  24.704  0.00  0.00    +0.295 HD
ENDBRANCH   5   7
ENDBRANCH   1   5
BRANCH   1   9
ATOM      9  C   UNK     1       8.862   0.167  22.563  0.00  0.00    +0.111 C 
BRANCH   9  10
ATOM     10  S   UNK     1       9.362  -1.498  22.017  0.00  0.00    -0.091 S 
BRANCH  10  12
ATOM     11  C   UNK     1       8.383  -3.644  23.862  0.00  0.00    +0.097 C 
ATOM     12  S   UNK     1       9.720  -2.427  23.818  0.00  0.00    -0.096 S 
ENDBRANCH  10  12
ENDBRANCH   9  10
ENDBRANCH   1   9
TORSDOF 6
ENDMDL
MODEL 8
REMARK VINA RESULT:      -3.4      4.012      4.549
REMARK  Name = 
REMARK  7 active torsions:
REMARK  status: ('A' for Active; 'I' for Inactive)
REMARK    1  A    between atoms: C_1  and  S_2
REMARK    2  A    between atoms: S_2  and  S_3
REMARK    3  A    between atoms: S_3  and  C_4
REMARK    4  A    between atoms: C_4  and  C_5
REMARK    5  A    between atoms: C_5  and  N_7
REMARK    6  A    between atoms: C_5  and  C_8
REMARK    7  A    between atoms: C_8  and  O_9
REMARK                            x       y       z     vdW  Elec       q    Type
REMARK                         _______ _______ _______ _____ _____    ______ ____
ROOT
ATOM      1  C   UNK     1       8.882  -1.582  22.219  0.00  0.00    +0.171 C 
ENDROOT
BRANCH   1   2
ATOM      2  N   UNK     1      10.260  -1.561  21.619  0.00  0.00    -0.318 NA
ATOM      3  H   UNK     1      10.217  -2.077  20.731  0.00  0.00    +0.119 HD
ATOM      4  H   UNK     1      10.470  -0.599  21.337  0.00  0.00    +0.119 HD
ENDBRANCH   1   2
BRANCH   1   5
ATOM      5  C   UNK     1       8.889  -2.611  23.359  0.00  0.00    +0.323 C 
ATOM      6  O   UNK     1       7.905  -3.146  23.839  0.00  0.00    -0.249 OA
BRANCH   5   7
ATOM      7  O   UNK     1      10.158  -2.873  23.777  0.00  0.00    -0.480 OA
ATOM      8  H   UNK     1      10.392  -2.173  24.436  0.00  0.00    +0.295 HD
ENDBRANCH   5   7
ENDBRANCH   1   5
BRANCH   1   9
ATOM      9  C   UNK     1       8.540  -0.185  22.747  0.00  0.00    +0.111 C 
BRANCH   9  10
ATOM     10  S   UNK     1       9.572   1.129  22.019  0.00  0.00    -0.091 S 
BRANCH  10  12
ATOM     11  C   UNK     1      10.787   0.567  24.698  0.00  0.00    +0.097 C 
ATOM     12  S   UNK     1      10.354   2.014  23.705  0.00  0.00    -0.096 S 
ENDBRANCH  10  12
ENDBRANCH   9  10
ENDBRANCH   1   9
TORSDOF 6
ENDMDL
MODEL 9
REMARK VINA RESULT:      -3.4      5.147      6.272
REMARK  Name = 
REMARK  7 active torsions:
REMARK  status: ('A' for Active; 'I' for Inactive)
REMARK    1  A    between atoms: C_1  and  S_2
REMARK    2  A    between atoms: S_2  and  S_3
REMARK    3  A    between atoms: S_3  and  C_4
REMARK    4  A    between atoms: C_4  and  C_5
REMARK    5  A    between atoms: C_5  and  N_7
REMARK    6  A    between atoms: C_5  and  C_8
REMARK    7  A    between atoms: C_8  and  O_9
REMARK                            x       y       z     vdW  Elec       q    Type
REMARK                         _______ _______ _______ _____ _____    ______ ____
ROOT
ATOM      1  C   UNK     1       9.806   0.900  23.629  0.00  0.00    +0.171 C 
ENDROOT
BRANCH   1   2
ATOM      2  N   UNK     1      10.492   0.815  24.965  0.00  0.00    -0.318 NA
ATOM      3  H   UNK     1       9.773   0.933  25.688  0.00  0.00    +0.119 HD
ATOM      4  H   UNK     1      10.818  -0.148  25.094  0.00  0.00    +0.119 HD
ENDBRANCH   1   2
BRANCH   1   5
ATOM      5  C   UNK     1      10.291   2.186  22.942  0.00  0.00    +0.323 C 
ATOM      6  O   UNK     1      10.815   3.134  23.498  0.00  0.00    -0.249 OA
BRANCH   5   7
ATOM      7  O   UNK     1      10.072   2.137  21.599  0.00  0.00    -0.480 OA
ATOM      8  H   UNK     1       9.098   2.248  21.464  0.00  0.00    +0.295 HD
ENDBRANCH   5   7
ENDBRANCH   1   5
BRANCH   1   9
ATOM      9  C   UNK     1      10.170  -0.333  22.796  0.00  0.00    +0.111 C 
BRANCH   9  10
ATOM     10  S   UNK     1       9.759  -1.904  23.623  0.00  0.00    -0.091 S 
BRANCH  10  12
ATOM     11  C   UNK     1       7.745  -4.101  23.332  0.00  0.00    +0.097 C 
ATOM     12  S   UNK     1       8.104  -2.505  22.559  0.00  0.00    -0.096 S 
ENDBRANCH  10  12
ENDBRANCH   9  10
ENDBRANCH   1   9
TORSDOF 6
ENDMDL
