MODEL 1
REMARK VINA RESULT:      -5.3      0.000      0.000
REMARK  Name = 
REMARK  2 active torsions:
REMARK  status: ('A' for Active; 'I' for Inactive)
REMARK    1  A    between atoms: O_1  and  C_2
REMARK    2  A    between atoms: C_6  and  O_7
REMARK                            x       y       z     vdW  Elec       q    Type
REMARK                         _______ _______ _______ _____ _____    ______ ____
ROOT
ATOM      1  C   UNL     1       9.343  -2.715  23.723  0.00  0.00    +0.117 A 
ATOM      2  C   UNL     1       9.968  -1.660  24.375  0.00  0.00    +0.054 A 
ATOM      3  C   UNL     1       9.996  -0.380  23.799  0.00  0.00    -0.011 A 
ATOM      4  C   UNL     1       9.360  -0.155  22.552  0.00  0.00    +0.024 A 
ATOM      5  C   UNL     1       9.405   1.155  22.018  0.00  0.00    +0.125 A 
ATOM      6  C   UNL     1      10.088   2.185  22.660  0.00  0.00    +0.046 A 
ATOM      7  C   UNL     1      10.715   1.947  23.877  0.00  0.00    +0.004 A 
ATOM      8  C   UNL     1       8.739  -1.254  21.912  0.00  0.00    +0.015 A 
ATOM      9  C   UNL     1      10.659   0.675  24.447  0.00  0.00    +0.009 A 
ATOM     10  C   UNL     1       8.730  -2.526  22.493  0.00  0.00    +0.046 A 
ENDROOT
BRANCH   1  11
ATOM     11  O   UNL     1       9.367  -3.938  24.324  0.00  0.00    -0.507 OA
ATOM     12  H   UNL     1       9.435  -3.813  25.285  0.00  0.00    +0.292 HD
ENDBRANCH   1  11
BRANCH   5  13
ATOM     13  O   UNL     1       8.779   1.502  20.849  0.00  0.00    -0.506 OA
ATOM     14  H   UNL     1       7.855   1.215  20.908  0.00  0.00    +0.292 HD
ENDBRANCH   5  13
TORSDOF 2
ENDMDL
MODEL 2
REMARK VINA RESULT:      -5.2      1.362      1.439
REMARK  Name = 
REMARK  2 active torsions:
REMARK  status: ('A' for Active; 'I' for Inactive)
REMARK    1  A    between atoms: O_1  and  C_2
REMARK    2  A    between atoms: C_6  and  O_7
REMARK                            x       y       z     vdW  Elec       q    Type
REMARK                         _______ _______ _______ _____ _____    ______ ____
ROOT
ATOM      1  C   UNL     1       9.830  -2.191  23.818  0.00  0.00    +0.117 A 
ATOM      2  C   UNL     1       9.301  -1.239  24.680  0.00  0.00    +0.054 A 
ATOM      3  C   UNL     1       9.243   0.112  24.304  0.00  0.00    -0.011 A 
ATOM      4  C   UNL     1       9.705   0.507  23.024  0.00  0.00    +0.024 A 
ATOM      5  C   UNL     1       9.616   1.879  22.686  0.00  0.00    +0.125 A 
ATOM      6  C   UNL     1       9.138   2.825  23.589  0.00  0.00    +0.046 A 
ATOM      7  C   UNL     1       8.697   2.424  24.844  0.00  0.00    +0.004 A 
ATOM      8  C   UNL     1      10.244  -0.489  22.173  0.00  0.00    +0.015 A 
ATOM      9  C   UNL     1       8.740   1.075  25.194  0.00  0.00    +0.009 A 
ATOM     10  C   UNL     1      10.306  -1.828  22.566  0.00  0.00    +0.046 A 
ENDROOT
BRANCH   1  11
ATOM     11  O   UNL     1       9.876  -3.484  24.248  0.00  0.00    -0.507 OA
ATOM     12  H   UNL     1      10.805  -3.760  24.309  0.00  0.00    +0.292 HD
ENDBRANCH   1  11
BRANCH   5  13
ATOM     13  O   UNL     1       9.980   2.366  21.458  0.00  0.00    -0.506 OA
ATOM     14  H   UNL     1      10.945   2.306  21.386  0.00  0.00    +0.292 HD
ENDBRANCH   5  13
TORSDOF 2
ENDMDL
MODEL 3
REMARK VINA RESULT:      -5.1      1.423      4.045
REMARK  Name = 
REMARK  2 active torsions:
REMARK  status: ('A' for Active; 'I' for Inactive)
REMARK    1  A    between atoms: O_1  and  C_2
REMARK    2  A    between atoms: C_6  and  O_7
REMARK                            x       y       z     vdW  Elec       q    Type
REMARK                         _______ _______ _______ _____ _____    ______ ____
ROOT
ATOM      1  C   UNL     1       9.778   0.983  22.206  0.00  0.00    +0.117 A 
ATOM      2  C   UNL     1       9.546   1.032  23.575  0.00  0.00    +0.054 A 
ATOM      3  C   UNL     1       9.271  -0.141  24.294  0.00  0.00    -0.011 A 
ATOM      4  C   UNL     1       9.254  -1.390  23.625  0.00  0.00    +0.024 A 
ATOM      5  C   UNL     1       8.983  -2.546  24.396  0.00  0.00    +0.125 A 
ATOM      6  C   UNL     1       8.694  -2.468  25.757  0.00  0.00    +0.046 A 
ATOM      7  C   UNL     1       8.706  -1.235  26.397  0.00  0.00    +0.004 A 
ATOM      8  C   UNL     1       9.487  -1.402  22.229  0.00  0.00    +0.015 A 
ATOM      9  C   UNL     1       9.003  -0.081  25.672  0.00  0.00    +0.009 A 
ATOM     10  C   UNL     1       9.748  -0.224  21.524  0.00  0.00    +0.046 A 
ENDROOT
BRANCH   1  11
ATOM     11  O   UNL     1      10.020   2.159  21.559  0.00  0.00    -0.507 OA
ATOM     12  H   UNL     1       9.400   2.241  20.816  0.00  0.00    +0.292 HD
ENDBRANCH   1  11
BRANCH   5  13
ATOM     13  O   UNL     1       8.995  -3.810  23.868  0.00  0.00    -0.506 OA
ATOM     14  H   UNL     1       9.711  -4.306  24.292  0.00  0.00    +0.292 HD
ENDBRANCH   5  13
TORSDOF 2
ENDMDL
MODEL 4
REMARK VINA RESULT:      -5.1      1.782      2.579
REMARK  Name = 
REMARK  2 active torsions:
REMARK  status: ('A' for Active; 'I' for Inactive)
REMARK    1  A    between atoms: O_1  and  C_2
REMARK    2  A    between atoms: C_6  and  O_7
REMARK                            x       y       z     vdW  Elec       q    Type
REMARK                         _______ _______ _______ _____ _____    ______ ____
ROOT
ATOM      1  C   UNL     1       8.216  -3.008  22.881  0.00  0.00    +0.117 A 
ATOM      2  C   UNL     1       8.460  -1.961  22.003  0.00  0.00    +0.054 A 
ATOM      3  C   UNL     1       9.115  -0.799  22.441  0.00  0.00    -0.011 A 
ATOM      4  C   UNL     1       9.553  -0.702  23.785  0.00  0.00    +0.024 A 
ATOM      5  C   UNL     1      10.218   0.485  24.176  0.00  0.00    +0.125 A 
ATOM      6  C   UNL     1      10.401   1.547  23.294  0.00  0.00    +0.046 A 
ATOM      7  C   UNL     1       9.957   1.441  21.981  0.00  0.00    +0.004 A 
ATOM      8  C   UNL     1       9.281  -1.785  24.655  0.00  0.00    +0.015 A 
ATOM      9  C   UNL     1       9.328   0.271  21.556  0.00  0.00    +0.009 A 
ATOM     10  C   UNL     1       8.617  -2.931  24.207  0.00  0.00    +0.046 A 
ENDROOT
BRANCH   1  11
ATOM     11  O   UNL     1       7.558  -4.102  22.401  0.00  0.00    -0.507 OA
ATOM     12  H   UNL     1       7.253  -4.638  23.151  0.00  0.00    +0.292 HD
ENDBRANCH   1  11
BRANCH   5  13
ATOM     13  O   UNL     1      10.734   0.667  25.432  0.00  0.00    -0.506 OA
ATOM     14  H   UNL     1      10.138   0.238  26.066  0.00  0.00    +0.292 HD
ENDBRANCH   5  13
TORSDOF 2
ENDMDL
MODEL 5
REMARK VINA RESULT:      -5.0      5.151      6.805
REMARK  Name = 
REMARK  2 active torsions:
REMARK  status: ('A' for Active; 'I' for Inactive)
REMARK    1  A    between atoms: O_1  and  C_2
REMARK    2  A    between atoms: C_6  and  O_7
REMARK                            x       y       z     vdW  Elec       q    Type
REMARK                         _______ _______ _______ _____ _____    ______ ____
ROOT
ATOM      1  C   UNL     1       5.046  -5.889  23.420  0.00  0.00    +0.117 A 
ATOM      2  C   UNL     1       6.259  -5.242  23.220  0.00  0.00    +0.054 A 
ATOM      3  C   UNL     1       7.153  -5.056  24.285  0.00  0.00    -0.011 A 
ATOM      4  C   UNL     1       6.829  -5.552  25.573  0.00  0.00    +0.024 A 
ATOM      5  C   UNL     1       7.768  -5.349  26.612  0.00  0.00    +0.125 A 
ATOM      6  C   UNL     1       8.952  -4.646  26.403  0.00  0.00    +0.046 A 
ATOM      7  C   UNL     1       9.252  -4.157  25.137  0.00  0.00    +0.004 A 
ATOM      8  C   UNL     1       5.581  -6.199  25.742  0.00  0.00    +0.015 A 
ATOM      9  C   UNL     1       8.363  -4.370  24.084  0.00  0.00    +0.009 A 
ATOM     10  C   UNL     1       4.695  -6.367  24.674  0.00  0.00    +0.046 A 
ENDROOT
BRANCH   1  11
ATOM     11  O   UNL     1       4.211  -6.022  22.350  0.00  0.00    -0.507 OA
ATOM     12  H   UNL     1       3.293  -6.006  22.666  0.00  0.00    +0.292 HD
ENDBRANCH   1  11
BRANCH   5  13
ATOM     13  O   UNL     1       7.586  -5.832  27.881  0.00  0.00    -0.506 OA
ATOM     14  H   UNL     1       7.899  -5.160  28.506  0.00  0.00    +0.292 HD
ENDBRANCH   5  13
TORSDOF 2
ENDMDL
MODEL 6
REMARK VINA RESULT:      -5.0      1.364      4.596
REMARK  Name = 
REMARK  2 active torsions:
REMARK  status: ('A' for Active; 'I' for Inactive)
REMARK    1  A    between atoms: O_1  and  C_2
REMARK    2  A    between atoms: C_6  and  O_7
REMARK                            x       y       z     vdW  Elec       q    Type
REMARK                         _______ _______ _______ _____ _____    ______ ____
ROOT
ATOM      1  C   UNL     1      10.042   1.410  22.439  0.00  0.00    +0.117 A 
ATOM      2  C   UNL     1       9.520   0.224  21.939  0.00  0.00    +0.054 A 
ATOM      3  C   UNL     1       9.130  -0.807  22.808  0.00  0.00    -0.011 A 
ATOM      4  C   UNL     1       9.246  -0.629  24.209  0.00  0.00    +0.024 A 
ATOM      5  C   UNL     1       8.830  -1.693  25.045  0.00  0.00    +0.125 A 
ATOM      6  C   UNL     1       8.364  -2.896  24.521  0.00  0.00    +0.046 A 
ATOM      7  C   UNL     1       8.264  -3.059  23.145  0.00  0.00    +0.004 A 
ATOM      8  C   UNL     1       9.790   0.590  24.684  0.00  0.00    +0.015 A 
ATOM      9  C   UNL     1       8.634  -2.017  22.295  0.00  0.00    +0.009 A 
ATOM     10  C   UNL     1      10.185   1.603  23.805  0.00  0.00    +0.046 A 
ENDROOT
BRANCH   1  11
ATOM     11  O   UNL     1      10.421   2.366  21.543  0.00  0.00    -0.507 OA
ATOM     12  H   UNL     1      10.965   3.027  22.003  0.00  0.00    +0.292 HD
ENDBRANCH   1  11
BRANCH   5  13
ATOM     13  O   UNL     1       8.845  -1.612  26.412  0.00  0.00    -0.506 OA
ATOM     14  H   UNL     1       7.927  -1.603  26.723  0.00  0.00    +0.292 HD
ENDBRANCH   5  13
TORSDOF 2
ENDMDL
MODEL 7
REMARK VINA RESULT:      -5.0      2.350      4.949
REMARK  Name = 
REMARK  2 active torsions:
REMARK  status: ('A' for Active; 'I' for Inactive)
REMARK    1  A    between atoms: O_1  and  C_2
REMARK    2  A    between atoms: C_6  and  O_7
REMARK                            x       y       z     vdW  Elec       q    Type
REMARK                         _______ _______ _______ _____ _____    ______ ____
ROOT
ATOM      1  C   UNL     1       7.655   3.658  22.463  0.00  0.00    +0.117 A 
ATOM      2  C   UNL     1       7.974   2.535  21.711  0.00  0.00    +0.054 A 
ATOM      3  C   UNL     1       8.791   1.527  22.245  0.00  0.00    -0.011 A 
ATOM      4  C   UNL     1       9.276   1.642  23.572  0.00  0.00    +0.024 A 
ATOM      5  C   UNL     1      10.088   0.594  24.069  0.00  0.00    +0.125 A 
ATOM      6  C   UNL     1      10.444  -0.495  23.277  0.00  0.00    +0.046 A 
ATOM      7  C   UNL     1       9.969  -0.590  21.975  0.00  0.00    +0.004 A 
ATOM      8  C   UNL     1       8.937   2.803  24.307  0.00  0.00    +0.015 A 
ATOM      9  C   UNL     1       9.139   0.410  21.467  0.00  0.00    +0.009 A 
ATOM     10  C   UNL     1       8.132   3.805  23.758  0.00  0.00    +0.046 A 
ENDROOT
BRANCH   1  11
ATOM     11  O   UNL     1       6.873   4.612  21.882  0.00  0.00    -0.507 OA
ATOM     12  H   UNL     1       6.023   4.649  22.352  0.00  0.00    +0.292 HD
ENDBRANCH   1  11
BRANCH   5  13
ATOM     13  O   UNL     1      10.566   0.571  25.352  0.00  0.00    -0.506 OA
ATOM     14  H   UNL     1      11.012  -0.278  25.492  0.00  0.00    +0.292 HD
ENDBRANCH   5  13
TORSDOF 2
ENDMDL
MODEL 8
REMARK VINA RESULT:      -5.0      5.146      6.385
REMARK  Name = 
REMARK  2 active torsions:
REMARK  status: ('A' for Active; 'I' for Inactive)
REMARK    1  A    between atoms: O_1  and  C_2
REMARK    2  A    between atoms: C_6  and  O_7
REMARK                            x       y       z     vdW  Elec       q    Type
REMARK                         _______ _______ _______ _____ _____    ______ ____
ROOT
ATOM      1  C   UNL     1       5.262  -5.814  22.919  0.00  0.00    +0.117 A 
ATOM      2  C   UNL     1       5.275  -5.817  24.308  0.00  0.00    +0.054 A 
ATOM      3  C   UNL     1       6.433  -5.450  25.011  0.00  0.00    -0.011 A 
ATOM      4  C   UNL     1       7.592  -5.048  24.301  0.00  0.00    +0.024 A 
ATOM      5  C   UNL     1       8.730  -4.677  25.055  0.00  0.00    +0.125 A 
ATOM      6  C   UNL     1       8.742  -4.744  26.446  0.00  0.00    +0.046 A 
ATOM      7  C   UNL     1       7.601  -5.148  27.129  0.00  0.00    +0.004 A 
ATOM      8  C   UNL     1       7.544  -5.064  22.886  0.00  0.00    +0.015 A 
ATOM      9  C   UNL     1       6.452  -5.488  26.416  0.00  0.00    +0.009 A 
ATOM     10  C   UNL     1       6.388  -5.444  22.199  0.00  0.00    +0.046 A 
ENDROOT
BRANCH   1  11
ATOM     11  O   UNL     1       4.113  -6.200  22.293  0.00  0.00    -0.507 OA
ATOM     12  H   UNL     1       3.846  -7.067  22.638  0.00  0.00    +0.292 HD
ENDBRANCH   1  11
BRANCH   5  13
ATOM     13  O   UNL     1       9.886  -4.220  24.477  0.00  0.00    -0.506 OA
ATOM     14  H   UNL     1      10.408  -3.775  25.163  0.00  0.00    +0.292 HD
ENDBRANCH   5  13
TORSDOF 2
ENDMDL
MODEL 9
REMARK VINA RESULT:      -5.0      1.892      4.158
REMARK  Name = 
REMARK  2 active torsions:
REMARK  status: ('A' for Active; 'I' for Inactive)
REMARK    1  A    between atoms: O_1  and  C_2
REMARK    2  A    between atoms: C_6  and  O_7
REMARK                            x       y       z     vdW  Elec       q    Type
REMARK                         _______ _______ _______ _____ _____    ______ ____
ROOT
ATOM      1  C   UNL     1       9.546   2.880  23.706  0.00  0.00    +0.117 A 
ATOM      2  C   UNL     1       9.345   1.887  24.657  0.00  0.00    +0.054 A 
ATOM      3  C   UNL     1       9.454   0.532  24.308  0.00  0.00    -0.011 A 
ATOM      4  C   UNL     1       9.795   0.171  22.981  0.00  0.00    +0.024 A 
ATOM      5  C   UNL     1       9.904  -1.208  22.681  0.00  0.00    +0.125 A 
ATOM      6  C   UNL     1       9.641  -2.188  23.635  0.00  0.00    +0.046 A 
ATOM      7  C   UNL     1       9.298  -1.819  24.930  0.00  0.00    +0.004 A 
ATOM      8  C   UNL     1       9.985   1.209  22.036  0.00  0.00    +0.015 A 
ATOM      9  C   UNL     1       9.216  -0.468  25.266  0.00  0.00    +0.009 A 
ATOM     10  C   UNL     1       9.862   2.554  22.396  0.00  0.00    +0.046 A 
ENDROOT
BRANCH   1  11
ATOM     11  O   UNL     1       9.407   4.177  24.102  0.00  0.00    -0.507 OA
ATOM     12  H   UNL     1       8.780   4.620  23.507  0.00  0.00    +0.292 HD
ENDBRANCH   1  11
BRANCH   5  13
ATOM     13  O   UNL     1      10.281  -1.671  21.448  0.00  0.00    -0.506 OA
ATOM     14  H   UNL     1      10.544  -0.910  20.909  0.00  0.00    +0.292 HD
ENDBRANCH   5  13
TORSDOF 2
ENDMDL
