MODEL 1
REMARK VINA RESULT:      -8.0      0.000      0.000
REMARK  Name = 
REMARK  12 active torsions:
REMARK  status: ('A' for Active; 'I' for Inactive)
REMARK    1  A    between atoms: C_5  and  O_6
REMARK    2  A    between atoms: O_6  and  C_7
REMARK    3  A    between atoms: C_7  and  C_8
REMARK    4  A    between atoms: N_17  and  C_18
REMARK    5  A    between atoms: C_23  and  C_25
REMARK    6  A    between atoms: C_25  and  C_26
REMARK    7  A    between atoms: C_25  and  O_27
REMARK    8  A    between atoms: C_25  and  C_28
REMARK    9  A    between atoms: C_28  and  C_29
REMARK   10  A    between atoms: C_29  and  C_30
REMARK   11  A    between atoms: C_31  and  O_32
REMARK   12  A    between atoms: O_32  and  C_33
REMARK                            x       y       z     vdW  Elec       q    Type
REMARK                         _______ _______ _______ _____ _____    ______ ____
ROOT
ATOM      1  C   UNL     1       7.992  -3.236  25.485  0.00  0.00    +0.221 C 
ATOM      2  C   UNL     1       7.776  -1.694  25.240  0.00  0.00    +0.130 C 
ATOM      3  C   UNL     1       6.258  -1.450  25.252  0.00  0.00    +0.008 C 
ATOM      4  C   UNL     1       5.531  -2.106  24.334  0.00  0.00    -0.019 C 
ATOM      5  C   UNL     1       6.348  -3.078  23.472  0.00  0.00    +0.018 C 
ATOM      6  C   UNL     1       7.274  -2.109  22.712  0.00  0.00    +0.023 C 
ATOM      7  C   UNL     1       5.562  -4.095  22.567  0.00  0.00    +0.072 C 
ATOM      8  C   UNL     1       4.514  -4.899  23.442  0.00  0.00    +0.055 C 
ATOM      9  C   UNL     1       5.021  -5.298  24.820  0.00  0.00    -0.038 A 
ATOM     10  C   UNL     1       6.184  -4.682  25.288  0.00  0.00    +0.012 A 
ATOM     11  C   UNL     1       6.678  -4.759  26.559  0.00  0.00    +0.167 A 
ATOM     12  C   UNL     1       6.199  -5.782  27.336  0.00  0.00    +0.173 A 
ATOM     13  C   UNL     1       5.044  -6.483  26.921  0.00  0.00    +0.050 A 
ATOM     14  C   UNL     1       4.410  -6.187  25.691  0.00  0.00    +0.008 A 
ATOM     15  N   UNL     1       6.591  -4.925  21.872  0.00  0.00    -0.301 NA
ATOM     16  C   UNL     1       6.223  -5.526  20.608  0.00  0.00    +0.105 C 
ATOM     17  C   UNL     1       7.269  -5.884  22.740  0.00  0.00    +0.085 C 
ATOM     18  C   UNL     1       8.028  -5.085  23.778  0.00  0.00    +0.031 C 
ATOM     19  C   UNL     1       8.187  -1.293  23.711  0.00  0.00    +0.061 C 
ATOM     20  C   UNL     1       7.171  -3.981  24.428  0.00  0.00    +0.051 C 
ATOM     21  O   UNL     1       7.658  -3.828  26.799  0.00  0.00    -0.481 OA
ENDROOT
BRANCH   2  22
ATOM     22  O   UNL     1       8.247  -0.823  26.256  0.00  0.00    -0.368 OA
ATOM     23  C   UNL     1       7.303  -0.201  27.099  0.00  0.00    +0.195 C 
ENDBRANCH   2  22
BRANCH  19  24
ATOM     24  C   UNL     1       9.664  -1.248  23.141  0.00  0.00    +0.069 C 
ATOM     25  C   UNL     1       9.774  -1.079  21.618  0.00  0.00    +0.041 C 
BRANCH  24  26
ATOM     26  O   UNL     1      10.362  -2.460  23.393  0.00  0.00    -0.388 OA
ATOM     27  H   UNL     1      10.177  -3.100  22.688  0.00  0.00    +0.210 HD
ENDBRANCH  24  26
BRANCH  24  28
ATOM     28  C   UNL     1      10.491  -0.055  23.748  0.00  0.00    +0.034 C 
BRANCH  28  29
ATOM     29  C   UNL     1       9.754   1.280  23.927  0.00  0.00    -0.001 C 
ATOM     30  C   UNL     1      10.151   2.265  22.840  0.00  0.00    +0.004 C 
ENDBRANCH  28  29
ENDBRANCH  24  28
ENDBRANCH  19  24
BRANCH  12  31
ATOM     31  O   UNL     1       6.880  -6.262  28.463  0.00  0.00    -0.422 OA
BRANCH  31  32
ATOM     32  C   UNL     1       6.129  -6.240  29.645  0.00  0.00    +0.309 C 
ATOM     33  O   UNL     1       6.022  -7.129  30.485  0.00  0.00    -0.251 OA
ATOM     34  C   UNL     1       5.321  -4.977  29.714  0.00  0.00    +0.136 C 
ENDBRANCH  31  32
ENDBRANCH  12  31
TORSDOF 7
ENDMDL
MODEL 2
REMARK VINA RESULT:      -7.7      3.437      5.601
REMARK  Name = 
REMARK  12 active torsions:
REMARK  status: ('A' for Active; 'I' for Inactive)
REMARK    1  A    between atoms: C_5  and  O_6
REMARK    2  A    between atoms: O_6  and  C_7
REMARK    3  A    between atoms: C_7  and  C_8
REMARK    4  A    between atoms: N_17  and  C_18
REMARK    5  A    between atoms: C_23  and  C_25
REMARK    6  A    between atoms: C_25  and  C_26
REMARK    7  A    between atoms: C_25  and  O_27
REMARK    8  A    between atoms: C_25  and  C_28
REMARK    9  A    between atoms: C_28  and  C_29
REMARK   10  A    between atoms: C_29  and  C_30
REMARK   11  A    between atoms: C_31  and  O_32
REMARK   12  A    between atoms: O_32  and  C_33
REMARK                            x       y       z     vdW  Elec       q    Type
REMARK                         _______ _______ _______ _____ _____    ______ ____
ROOT
ATOM      1  C   UNL     1       7.976  -0.155  23.066  0.00  0.00    +0.221 C 
ATOM      2  C   UNL     1       9.461   0.016  23.562  0.00  0.00    +0.130 C 
ATOM      3  C   UNL     1       9.576  -0.742  24.895  0.00  0.00    +0.008 C 
ATOM      4  C   UNL     1       8.772  -0.339  25.893  0.00  0.00    -0.019 C 
ATOM      5  C   UNL     1       7.792   0.773  25.491  0.00  0.00    +0.018 C 
ATOM      6  C   UNL     1       8.757   1.935  25.185  0.00  0.00    +0.023 C 
ATOM      7  C   UNL     1       6.628   1.119  26.489  0.00  0.00    +0.072 C 
ATOM      8  C   UNL     1       5.828  -0.196  26.863  0.00  0.00    +0.055 C 
ATOM      9  C   UNL     1       5.612  -1.153  25.700  0.00  0.00    -0.038 A 
ATOM     10  C   UNL     1       6.368  -0.950  24.543  0.00  0.00    +0.012 A 
ATOM     11  C   UNL     1       6.460  -1.807  23.484  0.00  0.00    +0.167 A 
ATOM     12  C   UNL     1       5.481  -2.763  23.389  0.00  0.00    +0.173 A 
ATOM     13  C   UNL     1       4.647  -3.011  24.502  0.00  0.00    +0.050 A 
ATOM     14  C   UNL     1       4.765  -2.250  25.689  0.00  0.00    +0.008 A 
ATOM     15  N   UNL     1       5.824   2.199  25.841  0.00  0.00    -0.301 NA
ATOM     16  C   UNL     1       5.071   3.083  26.705  0.00  0.00    +0.105 C 
ATOM     17  C   UNL     1       5.017   1.744  24.711  0.00  0.00    +0.085 C 
ATOM     18  C   UNL     1       5.977   1.260  23.645  0.00  0.00    +0.031 C 
ATOM     19  C   UNL     1       9.743   1.561  24.008  0.00  0.00    +0.061 C 
ATOM     20  C   UNL     1       7.063   0.317  24.200  0.00  0.00    +0.051 C 
ATOM     21  O   UNL     1       7.490  -1.485  22.635  0.00  0.00    -0.481 OA
ENDROOT
BRANCH   2  22
ATOM     22  O   UNL     1      10.466  -0.590  22.764  0.00  0.00    -0.368 OA
ATOM     23  C   UNL     1      10.759  -1.954  22.974  0.00  0.00    +0.195 C 
ENDBRANCH   2  22
BRANCH  19  24
ATOM     24  C   UNL     1       9.857   2.794  23.020  0.00  0.00    +0.069 C 
ATOM     25  C   UNL     1       8.654   3.749  23.022  0.00  0.00    +0.041 C 
BRANCH  24  26
ATOM     26  O   UNL     1       9.948   2.376  21.666  0.00  0.00    -0.388 OA
ATOM     27  H   UNL     1      10.816   1.974  21.502  0.00  0.00    +0.210 HD
ENDBRANCH  24  26
BRANCH  24  28
ATOM     28  C   UNL     1      11.101   3.699  23.353  0.00  0.00    +0.034 C 
BRANCH  28  29
ATOM     29  C   UNL     1      10.819   5.168  23.696  0.00  0.00    -0.001 C 
ATOM     30  C   UNL     1      12.112   5.916  23.975  0.00  0.00    +0.004 C 
ENDBRANCH  28  29
ENDBRANCH  24  28
ENDBRANCH  19  24
BRANCH  12  31
ATOM     31  O   UNL     1       5.175  -3.419  22.189  0.00  0.00    -0.422 OA
BRANCH  31  32
ATOM     32  C   UNL     1       5.364  -4.807  22.225  0.00  0.00    +0.309 C 
ATOM     33  O   UNL     1       4.513  -5.677  22.385  0.00  0.00    -0.251 OA
ATOM     34  C   UNL     1       6.830  -5.125  22.164  0.00  0.00    +0.136 C 
ENDBRANCH  31  32
ENDBRANCH  12  31
TORSDOF 7
ENDMDL
MODEL 3
REMARK VINA RESULT:      -7.3      3.359      5.604
REMARK  Name = 
REMARK  12 active torsions:
REMARK  status: ('A' for Active; 'I' for Inactive)
REMARK    1  A    between atoms: C_5  and  O_6
REMARK    2  A    between atoms: O_6  and  C_7
REMARK    3  A    between atoms: C_7  and  C_8
REMARK    4  A    between atoms: N_17  and  C_18
REMARK    5  A    between atoms: C_23  and  C_25
REMARK    6  A    between atoms: C_25  and  C_26
REMARK    7  A    between atoms: C_25  and  O_27
REMARK    8  A    between atoms: C_25  and  C_28
REMARK    9  A    between atoms: C_28  and  C_29
REMARK   10  A    between atoms: C_29  and  C_30
REMARK   11  A    between atoms: C_31  and  O_32
REMARK   12  A    between atoms: O_32  and  C_33
REMARK                            x       y       z     vdW  Elec       q    Type
REMARK                         _______ _______ _______ _____ _____    ______ ____
ROOT
ATOM      1  C   UNL     1       7.883  -0.279  22.985  0.00  0.00    +0.221 C 
ATOM      2  C   UNL     1       8.995   0.833  23.075  0.00  0.00    +0.130 C 
ATOM      3  C   UNL     1      10.108   0.277  23.981  0.00  0.00    +0.008 C 
ATOM      4  C   UNL     1       9.762  -0.046  25.237  0.00  0.00    -0.019 C 
ATOM      5  C   UNL     1       8.264   0.113  25.531  0.00  0.00    +0.018 C 
ATOM      6  C   UNL     1       8.084   1.637  25.386  0.00  0.00    +0.023 C 
ATOM      7  C   UNL     1       7.710  -0.498  26.868  0.00  0.00    +0.072 C 
ATOM      8  C   UNL     1       8.122  -2.023  26.977  0.00  0.00    +0.055 C 
ATOM      9  C   UNL     1       8.041  -2.791  25.665  0.00  0.00    -0.038 A 
ATOM     10  C   UNL     1       7.922  -2.052  24.486  0.00  0.00    +0.012 A 
ATOM     11  C   UNL     1       8.033  -2.543  23.216  0.00  0.00    +0.167 A 
ATOM     12  C   UNL     1       7.906  -3.901  23.076  0.00  0.00    +0.173 A 
ATOM     13  C   UNL     1       7.979  -4.723  24.222  0.00  0.00    +0.050 A 
ATOM     14  C   UNL     1       8.122  -4.167  25.516  0.00  0.00    +0.008 A 
ATOM     15  N   UNL     1       6.241  -0.226  26.881  0.00  0.00    -0.301 NA
ATOM     16  C   UNL     1       5.584  -0.157  28.168  0.00  0.00    +0.105 C 
ATOM     17  C   UNL     1       5.477  -1.037  25.936  0.00  0.00    +0.085 C 
ATOM     18  C   UNL     1       5.946  -0.662  24.546  0.00  0.00    +0.031 C 
ATOM     19  C   UNL     1       8.456   2.118  23.927  0.00  0.00    +0.061 C 
ATOM     20  C   UNL     1       7.482  -0.635  24.419  0.00  0.00    +0.051 C 
ATOM     21  O   UNL     1       8.163  -1.548  22.279  0.00  0.00    -0.481 OA
ENDROOT
BRANCH   2  22
ATOM     22  O   UNL     1       9.685   1.134  21.872  0.00  0.00    -0.368 OA
ATOM     23  C   UNL     1      10.568   2.233  21.860  0.00  0.00    +0.195 C 
ENDBRANCH   2  22
BRANCH  19  24
ATOM     24  C   UNL     1       7.364   3.152  23.431  0.00  0.00    +0.069 C 
ATOM     25  C   UNL     1       5.954   2.941  24.002  0.00  0.00    +0.041 C 
BRANCH  24  26
ATOM     26  O   UNL     1       7.169   3.078  22.026  0.00  0.00    -0.388 OA
ATOM     27  H   UNL     1       7.578   2.270  21.678  0.00  0.00    +0.210 HD
ENDBRANCH  24  26
BRANCH  24  28
ATOM     28  C   UNL     1       7.745   4.632  23.809  0.00  0.00    +0.034 C 
BRANCH  28  29
ATOM     29  C   UNL     1       9.239   4.945  23.967  0.00  0.00    -0.001 C 
ATOM     30  C   UNL     1       9.547   6.358  23.500  0.00  0.00    +0.004 C 
ENDBRANCH  28  29
ENDBRANCH  24  28
ENDBRANCH  19  24
BRANCH  12  31
ATOM     31  O   UNL     1       7.568  -4.509  21.860  0.00  0.00    -0.422 OA
BRANCH  31  32
ATOM     32  C   UNL     1       6.190  -4.609  21.627  0.00  0.00    +0.309 C 
ATOM     33  O   UNL     1       5.383  -3.695  21.485  0.00  0.00    -0.251 OA
ATOM     34  C   UNL     1       5.762  -6.046  21.697  0.00  0.00    +0.136 C 
ENDBRANCH  31  32
ENDBRANCH  12  31
TORSDOF 7
ENDMDL
MODEL 4
REMARK VINA RESULT:      -7.3      3.773      8.766
REMARK  Name = 
REMARK  12 active torsions:
REMARK  status: ('A' for Active; 'I' for Inactive)
REMARK    1  A    between atoms: C_5  and  O_6
REMARK    2  A    between atoms: O_6  and  C_7
REMARK    3  A    between atoms: C_7  and  C_8
REMARK    4  A    between atoms: N_17  and  C_18
REMARK    5  A    between atoms: C_23  and  C_25
REMARK    6  A    between atoms: C_25  and  C_26
REMARK    7  A    between atoms: C_25  and  O_27
REMARK    8  A    between atoms: C_25  and  C_28
REMARK    9  A    between atoms: C_28  and  C_29
REMARK   10  A    between atoms: C_29  and  C_30
REMARK   11  A    between atoms: C_31  and  O_32
REMARK   12  A    between atoms: O_32  and  C_33
REMARK                            x       y       z     vdW  Elec       q    Type
REMARK                         _______ _______ _______ _____ _____    ______ ____
ROOT
ATOM      1  C   UNL     1       9.184   1.666  24.142  0.00  0.00    +0.221 C 
ATOM      2  C   UNL     1       9.250   0.479  23.107  0.00  0.00    +0.130 C 
ATOM      3  C   UNL     1       9.071   1.097  21.710  0.00  0.00    +0.008 C 
ATOM      4  C   UNL     1       7.929   1.764  21.483  0.00  0.00    -0.019 C 
ATOM      5  C   UNL     1       7.018   1.874  22.713  0.00  0.00    +0.018 C 
ATOM      6  C   UNL     1       6.645   0.398  22.951  0.00  0.00    +0.023 C 
ATOM      7  C   UNL     1       5.800   2.865  22.637  0.00  0.00    +0.072 C 
ATOM      8  C   UNL     1       6.300   4.304  22.205  0.00  0.00    +0.055 C 
ATOM      9  C   UNL     1       7.621   4.725  22.832  0.00  0.00    -0.038 A 
ATOM     10  C   UNL     1       8.392   3.737  23.449  0.00  0.00    +0.012 A 
ATOM     11  C   UNL     1       9.678   3.877  23.886  0.00  0.00    +0.167 A 
ATOM     12  C   UNL     1      10.127   5.163  24.050  0.00  0.00    +0.173 A 
ATOM     13  C   UNL     1       9.391   6.228  23.486  0.00  0.00    +0.050 A 
ATOM     14  C   UNL     1       8.169   5.999  22.809  0.00  0.00    +0.008 A 
ATOM     15  N   UNL     1       5.114   2.793  23.962  0.00  0.00    -0.301 NA
ATOM     16  C   UNL     1       3.707   3.131  24.007  0.00  0.00    +0.105 C 
ATOM     17  C   UNL     1       5.850   3.434  25.050  0.00  0.00    +0.085 C 
ATOM     18  C   UNL     1       7.145   2.668  25.223  0.00  0.00    +0.031 C 
ATOM     19  C   UNL     1       7.930  -0.474  23.242  0.00  0.00    +0.061 C 
ATOM     20  C   UNL     1       7.874   2.416  23.888  0.00  0.00    +0.051 C 
ATOM     21  O   UNL     1      10.268   2.672  24.179  0.00  0.00    -0.481 OA
ENDROOT
BRANCH   2  22
ATOM     22  O   UNL     1      10.492  -0.197  23.000  0.00  0.00    -0.368 OA
ATOM     23  C   UNL     1      10.519  -1.460  22.372  0.00  0.00    +0.195 C 
ENDBRANCH   2  22
BRANCH  19  24
ATOM     24  C   UNL     1       7.626  -1.452  24.451  0.00  0.00    +0.069 C 
ATOM     25  C   UNL     1       6.423  -1.063  25.323  0.00  0.00    +0.041 C 
BRANCH  24  26
ATOM     26  O   UNL     1       8.706  -1.498  25.374  0.00  0.00    -0.388 OA
ATOM     27  H   UNL     1       9.550  -1.504  24.895  0.00  0.00    +0.210 HD
ENDBRANCH  24  26
BRANCH  24  28
ATOM     28  C   UNL     1       7.322  -2.916  23.958  0.00  0.00    +0.034 C 
BRANCH  28  29
ATOM     29  C   UNL     1       6.876  -3.077  22.499  0.00  0.00    -0.001 C 
ATOM     30  C   UNL     1       5.407  -3.461  22.422  0.00  0.00    +0.004 C 
ENDBRANCH  28  29
ENDBRANCH  24  28
ENDBRANCH  19  24
BRANCH  12  31
ATOM     31  O   UNL     1      11.216   5.487  24.869  0.00  0.00    -0.422 OA
BRANCH  31  32
ATOM     32  C   UNL     1      12.323   6.001  24.181  0.00  0.00    +0.309 C 
ATOM     33  O   UNL     1      12.840   7.108  24.309  0.00  0.00    -0.251 OA
ATOM     34  C   UNL     1      12.759   5.035  23.119  0.00  0.00    +0.136 C 
ENDBRANCH  31  32
ENDBRANCH  12  31
TORSDOF 7
ENDMDL
MODEL 5
REMARK VINA RESULT:      -7.2      2.723      6.847
REMARK  Name = 
REMARK  12 active torsions:
REMARK  status: ('A' for Active; 'I' for Inactive)
REMARK    1  A    between atoms: C_5  and  O_6
REMARK    2  A    between atoms: O_6  and  C_7
REMARK    3  A    between atoms: C_7  and  C_8
REMARK    4  A    between atoms: N_17  and  C_18
REMARK    5  A    between atoms: C_23  and  C_25
REMARK    6  A    between atoms: C_25  and  C_26
REMARK    7  A    between atoms: C_25  and  O_27
REMARK    8  A    between atoms: C_25  and  C_28
REMARK    9  A    between atoms: C_28  and  C_29
REMARK   10  A    between atoms: C_29  and  C_30
REMARK   11  A    between atoms: C_31  and  O_32
REMARK   12  A    between atoms: O_32  and  C_33
REMARK                            x       y       z     vdW  Elec       q    Type
REMARK                         _______ _______ _______ _____ _____    ______ ____
ROOT
ATOM      1  C   UNL     1       6.048  -0.480  24.651  0.00  0.00    +0.221 C 
ATOM      2  C   UNL     1       5.986  -0.649  26.216  0.00  0.00    +0.130 C 
ATOM      3  C   UNL     1       7.439  -0.746  26.711  0.00  0.00    +0.008 C 
ATOM      4  C   UNL     1       8.178  -1.759  26.228  0.00  0.00    -0.019 C 
ATOM      5  C   UNL     1       7.455  -2.608  25.173  0.00  0.00    +0.018 C 
ATOM      6  C   UNL     1       6.318  -3.230  26.007  0.00  0.00    +0.023 C 
ATOM      7  C   UNL     1       8.311  -3.633  24.345  0.00  0.00    +0.072 C 
ATOM      8  C   UNL     1       9.551  -2.897  23.690  0.00  0.00    +0.055 C 
ATOM      9  C   UNL     1       9.243  -1.509  23.149  0.00  0.00    -0.038 A 
ATOM     10  C   UNL     1       8.042  -0.911  23.538  0.00  0.00    +0.012 A 
ATOM     11  C   UNL     1       7.685   0.389  23.322  0.00  0.00    +0.167 A 
ATOM     12  C   UNL     1       8.393   1.062  22.359  0.00  0.00    +0.173 A 
ATOM     13  C   UNL     1       9.604   0.513  21.882  0.00  0.00    +0.050 A 
ATOM     14  C   UNL     1      10.067  -0.745  22.335  0.00  0.00    +0.008 A 
ATOM     15  N   UNL     1       7.373  -4.291  23.387  0.00  0.00    -0.301 NA
ATOM     16  C   UNL     1       7.718  -5.615  22.914  0.00  0.00    +0.105 C 
ATOM     17  C   UNL     1       6.942  -3.429  22.289  0.00  0.00    +0.085 C 
ATOM     18  C   UNL     1       6.159  -2.287  22.902  0.00  0.00    +0.031 C 
ATOM     19  C   UNL     1       5.379  -2.112  26.612  0.00  0.00    +0.061 C 
ATOM     20  C   UNL     1       6.880  -1.643  24.103  0.00  0.00    +0.051 C 
ATOM     21  O   UNL     1       6.592   0.764  24.063  0.00  0.00    -0.481 OA
ENDROOT
BRANCH   2  22
ATOM     22  O   UNL     1       5.474   0.453  26.949  0.00  0.00    -0.368 OA
ATOM     23  C   UNL     1       5.378   0.341  28.352  0.00  0.00    +0.195 C 
ENDBRANCH   2  22
BRANCH  19  24
ATOM     24  C   UNL     1       3.869  -2.556  26.434  0.00  0.00    +0.069 C 
ATOM     25  C   UNL     1       3.567  -3.358  25.160  0.00  0.00    +0.041 C 
BRANCH  24  26
ATOM     26  O   UNL     1       2.999  -1.437  26.338  0.00  0.00    -0.388 OA
ATOM     27  H   UNL     1       3.457  -0.636  26.639  0.00  0.00    +0.210 HD
ENDBRANCH  24  26
BRANCH  24  28
ATOM     28  C   UNL     1       3.383  -3.470  27.621  0.00  0.00    +0.034 C 
BRANCH  28  29
ATOM     29  C   UNL     1       4.120  -3.319  28.959  0.00  0.00    -0.001 C 
ATOM     30  C   UNL     1       4.779  -4.627  29.363  0.00  0.00    +0.004 C 
ENDBRANCH  28  29
ENDBRANCH  24  28
ENDBRANCH  19  24
BRANCH  12  31
ATOM     31  O   UNL     1       7.904   2.210  21.721  0.00  0.00    -0.422 OA
BRANCH  31  32
ATOM     32  C   UNL     1       7.965   3.373  22.498  0.00  0.00    +0.309 C 
ATOM     33  O   UNL     1       8.869   3.729  23.249  0.00  0.00    -0.251 OA
ATOM     34  C   UNL     1       6.668   4.123  22.400  0.00  0.00    +0.136 C 
ENDBRANCH  31  32
ENDBRANCH  12  31
TORSDOF 7
ENDMDL
MODEL 6
REMARK VINA RESULT:      -7.1      3.387      5.783
REMARK  Name = 
REMARK  12 active torsions:
REMARK  status: ('A' for Active; 'I' for Inactive)
REMARK    1  A    between atoms: C_5  and  O_6
REMARK    2  A    between atoms: O_6  and  C_7
REMARK    3  A    between atoms: C_7  and  C_8
REMARK    4  A    between atoms: N_17  and  C_18
REMARK    5  A    between atoms: C_23  and  C_25
REMARK    6  A    between atoms: C_25  and  C_26
REMARK    7  A    between atoms: C_25  and  O_27
REMARK    8  A    between atoms: C_25  and  C_28
REMARK    9  A    between atoms: C_28  and  C_29
REMARK   10  A    between atoms: C_29  and  C_30
REMARK   11  A    between atoms: C_31  and  O_32
REMARK   12  A    between atoms: O_32  and  C_33
REMARK                            x       y       z     vdW  Elec       q    Type
REMARK                         _______ _______ _______ _____ _____    ______ ____
ROOT
ATOM      1  C   UNL     1       7.956  -0.072  22.978  0.00  0.00    +0.221 C 
ATOM      2  C   UNL     1       9.098   1.003  23.125  0.00  0.00    +0.130 C 
ATOM      3  C   UNL     1      10.153   0.405  24.070  0.00  0.00    +0.008 C 
ATOM      4  C   UNL     1       9.746   0.082  25.308  0.00  0.00    -0.019 C 
ATOM      5  C   UNL     1       8.242   0.286  25.541  0.00  0.00    +0.018 C 
ATOM      6  C   UNL     1       8.116   1.816  25.403  0.00  0.00    +0.023 C 
ATOM      7  C   UNL     1       7.614  -0.319  26.848  0.00  0.00    +0.072 C 
ATOM      8  C   UNL     1       7.974  -1.857  26.959  0.00  0.00    +0.055 C 
ATOM      9  C   UNL     1       7.924  -2.610  25.638  0.00  0.00    -0.038 A 
ATOM     10  C   UNL     1       7.878  -1.859  24.462  0.00  0.00    +0.012 A 
ATOM     11  C   UNL     1       8.027  -2.341  23.193  0.00  0.00    +0.167 A 
ATOM     12  C   UNL     1       7.863  -3.694  23.034  0.00  0.00    +0.173 A 
ATOM     13  C   UNL     1       7.863  -4.528  24.175  0.00  0.00    +0.050 A 
ATOM     14  C   UNL     1       7.969  -3.987  25.478  0.00  0.00    +0.008 A 
ATOM     15  N   UNL     1       6.155  -0.001  26.802  0.00  0.00    -0.301 NA
ATOM     16  C   UNL     1       5.447   0.078  28.062  0.00  0.00    +0.105 C 
ATOM     17  C   UNL     1       5.406  -0.780  25.819  0.00  0.00    +0.085 C 
ATOM     18  C   UNL     1       5.945  -0.407  24.453  0.00  0.00    +0.031 C 
ATOM     19  C   UNL     1       8.563   2.297  23.966  0.00  0.00    +0.061 C 
ATOM     20  C   UNL     1       7.485  -0.428  24.390  0.00  0.00    +0.051 C 
ATOM     21  O   UNL     1       8.226  -1.344  22.271  0.00  0.00    -0.481 OA
ENDROOT
BRANCH   2  22
ATOM     22  O   UNL     1       9.846   1.293  21.954  0.00  0.00    -0.368 OA
ATOM     23  C   UNL     1      10.668   2.438  21.948  0.00  0.00    +0.195 C 
ENDBRANCH   2  22
BRANCH  19  24
ATOM     24  C   UNL     1       7.525   3.370  23.435  0.00  0.00    +0.069 C 
ATOM     25  C   UNL     1       6.855   3.027  22.096  0.00  0.00    +0.041 C 
BRANCH  24  26
ATOM     26  O   UNL     1       8.145   4.624  23.187  0.00  0.00    -0.388 OA
ATOM     27  H   UNL     1       7.884   5.262  23.869  0.00  0.00    +0.210 HD
ENDBRANCH  24  26
BRANCH  24  28
ATOM     28  C   UNL     1       6.338   3.587  24.446  0.00  0.00    +0.034 C 
BRANCH  28  29
ATOM     29  C   UNL     1       4.944   3.139  23.986  0.00  0.00    -0.001 C 
ATOM     30  C   UNL     1       4.102   2.692  25.170  0.00  0.00    +0.004 C 
ENDBRANCH  28  29
ENDBRANCH  24  28
ENDBRANCH  19  24
BRANCH  12  31
ATOM     31  O   UNL     1       7.558  -4.281  21.800  0.00  0.00    -0.422 OA
BRANCH  31  32
ATOM     32  C   UNL     1       6.197  -4.555  21.611  0.00  0.00    +0.309 C 
ATOM     33  O   UNL     1       5.245  -3.806  21.809  0.00  0.00    -0.251 OA
ATOM     34  C   UNL     1       6.013  -5.997  21.234  0.00  0.00    +0.136 C 
ENDBRANCH  31  32
ENDBRANCH  12  31
TORSDOF 7
ENDMDL
MODEL 7
REMARK VINA RESULT:      -6.9      3.174      5.431
REMARK  Name = 
REMARK  12 active torsions:
REMARK  status: ('A' for Active; 'I' for Inactive)
REMARK    1  A    between atoms: C_5  and  O_6
REMARK    2  A    between atoms: O_6  and  C_7
REMARK    3  A    between atoms: C_7  and  C_8
REMARK    4  A    between atoms: N_17  and  C_18
REMARK    5  A    between atoms: C_23  and  C_25
REMARK    6  A    between atoms: C_25  and  C_26
REMARK    7  A    between atoms: C_25  and  O_27
REMARK    8  A    between atoms: C_25  and  C_28
REMARK    9  A    between atoms: C_28  and  C_29
REMARK   10  A    between atoms: C_29  and  C_30
REMARK   11  A    between atoms: C_31  and  O_32
REMARK   12  A    between atoms: O_32  and  C_33
REMARK                            x       y       z     vdW  Elec       q    Type
REMARK                         _______ _______ _______ _____ _____    ______ ____
ROOT
ATOM      1  C   UNL     1       6.950  -0.498  23.677  0.00  0.00    +0.221 C 
ATOM      2  C   UNL     1       8.521  -0.480  23.563  0.00  0.00    +0.130 C 
ATOM      3  C   UNL     1       9.069  -1.056  24.880  0.00  0.00    +0.008 C 
ATOM      4  C   UNL     1       8.741  -0.406  26.009  0.00  0.00    -0.019 C 
ATOM      5  C   UNL     1       7.781   0.772  25.792  0.00  0.00    +0.018 C 
ATOM      6  C   UNL     1       8.653   1.726  24.953  0.00  0.00    +0.023 C 
ATOM      7  C   UNL     1       7.117   1.419  27.061  0.00  0.00    +0.072 C 
ATOM      8  C   UNL     1       6.411   0.300  27.932  0.00  0.00    +0.055 C 
ATOM      9  C   UNL     1       5.689  -0.765  27.120  0.00  0.00    -0.038 A 
ATOM     10  C   UNL     1       5.962  -0.837  25.753  0.00  0.00    +0.012 A 
ATOM     11  C   UNL     1       5.572  -1.835  24.906  0.00  0.00    +0.167 A 
ATOM     12  C   UNL     1       4.553  -2.641  25.346  0.00  0.00    +0.173 A 
ATOM     13  C   UNL     1       4.187  -2.609  26.711  0.00  0.00    +0.050 A 
ATOM     14  C   UNL     1       4.811  -1.717  27.616  0.00  0.00    +0.008 A 
ATOM     15  N   UNL     1       6.222   2.506  26.562  0.00  0.00    -0.301 NA
ATOM     16  C   UNL     1       5.932   3.601  27.462  0.00  0.00    +0.105 C 
ATOM     17  C   UNL     1       5.011   2.024  25.902  0.00  0.00    +0.085 C 
ATOM     18  C   UNL     1       5.449   1.262  24.669  0.00  0.00    +0.031 C 
ATOM     19  C   UNL     1       9.082   1.053  23.589  0.00  0.00    +0.061 C 
ATOM     20  C   UNL     1       6.580   0.255  24.958  0.00  0.00    +0.051 C 
ATOM     21  O   UNL     1       6.226  -1.788  23.700  0.00  0.00    -0.481 OA
ENDROOT
BRANCH   2  22
ATOM     22  O   UNL     1       9.092  -1.331  22.582  0.00  0.00    -0.368 OA
ATOM     23  C   UNL     1      10.473  -1.610  22.655  0.00  0.00    +0.195 C 
ENDBRANCH   2  22
BRANCH  19  24
ATOM     24  C   UNL     1       8.916   2.109  22.419  0.00  0.00    +0.069 C 
ATOM     25  C   UNL     1       7.839   1.770  21.378  0.00  0.00    +0.041 C 
BRANCH  24  26
ATOM     26  O   UNL     1      10.102   2.228  21.646  0.00  0.00    -0.388 OA
ATOM     27  H   UNL     1       9.919   1.995  20.722  0.00  0.00    +0.210 HD
ENDBRANCH  24  26
BRANCH  24  28
ATOM     28  C   UNL     1       8.526   3.533  22.966  0.00  0.00    +0.034 C 
BRANCH  28  29
ATOM     29  C   UNL     1       7.265   4.180  22.379  0.00  0.00    -0.001 C 
ATOM     30  C   UNL     1       6.323   4.630  23.484  0.00  0.00    +0.004 C 
ENDBRANCH  28  29
ENDBRANCH  24  28
ENDBRANCH  19  24
BRANCH  12  31
ATOM     31  O   UNL     1       3.760  -3.403  24.479  0.00  0.00    -0.422 OA
BRANCH  31  32
ATOM     32  C   UNL     1       4.203  -4.720  24.298  0.00  0.00    +0.309 C 
ATOM     33  O   UNL     1       5.228  -5.235  24.734  0.00  0.00    -0.251 OA
ATOM     34  C   UNL     1       3.289  -5.441  23.349  0.00  0.00    +0.136 C 
ENDBRANCH  31  32
ENDBRANCH  12  31
TORSDOF 7
ENDMDL
MODEL 8
REMARK VINA RESULT:      -6.8      2.635      3.499
REMARK  Name = 
REMARK  12 active torsions:
REMARK  status: ('A' for Active; 'I' for Inactive)
REMARK    1  A    between atoms: C_5  and  O_6
REMARK    2  A    between atoms: O_6  and  C_7
REMARK    3  A    between atoms: C_7  and  C_8
REMARK    4  A    between atoms: N_17  and  C_18
REMARK    5  A    between atoms: C_23  and  C_25
REMARK    6  A    between atoms: C_25  and  C_26
REMARK    7  A    between atoms: C_25  and  O_27
REMARK    8  A    between atoms: C_25  and  C_28
REMARK    9  A    between atoms: C_28  and  C_29
REMARK   10  A    between atoms: C_29  and  C_30
REMARK   11  A    between atoms: C_31  and  O_32
REMARK   12  A    between atoms: O_32  and  C_33
REMARK                            x       y       z     vdW  Elec       q    Type
REMARK                         _______ _______ _______ _____ _____    ______ ____
ROOT
ATOM      1  C   UNL     1       5.970  -1.536  25.094  0.00  0.00    +0.221 C 
ATOM      2  C   UNL     1       6.656  -0.582  24.045  0.00  0.00    +0.130 C 
ATOM      3  C   UNL     1       6.519  -1.261  22.671  0.00  0.00    +0.008 C 
ATOM      4  C   UNL     1       7.078  -2.474  22.535  0.00  0.00    -0.019 C 
ATOM      5  C   UNL     1       7.691  -3.025  23.830  0.00  0.00    +0.018 C 
ATOM      6  C   UNL     1       8.834  -2.021  24.078  0.00  0.00    +0.023 C 
ATOM      7  C   UNL     1       8.116  -4.537  23.855  0.00  0.00    +0.072 C 
ATOM      8  C   UNL     1       6.902  -5.448  23.403  0.00  0.00    +0.055 C 
ATOM      9  C   UNL     1       5.549  -5.000  23.936  0.00  0.00    -0.038 A 
ATOM     10  C   UNL     1       5.458  -3.719  24.485  0.00  0.00    +0.012 A 
ATOM     11  C   UNL     1       4.306  -3.072  24.829  0.00  0.00    +0.167 A 
ATOM     12  C   UNL     1       3.189  -3.855  24.973  0.00  0.00    +0.173 A 
ATOM     13  C   UNL     1       3.204  -5.178  24.477  0.00  0.00    +0.050 A 
ATOM     14  C   UNL     1       4.368  -5.726  23.889  0.00  0.00    +0.008 A 
ATOM     15  N   UNL     1       8.647  -4.805  25.225  0.00  0.00    -0.301 NA
ATOM     16  C   UNL     1       9.596  -5.887  25.376  0.00  0.00    +0.105 C 
ATOM     17  C   UNL     1       7.619  -4.850  26.263  0.00  0.00    +0.085 C 
ATOM     18  C   UNL     1       6.997  -3.471  26.332  0.00  0.00    +0.031 C 
ATOM     19  C   UNL     1       8.274  -0.555  24.265  0.00  0.00    +0.061 C 
ATOM     20  C   UNL     1       6.619  -2.914  24.946  0.00  0.00    +0.051 C 
ATOM     21  O   UNL     1       4.504  -1.734  25.064  0.00  0.00    -0.481 OA
ENDROOT
BRANCH   2  22
ATOM     22  O   UNL     1       6.039   0.679  23.840  0.00  0.00    -0.368 OA
ATOM     23  C   UNL     1       6.615   1.566  22.907  0.00  0.00    +0.195 C 
ENDBRANCH   2  22
BRANCH  19  24
ATOM     24  C   UNL     1       9.022   0.131  25.481  0.00  0.00    +0.069 C 
ATOM     25  C   UNL     1       9.153  -0.735  26.743  0.00  0.00    +0.041 C 
BRANCH  24  26
ATOM     26  O   UNL     1       8.332   1.285  25.939  0.00  0.00    -0.388 OA
ATOM     27  H   UNL     1       8.772   2.085  25.612  0.00  0.00    +0.210 HD
ENDBRANCH  24  26
BRANCH  24  28
ATOM     28  C   UNL     1      10.495   0.541  25.108  0.00  0.00    +0.034 C 
BRANCH  28  29
ATOM     29  C   UNL     1      10.726   1.079  23.689  0.00  0.00    -0.001 C 
ATOM     30  C   UNL     1      10.483   2.578  23.634  0.00  0.00    +0.004 C 
ENDBRANCH  28  29
ENDBRANCH  24  28
ENDBRANCH  19  24
BRANCH  12  31
ATOM     31  O   UNL     1       2.071  -3.452  25.715  0.00  0.00    -0.422 OA
BRANCH  31  32
ATOM     32  C   UNL     1       1.848  -4.201  26.877  0.00  0.00    +0.309 C 
ATOM     33  O   UNL     1       0.935  -4.991  27.099  0.00  0.00    -0.251 OA
ATOM     34  C   UNL     1       2.842  -3.814  27.933  0.00  0.00    +0.136 C 
ENDBRANCH  31  32
ENDBRANCH  12  31
TORSDOF 7
ENDMDL
MODEL 9
REMARK VINA RESULT:      -6.8      1.944      6.406
REMARK  Name = 
REMARK  12 active torsions:
REMARK  status: ('A' for Active; 'I' for Inactive)
REMARK    1  A    between atoms: C_5  and  O_6
REMARK    2  A    between atoms: O_6  and  C_7
REMARK    3  A    between atoms: C_7  and  C_8
REMARK    4  A    between atoms: N_17  and  C_18
REMARK    5  A    between atoms: C_23  and  C_25
REMARK    6  A    between atoms: C_25  and  C_26
REMARK    7  A    between atoms: C_25  and  O_27
REMARK    8  A    between atoms: C_25  and  C_28
REMARK    9  A    between atoms: C_28  and  C_29
REMARK   10  A    between atoms: C_29  and  C_30
REMARK   11  A    between atoms: C_31  and  O_32
REMARK   12  A    between atoms: O_32  and  C_33
REMARK                            x       y       z     vdW  Elec       q    Type
REMARK                         _______ _______ _______ _____ _____    ______ ____
ROOT
ATOM      1  C   UNL     1       5.260  -3.549  26.644  0.00  0.00    +0.221 C 
ATOM      2  C   UNL     1       5.528  -4.844  27.501  0.00  0.00    +0.130 C 
ATOM      3  C   UNL     1       7.039  -5.121  27.428  0.00  0.00    +0.008 C 
ATOM      4  C   UNL     1       7.559  -5.332  26.209  0.00  0.00    -0.019 C 
ATOM      5  C   UNL     1       6.549  -5.167  25.065  0.00  0.00    +0.018 C 
ATOM      6  C   UNL     1       5.572  -6.324  25.351  0.00  0.00    +0.023 C 
ATOM      7  C   UNL     1       7.107  -5.115  23.596  0.00  0.00    +0.072 C 
ATOM      8  C   UNL     1       8.234  -4.008  23.485  0.00  0.00    +0.055 C 
ATOM      9  C   UNL     1       7.941  -2.733  24.264  0.00  0.00    -0.038 A 
ATOM     10  C   UNL     1       6.914  -2.771  25.210  0.00  0.00    +0.012 A 
ATOM     11  C   UNL     1       6.637  -1.804  26.134  0.00  0.00    +0.167 A 
ATOM     12  C   UNL     1       7.174  -0.565  25.896  0.00  0.00    +0.173 A 
ATOM     13  C   UNL     1       8.196  -0.429  24.931  0.00  0.00    +0.050 A 
ATOM     14  C   UNL     1       8.632  -1.535  24.164  0.00  0.00    +0.008 A 
ATOM     15  N   UNL     1       5.926  -4.923  22.702  0.00  0.00    -0.301 NA
ATOM     16  C   UNL     1       6.038  -5.387  21.336  0.00  0.00    +0.105 C 
ATOM     17  C   UNL     1       5.344  -3.584  22.763  0.00  0.00    +0.085 C 
ATOM     18  C   UNL     1       4.821  -3.390  24.171  0.00  0.00    +0.031 C 
ATOM     19  C   UNL     1       4.893  -6.158  26.768  0.00  0.00    +0.061 C 
ATOM     20  C   UNL     1       5.843  -3.799  25.251  0.00  0.00    +0.051 C 
ATOM     21  O   UNL     1       5.771  -2.240  27.106  0.00  0.00    -0.481 OA
ENDROOT
BRANCH   2  22
ATOM     22  O   UNL     1       5.290  -4.738  28.896  0.00  0.00    -0.368 OA
ATOM     23  C   UNL     1       5.639  -5.827  29.722  0.00  0.00    +0.195 C 
ENDBRANCH   2  22
BRANCH  19  24
ATOM     24  C   UNL     1       3.347  -6.478  26.639  0.00  0.00    +0.069 C 
ATOM     25  C   UNL     1       2.413  -5.266  26.770  0.00  0.00    +0.041 C 
BRANCH  24  26
ATOM     26  O   UNL     1       2.903  -7.352  27.668  0.00  0.00    -0.388 OA
ATOM     27  H   UNL     1       2.726  -6.848  28.477  0.00  0.00    +0.210 HD
ENDBRANCH  24  26
BRANCH  24  28
ATOM     28  C   UNL     1       2.996  -7.121  25.246  0.00  0.00    +0.034 C 
BRANCH  28  29
ATOM     29  C   UNL     1       1.908  -6.425  24.415  0.00  0.00    -0.001 C 
ATOM     30  C   UNL     1       2.445  -6.025  23.051  0.00  0.00    +0.004 C 
ENDBRANCH  28  29
ENDBRANCH  24  28
ENDBRANCH  19  24
BRANCH  12  31
ATOM     31  O   UNL     1       6.663   0.606  26.471  0.00  0.00    -0.422 OA
BRANCH  31  32
ATOM     32  C   UNL     1       5.846   1.359  25.618  0.00  0.00    +0.309 C 
ATOM     33  O   UNL     1       4.881   0.971  24.964  0.00  0.00    -0.251 OA
ATOM     34  C   UNL     1       6.388   2.753  25.488  0.00  0.00    +0.136 C 
ENDBRANCH  31  32
ENDBRANCH  12  31
TORSDOF 7
ENDMDL
