MODEL 1
REMARK VINA RESULT:      -5.1      0.000      0.000
REMARK  Name = 
REMARK  6 active torsions:
REMARK  status: ('A' for Active; 'I' for Inactive)
REMARK    1  A    between atoms: C_2  and  C_3
REMARK    2  A    between atoms: C_2  and  C_4
REMARK    3  A    between atoms: C_2  and  C_6
REMARK    4  A    between atoms: C_4  and  S_5
REMARK    5  A    between atoms: C_12  and  C_14
REMARK    6  A    between atoms: C_14  and  O_15
REMARK                            x       y       z     vdW  Elec       q    Type
REMARK                         _______ _______ _______ _____ _____    ______ ____
ROOT
ATOM      1  C   UNL     1       8.362  -2.786  23.105  0.00  0.00    +0.220 C 
ATOM      2  N   UNL     1       8.097  -4.017  23.703  0.00  0.00    -0.288 N 
ATOM      3  C   UNL     1       8.080  -4.191  25.175  0.00  0.00    +0.184 C 
ATOM      4  C   UNL     1       6.919  -5.156  25.450  0.00  0.00    +0.035 C 
ATOM      5  C   UNL     1       6.096  -5.161  24.170  0.00  0.00    +0.021 C 
ATOM      6  C   UNL     1       7.122  -4.909  23.086  0.00  0.00    +0.109 C 
ATOM      7  O   UNL     1       7.790  -2.427  22.076  0.00  0.00    -0.275 OA
ENDROOT
BRANCH   1   8
ATOM      8  C   UNL     1       9.509  -1.957  23.685  0.00  0.00    +0.082 C 
ATOM      9  C   UNL     1      10.392  -1.520  22.511  0.00  0.00    +0.018 C 
BRANCH   8  10
ATOM     10  C   UNL     1       8.994  -0.714  24.421  0.00  0.00    +0.078 C 
BRANCH  10  11
ATOM     11  S   UNL     1      10.319   0.500  24.711  0.00  0.00    -0.178 S 
ATOM     12  H   UNL     1       9.518   1.577  24.763  0.00  0.00    +0.102 HD
ENDBRANCH  10  11
ENDBRANCH   8  10
ENDBRANCH   1   8
BRANCH   3  13
ATOM     13  C   UNL     1       9.375  -4.797  25.722  0.00  0.00    +0.325 C 
ATOM     14  O   UNL     1      10.326  -5.124  25.030  0.00  0.00    -0.249 OA
BRANCH  13  15
ATOM     15  O   UNL     1       9.395  -4.879  27.074  0.00  0.00    -0.479 OA
ATOM     16  H   UNL     1       8.510  -4.660  27.434  0.00  0.00    +0.295 HD
ENDBRANCH  13  15
ENDBRANCH   3  13
TORSDOF 5
ENDMDL
MODEL 2
REMARK VINA RESULT:      -4.7      2.491      4.268
REMARK  Name = 
REMARK  6 active torsions:
REMARK  status: ('A' for Active; 'I' for Inactive)
REMARK    1  A    between atoms: C_2  and  C_3
REMARK    2  A    between atoms: C_2  and  C_4
REMARK    3  A    between atoms: C_2  and  C_6
REMARK    4  A    between atoms: C_4  and  S_5
REMARK    5  A    between atoms: C_12  and  C_14
REMARK    6  A    between atoms: C_14  and  O_15
REMARK                            x       y       z     vdW  Elec       q    Type
REMARK                         _______ _______ _______ _____ _____    ______ ____
ROOT
ATOM      1  C   UNL     1       6.360  -3.835  24.063  0.00  0.00    +0.220 C 
ATOM      2  N   UNL     1       7.544  -3.272  24.538  0.00  0.00    -0.288 N 
ATOM      3  C   UNL     1       8.862  -3.916  24.326  0.00  0.00    +0.184 C 
ATOM      4  C   UNL     1       9.831  -2.761  24.040  0.00  0.00    +0.035 C 
ATOM      5  C   UNL     1       8.942  -1.571  23.710  0.00  0.00    +0.021 C 
ATOM      6  C   UNL     1       7.693  -1.821  24.529  0.00  0.00    +0.109 C 
ATOM      7  O   UNL     1       5.440  -3.141  23.629  0.00  0.00    -0.275 OA
ENDROOT
BRANCH   1   8
ATOM      8  C   UNL     1       6.177  -5.341  24.247  0.00  0.00    +0.082 C 
ATOM      9  C   UNL     1       5.177  -5.541  25.392  0.00  0.00    +0.018 C 
BRANCH   8  10
ATOM     10  C   UNL     1       5.629  -6.004  22.977  0.00  0.00    +0.078 C 
BRANCH  10  11
ATOM     11  S   UNL     1       6.783  -5.848  21.579  0.00  0.00    -0.178 S 
ATOM     12  H   UNL     1       6.021  -6.506  20.690  0.00  0.00    +0.102 HD
ENDBRANCH  10  11
ENDBRANCH   8  10
ENDBRANCH   1   8
BRANCH   3  13
ATOM     13  C   UNL     1       9.355  -4.690  25.552  0.00  0.00    +0.325 C 
ATOM     14  O   UNL     1       8.974  -4.483  26.693  0.00  0.00    -0.249 OA
BRANCH  13  15
ATOM     15  O   UNL     1      10.219  -5.686  25.242  0.00  0.00    -0.479 OA
ATOM     16  H   UNL     1      10.927  -5.735  25.919  0.00  0.00    +0.295 HD
ENDBRANCH  13  15
ENDBRANCH   3  13
TORSDOF 5
ENDMDL
MODEL 3
REMARK VINA RESULT:      -4.7      2.157      3.563
REMARK  Name = 
REMARK  6 active torsions:
REMARK  status: ('A' for Active; 'I' for Inactive)
REMARK    1  A    between atoms: C_2  and  C_3
REMARK    2  A    between atoms: C_2  and  C_4
REMARK    3  A    between atoms: C_2  and  C_6
REMARK    4  A    between atoms: C_4  and  S_5
REMARK    5  A    between atoms: C_12  and  C_14
REMARK    6  A    between atoms: C_14  and  O_15
REMARK                            x       y       z     vdW  Elec       q    Type
REMARK                         _______ _______ _______ _____ _____    ______ ____
ROOT
ATOM      1  C   UNL     1       8.906  -1.887  23.464  0.00  0.00    +0.220 C 
ATOM      2  N   UNL     1       8.060  -2.967  23.710  0.00  0.00    -0.288 N 
ATOM      3  C   UNL     1       7.516  -3.806  22.616  0.00  0.00    +0.184 C 
ATOM      4  C   UNL     1       7.544  -5.241  23.160  0.00  0.00    +0.035 C 
ATOM      5  C   UNL     1       8.467  -5.189  24.367  0.00  0.00    +0.021 C 
ATOM      6  C   UNL     1       8.280  -3.784  24.899  0.00  0.00    +0.109 C 
ATOM      7  O   UNL     1       9.838  -1.607  24.218  0.00  0.00    -0.275 OA
ENDROOT
BRANCH   1   8
ATOM      8  C   UNL     1       8.540  -0.959  22.305  0.00  0.00    +0.082 C 
ATOM      9  C   UNL     1       7.595   0.112  22.862  0.00  0.00    +0.018 C 
BRANCH   8  10
ATOM     10  C   UNL     1       9.779  -0.280  21.710  0.00  0.00    +0.078 C 
BRANCH  10  11
ATOM     11  S   UNL     1       9.812   1.504  22.068  0.00  0.00    -0.178 S 
ATOM     12  H   UNL     1       8.768   1.826  21.287  0.00  0.00    +0.102 HD
ENDBRANCH  10  11
ENDBRANCH   8  10
ENDBRANCH   1   8
BRANCH   3  13
ATOM     13  C   UNL     1       6.077  -3.441  22.239  0.00  0.00    +0.325 C 
ATOM     14  O   UNL     1       5.338  -2.760  22.933  0.00  0.00    -0.249 OA
BRANCH  13  15
ATOM     15  O   UNL     1       5.714  -3.896  21.017  0.00  0.00    -0.479 OA
ATOM     16  H   UNL     1       6.367  -3.606  20.346  0.00  0.00    +0.295 HD
ENDBRANCH  13  15
ENDBRANCH   3  13
TORSDOF 5
ENDMDL
MODEL 4
REMARK VINA RESULT:      -4.6      3.331      5.156
REMARK  Name = 
REMARK  6 active torsions:
REMARK  status: ('A' for Active; 'I' for Inactive)
REMARK    1  A    between atoms: C_2  and  C_3
REMARK    2  A    between atoms: C_2  and  C_4
REMARK    3  A    between atoms: C_2  and  C_6
REMARK    4  A    between atoms: C_4  and  S_5
REMARK    5  A    between atoms: C_12  and  C_14
REMARK    6  A    between atoms: C_14  and  O_15
REMARK                            x       y       z     vdW  Elec       q    Type
REMARK                         _______ _______ _______ _____ _____    ______ ____
ROOT
ATOM      1  C   UNL     1       7.918  -1.311  23.344  0.00  0.00    +0.220 C 
ATOM      2  N   UNL     1       8.383  -0.003  23.221  0.00  0.00    -0.288 N 
ATOM      3  C   UNL     1       9.827   0.312  23.103  0.00  0.00    +0.184 C 
ATOM      4  C   UNL     1       9.905   1.458  22.085  0.00  0.00    +0.035 C 
ATOM      5  C   UNL     1       8.553   1.460  21.387  0.00  0.00    +0.021 C 
ATOM      6  C   UNL     1       7.601   0.959  22.452  0.00  0.00    +0.109 C 
ATOM      7  O   UNL     1       6.869  -1.680  22.815  0.00  0.00    -0.275 OA
ENDROOT
BRANCH   1   8
ATOM      8  C   UNL     1       8.675  -2.238  24.295  0.00  0.00    +0.082 C 
ATOM      9  C   UNL     1       8.157  -1.960  25.710  0.00  0.00    +0.018 C 
BRANCH   8  10
ATOM     10  C   UNL     1       8.441  -3.715  23.952  0.00  0.00    +0.078 C 
BRANCH  10  11
ATOM     11  S   UNL     1       9.180  -4.824  25.192  0.00  0.00    -0.178 S 
ATOM     12  H   UNL     1       9.533  -3.858  26.056  0.00  0.00    +0.102 HD
ENDBRANCH  10  11
ENDBRANCH   8  10
ENDBRANCH   1   8
BRANCH   3  13
ATOM     13  C   UNL     1      10.450   0.772  24.423  0.00  0.00    +0.325 C 
ATOM     14  O   UNL     1      11.650   0.778  24.650  0.00  0.00    -0.249 OA
BRANCH  13  15
ATOM     15  O   UNL     1       9.539   1.240  25.309  0.00  0.00    -0.479 OA
ATOM     16  H   UNL     1       9.225   0.507  25.881  0.00  0.00    +0.295 HD
ENDBRANCH  13  15
ENDBRANCH   3  13
TORSDOF 5
ENDMDL
MODEL 5
REMARK VINA RESULT:      -4.5      5.062      6.614
REMARK  Name = 
REMARK  6 active torsions:
REMARK  status: ('A' for Active; 'I' for Inactive)
REMARK    1  A    between atoms: C_2  and  C_3
REMARK    2  A    between atoms: C_2  and  C_4
REMARK    3  A    between atoms: C_2  and  C_6
REMARK    4  A    between atoms: C_4  and  S_5
REMARK    5  A    between atoms: C_12  and  C_14
REMARK    6  A    between atoms: C_14  and  O_15
REMARK                            x       y       z     vdW  Elec       q    Type
REMARK                         _______ _______ _______ _____ _____    ______ ____
ROOT
ATOM      1  C   UNL     1       8.586   3.056  24.766  0.00  0.00    +0.220 C 
ATOM      2  N   UNL     1       8.824   1.753  24.333  0.00  0.00    -0.288 N 
ATOM      3  C   UNL     1      10.089   1.363  23.666  0.00  0.00    +0.184 C 
ATOM      4  C   UNL     1      10.416  -0.034  24.213  0.00  0.00    +0.035 C 
ATOM      5  C   UNL     1       9.542  -0.189  25.449  0.00  0.00    +0.021 C 
ATOM      6  C   UNL     1       8.317   0.638  25.126  0.00  0.00    +0.109 C 
ATOM      7  O   UNL     1       7.967   3.293  25.803  0.00  0.00    -0.275 OA
ENDROOT
BRANCH   1   8
ATOM      8  C   UNL     1       8.985   4.192  23.824  0.00  0.00    +0.082 C 
ATOM      9  C   UNL     1       7.765   4.506  22.949  0.00  0.00    +0.018 C 
BRANCH   8  10
ATOM     10  C   UNL     1       9.391   5.453  24.596  0.00  0.00    +0.078 C 
BRANCH  10  11
ATOM     11  S   UNL     1       8.539   6.935  23.970  0.00  0.00    -0.178 S 
ATOM     12  H   UNL     1       9.102   6.920  22.751  0.00  0.00    +0.102 HD
ENDBRANCH  10  11
ENDBRANCH   8  10
ENDBRANCH   1   8
BRANCH   3  13
ATOM     13  C   UNL     1       9.965   1.287  22.142  0.00  0.00    +0.325 C 
ATOM     14  O   UNL     1       9.463   0.351  21.540  0.00  0.00    -0.249 OA
BRANCH  13  15
ATOM     15  O   UNL     1      10.414   2.400  21.514  0.00  0.00    -0.479 OA
ATOM     16  H   UNL     1       9.888   3.177  21.799  0.00  0.00    +0.295 HD
ENDBRANCH  13  15
ENDBRANCH   3  13
TORSDOF 5
ENDMDL
MODEL 6
REMARK VINA RESULT:      -4.5      1.778      2.026
REMARK  Name = 
REMARK  6 active torsions:
REMARK  status: ('A' for Active; 'I' for Inactive)
REMARK    1  A    between atoms: C_2  and  C_3
REMARK    2  A    between atoms: C_2  and  C_4
REMARK    3  A    between atoms: C_2  and  C_6
REMARK    4  A    between atoms: C_4  and  S_5
REMARK    5  A    between atoms: C_12  and  C_14
REMARK    6  A    between atoms: C_14  and  O_15
REMARK                            x       y       z     vdW  Elec       q    Type
REMARK                         _______ _______ _______ _____ _____    ______ ____
ROOT
ATOM      1  C   UNL     1       7.804  -2.138  25.286  0.00  0.00    +0.220 C 
ATOM      2  N   UNL     1       7.559  -3.491  25.517  0.00  0.00    -0.288 N 
ATOM      3  C   UNL     1       8.535  -4.361  26.214  0.00  0.00    +0.184 C 
ATOM      4  C   UNL     1       7.687  -5.284  27.101  0.00  0.00    +0.035 C 
ATOM      5  C   UNL     1       6.318  -4.625  27.163  0.00  0.00    +0.021 C 
ATOM      6  C   UNL     1       6.200  -3.922  25.827  0.00  0.00    +0.109 C 
ATOM      7  O   UNL     1       6.908  -1.296  25.345  0.00  0.00    -0.275 OA
ENDROOT
BRANCH   1   8
ATOM      8  C   UNL     1       9.201  -1.752  24.800  0.00  0.00    +0.082 C 
ATOM      9  C   UNL     1       9.191  -1.845  23.270  0.00  0.00    +0.018 C 
BRANCH   8  10
ATOM     10  C   UNL     1       9.572  -0.324  25.218  0.00  0.00    +0.078 C 
BRANCH  10  11
ATOM     11  S   UNL     1      10.582   0.511  23.954  0.00  0.00    -0.178 S 
ATOM     12  H   UNL     1      11.260   1.296  24.808  0.00  0.00    +0.102 HD
ENDBRANCH  10  11
ENDBRANCH   8  10
ENDBRANCH   1   8
BRANCH   3  13
ATOM     13  C   UNL     1       9.369  -5.216  25.256  0.00  0.00    +0.325 C 
ATOM     14  O   UNL     1       8.992  -5.572  24.150  0.00  0.00    -0.249 OA
BRANCH  13  15
ATOM     15  O   UNL     1      10.608  -5.491  25.727  0.00  0.00    -0.479 OA
ATOM     16  H   UNL     1      10.625  -6.393  26.112  0.00  0.00    +0.295 HD
ENDBRANCH  13  15
ENDBRANCH   3  13
TORSDOF 5
ENDMDL
MODEL 7
REMARK VINA RESULT:      -4.5      3.235      5.499
REMARK  Name = 
REMARK  6 active torsions:
REMARK  status: ('A' for Active; 'I' for Inactive)
REMARK    1  A    between atoms: C_2  and  C_3
REMARK    2  A    between atoms: C_2  and  C_4
REMARK    3  A    between atoms: C_2  and  C_6
REMARK    4  A    between atoms: C_4  and  S_5
REMARK    5  A    between atoms: C_12  and  C_14
REMARK    6  A    between atoms: C_14  and  O_15
REMARK                            x       y       z     vdW  Elec       q    Type
REMARK                         _______ _______ _______ _____ _____    ______ ____
ROOT
ATOM      1  C   UNL     1       9.509  -1.400  22.840  0.00  0.00    +0.220 C 
ATOM      2  N   UNL     1       9.059  -0.084  22.737  0.00  0.00    -0.288 N 
ATOM      3  C   UNL     1       8.499   0.650  23.896  0.00  0.00    +0.184 C 
ATOM      4  C   UNL     1       9.030   2.083  23.758  0.00  0.00    +0.035 C 
ATOM      5  C   UNL     1      10.176   1.986  22.762  0.00  0.00    +0.021 C 
ATOM      6  C   UNL     1       9.769   0.841  21.860  0.00  0.00    +0.109 C 
ATOM      7  O   UNL     1      10.493  -1.800  22.218  0.00  0.00    -0.275 OA
ENDROOT
BRANCH   1   8
ATOM      8  C   UNL     1       8.642  -2.377  23.634  0.00  0.00    +0.082 C 
ATOM      9  C   UNL     1       7.755  -3.118  22.627  0.00  0.00    +0.018 C 
BRANCH   8  10
ATOM     10  C   UNL     1       9.493  -3.395  24.403  0.00  0.00    +0.078 C 
BRANCH  10  11
ATOM     11  S   UNL     1       8.581  -4.937  24.724  0.00  0.00    -0.178 S 
ATOM     12  H   UNL     1       9.650  -5.661  25.095  0.00  0.00    +0.102 HD
ENDBRANCH  10  11
ENDBRANCH   8  10
ENDBRANCH   1   8
BRANCH   3  13
ATOM     13  C   UNL     1       6.968   0.682  23.903  0.00  0.00    +0.325 C 
ATOM     14  O   UNL     1       6.294   1.072  24.843  0.00  0.00    -0.249 OA
BRANCH  13  15
ATOM     15  O   UNL     1       6.422   0.293  22.726  0.00  0.00    -0.479 OA
ATOM     16  H   UNL     1       6.461   1.030  22.081  0.00  0.00    +0.295 HD
ENDBRANCH  13  15
ENDBRANCH   3  13
TORSDOF 5
ENDMDL
MODEL 8
REMARK VINA RESULT:      -4.4      2.989      5.167
REMARK  Name = 
REMARK  6 active torsions:
REMARK  status: ('A' for Active; 'I' for Inactive)
REMARK    1  A    between atoms: C_2  and  C_3
REMARK    2  A    between atoms: C_2  and  C_4
REMARK    3  A    between atoms: C_2  and  C_6
REMARK    4  A    between atoms: C_4  and  S_5
REMARK    5  A    between atoms: C_12  and  C_14
REMARK    6  A    between atoms: C_14  and  O_15
REMARK                            x       y       z     vdW  Elec       q    Type
REMARK                         _______ _______ _______ _____ _____    ______ ____
ROOT
ATOM      1  C   UNL     1       8.860  -1.120  25.807  0.00  0.00    +0.220 C 
ATOM      2  N   UNL     1       9.578  -0.686  24.693  0.00  0.00    -0.288 N 
ATOM      3  C   UNL     1       8.940  -0.501  23.368  0.00  0.00    +0.184 C 
ATOM      4  C   UNL     1       9.587   0.763  22.786  0.00  0.00    +0.035 C 
ATOM      5  C   UNL     1      10.257   1.446  23.969  0.00  0.00    +0.021 C 
ATOM      6  C   UNL     1      10.642   0.295  24.874  0.00  0.00    +0.109 C 
ATOM      7  O   UNL     1       9.094  -0.691  26.937  0.00  0.00    -0.275 OA
ENDROOT
BRANCH   1   8
ATOM      8  C   UNL     1       7.873  -2.269  25.601  0.00  0.00    +0.082 C 
ATOM      9  C   UNL     1       8.611  -3.568  25.945  0.00  0.00    +0.018 C 
BRANCH   8  10
ATOM     10  C   UNL     1       6.644  -2.130  26.508  0.00  0.00    +0.078 C 
BRANCH  10  11
ATOM     11  S   UNL     1       5.106  -1.981  25.547  0.00  0.00    -0.178 S 
ATOM     12  H   UNL     1       4.838  -3.296  25.500  0.00  0.00    +0.102 HD
ENDBRANCH  10  11
ENDBRANCH   8  10
ENDBRANCH   1   8
BRANCH   3  13
ATOM     13  C   UNL     1       9.187  -1.674  22.415  0.00  0.00    +0.325 C 
ATOM     14  O   UNL     1       8.364  -2.541  22.167  0.00  0.00    -0.249 OA
BRANCH  13  15
ATOM     15  O   UNL     1      10.398  -1.626  21.812  0.00  0.00    -0.479 OA
ATOM     16  H   UNL     1      10.322  -1.941  20.887  0.00  0.00    +0.295 HD
ENDBRANCH  13  15
ENDBRANCH   3  13
TORSDOF 5
ENDMDL
MODEL 9
REMARK VINA RESULT:      -4.3      2.852      4.370
REMARK  Name = 
REMARK  6 active torsions:
REMARK  status: ('A' for Active; 'I' for Inactive)
REMARK    1  A    between atoms: C_2  and  C_3
REMARK    2  A    between atoms: C_2  and  C_4
REMARK    3  A    between atoms: C_2  and  C_6
REMARK    4  A    between atoms: C_4  and  S_5
REMARK    5  A    between atoms: C_12  and  C_14
REMARK    6  A    between atoms: C_14  and  O_15
REMARK                            x       y       z     vdW  Elec       q    Type
REMARK                         _______ _______ _______ _____ _____    ______ ____
ROOT
ATOM      1  C   UNL     1       6.402  -5.058  25.138  0.00  0.00    +0.220 C 
ATOM      2  N   UNL     1       6.154  -4.894  23.775  0.00  0.00    -0.288 N 
ATOM      3  C   UNL     1       7.177  -4.356  22.848  0.00  0.00    +0.184 C 
ATOM      4  C   UNL     1       7.018  -5.174  21.559  0.00  0.00    +0.035 C 
ATOM      5  C   UNL     1       6.194  -6.388  21.959  0.00  0.00    +0.021 C 
ATOM      6  C   UNL     1       5.322  -5.872  23.084  0.00  0.00    +0.109 C 
ATOM      7  O   UNL     1       5.945  -6.010  25.771  0.00  0.00    -0.275 OA
ENDROOT
BRANCH   1   8
ATOM      8  C   UNL     1       7.134  -3.926  25.858  0.00  0.00    +0.082 C 
ATOM      9  C   UNL     1       6.139  -3.292  26.837  0.00  0.00    +0.018 C 
BRANCH   8  10
ATOM     10  C   UNL     1       8.350  -4.443  26.637  0.00  0.00    +0.078 C 
BRANCH  10  11
ATOM     11  S   UNL     1       9.659  -5.050  25.527  0.00  0.00    -0.178 S 
ATOM     12  H   UNL     1       8.845  -5.367  24.506  0.00  0.00    +0.102 HD
ENDBRANCH  10  11
ENDBRANCH   8  10
ENDBRANCH   1   8
BRANCH   3  13
ATOM     13  C   UNL     1       6.975  -2.873  22.527  0.00  0.00    +0.325 C 
ATOM     14  O   UNL     1       7.873  -2.112  22.201  0.00  0.00    -0.249 OA
BRANCH  13  15
ATOM     15  O   UNL     1       5.677  -2.488  22.576  0.00  0.00    -0.479 OA
ATOM     16  H   UNL     1       5.536  -1.891  23.342  0.00  0.00    +0.295 HD
ENDBRANCH  13  15
ENDBRANCH   3  13
TORSDOF 5
ENDMDL
