MODEL 1
REMARK VINA RESULT:      -7.4      0.000      0.000
REMARK  Name = 
REMARK  5 active torsions:
REMARK  status: ('A' for Active; 'I' for Inactive)
REMARK    1  A    between atoms: O_1  and  C_2
REMARK    2  A    between atoms: C_2  and  C_4
REMARK    3  A    between atoms: C_9  and  C_10
REMARK    4  A    between atoms: C_14  and  O_15
REMARK    5  A    between atoms: C_23  and  O_24
REMARK                            x       y       z     vdW  Elec       q    Type
REMARK                         _______ _______ _______ _____ _____    ______ ____
ROOT
ATOM      1  C   UNL     1       7.674  -2.261  24.093  0.00  0.00    +0.087 C 
ATOM      2  C   UNL     1       6.488  -1.884  24.953  0.00  0.00    +0.007 A 
ATOM      3  C   UNL     1       5.779  -2.840  25.703  0.00  0.00    +0.012 A 
ATOM      4  C   UNL     1       4.724  -2.453  26.540  0.00  0.00    +0.046 A 
ATOM      5  C   UNL     1       4.389  -1.109  26.642  0.00  0.00    +0.120 A 
ATOM      6  C   UNL     1       5.101  -0.148  25.935  0.00  0.00    +0.092 A 
ATOM      7  C   UNL     1       6.154  -0.533  25.102  0.00  0.00    +0.136 A 
ATOM      8  O   UNL     1       6.818   0.493  24.474  0.00  0.00    -0.455 OA
ATOM      9  C   UNL     1       7.814   0.196  23.577  0.00  0.00    +0.136 A 
ATOM     10  C   UNL     1       8.425   1.286  22.950  0.00  0.00    +0.092 A 
ATOM     11  C   UNL     1       9.442   1.074  22.027  0.00  0.00    +0.120 A 
ATOM     12  C   UNL     1       9.858  -0.212  21.708  0.00  0.00    +0.046 A 
ATOM     13  C   UNL     1       9.266  -1.295  22.352  0.00  0.00    +0.012 A 
ATOM     14  C   UNL     1       8.237  -1.104  23.295  0.00  0.00    +0.007 A 
ENDROOT
BRANCH   1  16
ATOM     15  C   UNL     1       7.973  -4.835  23.678  0.00  0.00    +0.063 A 
ATOM     16  C   UNL     1       7.525  -3.554  23.283  0.00  0.00    -0.021 A 
ATOM     17  C   UNL     1       6.722  -3.463  22.119  0.00  0.00    +0.005 A 
ATOM     18  C   UNL     1       6.313  -4.597  21.419  0.00  0.00    +0.000 A 
ATOM     19  C   UNL     1       6.711  -5.854  21.849  0.00  0.00    +0.001 A 
ATOM     20  C   UNL     1       7.547  -5.970  22.959  0.00  0.00    +0.015 A 
BRANCH  15  21
ATOM     21  C   UNL     1       8.776  -5.143  24.893  0.00  0.00    +0.337 C 
ATOM     22  O   UNL     1       8.255  -5.494  25.941  0.00  0.00    -0.245 OA
BRANCH  21  23
ATOM     23  O   UNL     1      10.107  -5.143  24.709  0.00  0.00    -0.477 OA
ATOM     24  H   UNL     1      10.431  -4.648  23.938  0.00  0.00    +0.295 HD
ENDBRANCH  21  23
ENDBRANCH  15  21
ENDBRANCH   1  16
BRANCH   5  25
ATOM     25  O   UNL     1       3.370  -0.687  27.444  0.00  0.00    -0.507 OA
ATOM     26  H   UNL     1       2.698  -1.386  27.499  0.00  0.00    +0.292 HD
ENDBRANCH   5  25
BRANCH  11  27
ATOM     27  O   UNL     1      10.029   2.165  21.458  0.00  0.00    -0.507 OA
ATOM     28  H   UNL     1      10.791   2.424  22.003  0.00  0.00    +0.292 HD
ENDBRANCH  11  27
TORSDOF 5
ENDMDL
MODEL 2
REMARK VINA RESULT:      -6.9      0.954      4.612
REMARK  Name = 
REMARK  5 active torsions:
REMARK  status: ('A' for Active; 'I' for Inactive)
REMARK    1  A    between atoms: O_1  and  C_2
REMARK    2  A    between atoms: C_2  and  C_4
REMARK    3  A    between atoms: C_9  and  C_10
REMARK    4  A    between atoms: C_14  and  O_15
REMARK    5  A    between atoms: C_23  and  O_24
REMARK                            x       y       z     vdW  Elec       q    Type
REMARK                         _______ _______ _______ _____ _____    ______ ____
ROOT
ATOM      1  C   UNL     1       6.586  -1.750  23.048  0.00  0.00    +0.087 C 
ATOM      2  C   UNL     1       7.675  -0.729  22.805  0.00  0.00    +0.007 A 
ATOM      3  C   UNL     1       8.479  -0.759  21.652  0.00  0.00    +0.012 A 
ATOM      4  C   UNL     1       9.438   0.237  21.422  0.00  0.00    +0.046 A 
ATOM      5  C   UNL     1       9.581   1.273  22.336  0.00  0.00    +0.120 A 
ATOM      6  C   UNL     1       8.772   1.337  23.463  0.00  0.00    +0.092 A 
ATOM      7  C   UNL     1       7.814   0.346  23.692  0.00  0.00    +0.136 A 
ATOM      8  O   UNL     1       7.040   0.517  24.814  0.00  0.00    -0.455 OA
ATOM      9  C   UNL     1       6.129  -0.453  25.153  0.00  0.00    +0.136 A 
ATOM     10  C   UNL     1       5.399  -0.231  26.324  0.00  0.00    +0.092 A 
ATOM     11  C   UNL     1       4.457  -1.164  26.741  0.00  0.00    +0.120 A 
ATOM     12  C   UNL     1       4.234  -2.325  26.014  0.00  0.00    +0.046 A 
ATOM     13  C   UNL     1       4.945  -2.534  24.834  0.00  0.00    +0.012 A 
ATOM     14  C   UNL     1       5.901  -1.599  24.389  0.00  0.00    +0.007 A 
ENDROOT
BRANCH   1  16
ATOM     15  C   UNL     1       7.879  -4.010  23.382  0.00  0.00    +0.063 A 
ATOM     16  C   UNL     1       6.943  -3.199  22.698  0.00  0.00    -0.021 A 
ATOM     17  C   UNL     1       6.137  -3.811  21.707  0.00  0.00    +0.005 A 
ATOM     18  C   UNL     1       6.196  -5.181  21.455  0.00  0.00    +0.000 A 
ATOM     19  C   UNL     1       7.076  -5.977  22.172  0.00  0.00    +0.001 A 
ATOM     20  C   UNL     1       7.922  -5.393  23.115  0.00  0.00    +0.015 A 
BRANCH  15  21
ATOM     21  C   UNL     1       8.773  -3.569  24.487  0.00  0.00    +0.337 C 
ATOM     22  O   UNL     1       8.428  -3.618  25.657  0.00  0.00    -0.245 OA
BRANCH  21  23
ATOM     23  O   UNL     1      10.024  -3.251  24.112  0.00  0.00    -0.477 OA
ATOM     24  H   UNL     1      10.737  -3.780  24.510  0.00  0.00    +0.295 HD
ENDBRANCH  21  23
ENDBRANCH  15  21
ENDBRANCH   1  16
BRANCH   5  25
ATOM     25  O   UNL     1      10.501   2.262  22.154  0.00  0.00    -0.507 OA
ATOM     26  H   UNL     1      11.304   1.883  21.762  0.00  0.00    +0.292 HD
ENDBRANCH   5  25
BRANCH  11  27
ATOM     27  O   UNL     1       3.747  -0.896  27.873  0.00  0.00    -0.507 OA
ATOM     28  H   UNL     1       3.906  -1.610  28.513  0.00  0.00    +0.292 HD
ENDBRANCH  11  27
TORSDOF 5
ENDMDL
MODEL 3
REMARK VINA RESULT:      -6.8      1.781      5.095
REMARK  Name = 
REMARK  5 active torsions:
REMARK  status: ('A' for Active; 'I' for Inactive)
REMARK    1  A    between atoms: O_1  and  C_2
REMARK    2  A    between atoms: C_2  and  C_4
REMARK    3  A    between atoms: C_9  and  C_10
REMARK    4  A    between atoms: C_14  and  O_15
REMARK    5  A    between atoms: C_23  and  O_24
REMARK                            x       y       z     vdW  Elec       q    Type
REMARK                         _______ _______ _______ _____ _____    ______ ____
ROOT
ATOM      1  C   UNL     1       6.685  -1.478  23.711  0.00  0.00    +0.087 C 
ATOM      2  C   UNL     1       7.691  -0.503  23.141  0.00  0.00    +0.007 A 
ATOM      3  C   UNL     1       8.585  -0.869  22.118  0.00  0.00    +0.012 A 
ATOM      4  C   UNL     1       9.464   0.072  21.566  0.00  0.00    +0.046 A 
ATOM      5  C   UNL     1       9.436   1.384  22.021  0.00  0.00    +0.120 A 
ATOM      6  C   UNL     1       8.536   1.771  23.005  0.00  0.00    +0.092 A 
ATOM      7  C   UNL     1       7.659   0.833  23.556  0.00  0.00    +0.136 A 
ATOM      8  O   UNL     1       6.784   1.321  24.497  0.00  0.00    -0.455 OA
ATOM      9  C   UNL     1       5.942   0.450  25.143  0.00  0.00    +0.136 A 
ATOM     10  C   UNL     1       5.102   1.008  26.111  0.00  0.00    +0.092 A 
ATOM     11  C   UNL     1       4.219   0.197  26.814  0.00  0.00    +0.120 A 
ATOM     12  C   UNL     1       4.164  -1.170  26.575  0.00  0.00    +0.046 A 
ATOM     13  C   UNL     1       4.984  -1.721  25.593  0.00  0.00    +0.012 A 
ATOM     14  C   UNL     1       5.882  -0.917  24.865  0.00  0.00    +0.007 A 
ENDROOT
BRANCH   1  16
ATOM     15  C   UNL     1       6.786  -4.062  23.260  0.00  0.00    +0.063 A 
ATOM     16  C   UNL     1       7.201  -2.901  23.954  0.00  0.00    -0.021 A 
ATOM     17  C   UNL     1       8.302  -3.016  24.836  0.00  0.00    +0.005 A 
ATOM     18  C   UNL     1       9.015  -4.206  24.971  0.00  0.00    +0.000 A 
ATOM     19  C   UNL     1       8.636  -5.323  24.242  0.00  0.00    +0.001 A 
ATOM     20  C   UNL     1       7.520  -5.256  23.407  0.00  0.00    +0.015 A 
BRANCH  15  21
ATOM     21  C   UNL     1       5.691  -4.135  22.255  0.00  0.00    +0.337 C 
ATOM     22  O   UNL     1       5.910  -4.360  21.075  0.00  0.00    -0.245 OA
BRANCH  21  23
ATOM     23  O   UNL     1       4.448  -4.074  22.764  0.00  0.00    -0.477 OA
ATOM     24  H   UNL     1       3.917  -3.302  22.504  0.00  0.00    +0.295 HD
ENDBRANCH  21  23
ENDBRANCH  15  21
ENDBRANCH   1  16
BRANCH   5  25
ATOM     25  O   UNL     1      10.272   2.333  21.513  0.00  0.00    -0.507 OA
ATOM     26  H   UNL     1      10.105   2.430  20.561  0.00  0.00    +0.292 HD
ENDBRANCH   5  25
BRANCH  11  27
ATOM     27  O   UNL     1       3.399   0.785  27.730  0.00  0.00    -0.507 OA
ATOM     28  H   UNL     1       3.488   0.311  28.573  0.00  0.00    +0.292 HD
ENDBRANCH  11  27
TORSDOF 5
ENDMDL
MODEL 4
REMARK VINA RESULT:      -6.8      2.505      4.676
REMARK  Name = 
REMARK  5 active torsions:
REMARK  status: ('A' for Active; 'I' for Inactive)
REMARK    1  A    between atoms: O_1  and  C_2
REMARK    2  A    between atoms: C_2  and  C_4
REMARK    3  A    between atoms: C_9  and  C_10
REMARK    4  A    between atoms: C_14  and  O_15
REMARK    5  A    between atoms: C_23  and  O_24
REMARK                            x       y       z     vdW  Elec       q    Type
REMARK                         _______ _______ _______ _____ _____    ______ ____
ROOT
ATOM      1  C   UNL     1       6.206  -3.179  25.241  0.00  0.00    +0.087 C 
ATOM      2  C   UNL     1       6.157  -3.923  23.925  0.00  0.00    +0.007 A 
ATOM      3  C   UNL     1       5.166  -4.882  23.648  0.00  0.00    +0.012 A 
ATOM      4  C   UNL     1       5.107  -5.510  22.397  0.00  0.00    +0.046 A 
ATOM      5  C   UNL     1       6.026  -5.165  21.415  0.00  0.00    +0.120 A 
ATOM      6  C   UNL     1       6.990  -4.196  21.659  0.00  0.00    +0.092 A 
ATOM      7  C   UNL     1       7.049  -3.568  22.906  0.00  0.00    +0.136 A 
ATOM      8  O   UNL     1       8.014  -2.599  23.037  0.00  0.00    -0.455 OA
ATOM      9  C   UNL     1       8.189  -1.989  24.255  0.00  0.00    +0.136 A 
ATOM     10  C   UNL     1       9.210  -1.037  24.326  0.00  0.00    +0.092 A 
ATOM     11  C   UNL     1       9.456  -0.373  25.522  0.00  0.00    +0.120 A 
ATOM     12  C   UNL     1       8.706  -0.650  26.657  0.00  0.00    +0.046 A 
ATOM     13  C   UNL     1       7.674  -1.581  26.578  0.00  0.00    +0.012 A 
ATOM     14  C   UNL     1       7.402  -2.262  25.375  0.00  0.00    +0.007 A 
ENDROOT
BRANCH   1  16
ATOM     15  C   UNL     1       6.830  -4.941  27.083  0.00  0.00    +0.063 A 
ATOM     16  C   UNL     1       5.932  -4.022  26.492  0.00  0.00    -0.021 A 
ATOM     17  C   UNL     1       4.739  -3.718  27.191  0.00  0.00    +0.005 A 
ATOM     18  C   UNL     1       4.478  -4.238  28.459  0.00  0.00    +0.000 A 
ATOM     19  C   UNL     1       5.392  -5.093  29.055  0.00  0.00    +0.001 A 
ATOM     20  C   UNL     1       6.550  -5.454  28.367  0.00  0.00    +0.015 A 
BRANCH  15  21
ATOM     21  C   UNL     1       8.153  -5.347  26.536  0.00  0.00    +0.337 C 
ATOM     22  O   UNL     1       8.254  -6.043  25.537  0.00  0.00    -0.245 OA
BRANCH  21  23
ATOM     23  O   UNL     1       9.214  -4.779  27.135  0.00  0.00    -0.477 OA
ATOM     24  H   UNL     1      10.086  -5.103  26.854  0.00  0.00    +0.295 HD
ENDBRANCH  21  23
ENDBRANCH  15  21
ENDBRANCH   1  16
BRANCH   5  25
ATOM     25  O   UNL     1       6.007  -5.750  20.184  0.00  0.00    -0.507 OA
ATOM     26  H   UNL     1       5.512  -5.184  19.569  0.00  0.00    +0.292 HD
ENDBRANCH   5  25
BRANCH  11  27
ATOM     27  O   UNL     1      10.442   0.567  25.542  0.00  0.00    -0.507 OA
ATOM     28  H   UNL     1      11.301   0.114  25.564  0.00  0.00    +0.292 HD
ENDBRANCH  11  27
TORSDOF 5
ENDMDL
MODEL 5
REMARK VINA RESULT:      -6.7      3.057      5.252
REMARK  Name = 
REMARK  5 active torsions:
REMARK  status: ('A' for Active; 'I' for Inactive)
REMARK    1  A    between atoms: O_1  and  C_2
REMARK    2  A    between atoms: C_2  and  C_4
REMARK    3  A    between atoms: C_9  and  C_10
REMARK    4  A    between atoms: C_14  and  O_15
REMARK    5  A    between atoms: C_23  and  O_24
REMARK                            x       y       z     vdW  Elec       q    Type
REMARK                         _______ _______ _______ _____ _____    ______ ____
ROOT
ATOM      1  C   UNL     1       5.877  -3.542  25.300  0.00  0.00    +0.087 C 
ATOM      2  C   UNL     1       5.598  -4.586  26.359  0.00  0.00    +0.007 A 
ATOM      3  C   UNL     1       5.509  -4.257  27.723  0.00  0.00    +0.012 A 
ATOM      4  C   UNL     1       5.187  -5.233  28.675  0.00  0.00    +0.046 A 
ATOM      5  C   UNL     1       4.936  -6.535  28.262  0.00  0.00    +0.120 A 
ATOM      6  C   UNL     1       4.986  -6.870  26.915  0.00  0.00    +0.092 A 
ATOM      7  C   UNL     1       5.305  -5.897  25.965  0.00  0.00    +0.136 A 
ATOM      8  O   UNL     1       5.295  -6.319  24.658  0.00  0.00    -0.455 OA
ATOM      9  C   UNL     1       5.674  -5.445  23.669  0.00  0.00    +0.136 A 
ATOM     10  C   UNL     1       5.672  -5.950  22.365  0.00  0.00    +0.092 A 
ATOM     11  C   UNL     1       6.043  -5.132  21.305  0.00  0.00    +0.120 A 
ATOM     12  C   UNL     1       6.428  -3.816  21.522  0.00  0.00    +0.046 A 
ATOM     13  C   UNL     1       6.406  -3.307  22.818  0.00  0.00    +0.012 A 
ATOM     14  C   UNL     1       6.028  -4.116  23.907  0.00  0.00    +0.007 A 
ENDROOT
BRANCH   1  16
ATOM     15  C   UNL     1       8.338  -2.736  25.728  0.00  0.00    +0.063 A 
ATOM     16  C   UNL     1       6.945  -2.502  25.657  0.00  0.00    -0.021 A 
ATOM     17  C   UNL     1       6.492  -1.164  25.759  0.00  0.00    +0.005 A 
ATOM     18  C   UNL     1       7.380  -0.092  25.848  0.00  0.00    +0.000 A 
ATOM     19  C   UNL     1       8.746  -0.329  25.858  0.00  0.00    +0.001 A 
ATOM     20  C   UNL     1       9.221  -1.640  25.815  0.00  0.00    +0.015 A 
BRANCH  15  21
ATOM     21  C   UNL     1       9.011  -4.056  25.588  0.00  0.00    +0.337 C 
ATOM     22  O   UNL     1       9.547  -4.401  24.547  0.00  0.00    -0.245 OA
BRANCH  21  23
ATOM     23  O   UNL     1       9.103  -4.769  26.723  0.00  0.00    -0.477 OA
ATOM     24  H   UNL     1       9.585  -4.347  27.455  0.00  0.00    +0.295 HD
ENDBRANCH  21  23
ENDBRANCH  15  21
ENDBRANCH   1  16
BRANCH   5  25
ATOM     25  O   UNL     1       4.619  -7.517  29.153  0.00  0.00    -0.507 OA
ATOM     26  H   UNL     1       4.334  -8.309  28.668  0.00  0.00    +0.292 HD
ENDBRANCH   5  25
BRANCH  11  27
ATOM     27  O   UNL     1       6.001  -5.654  20.047  0.00  0.00    -0.507 OA
ATOM     28  H   UNL     1       5.489  -6.479  20.072  0.00  0.00    +0.292 HD
ENDBRANCH  11  27
TORSDOF 5
ENDMDL
MODEL 6
REMARK VINA RESULT:      -6.7      2.542      5.348
REMARK  Name = 
REMARK  5 active torsions:
REMARK  status: ('A' for Active; 'I' for Inactive)
REMARK    1  A    between atoms: O_1  and  C_2
REMARK    2  A    between atoms: C_2  and  C_4
REMARK    3  A    between atoms: C_9  and  C_10
REMARK    4  A    between atoms: C_14  and  O_15
REMARK    5  A    between atoms: C_23  and  O_24
REMARK                            x       y       z     vdW  Elec       q    Type
REMARK                         _______ _______ _______ _____ _____    ______ ____
ROOT
ATOM      1  C   UNL     1       6.911  -3.804  25.536  0.00  0.00    +0.087 C 
ATOM      2  C   UNL     1       7.785  -2.569  25.514  0.00  0.00    +0.007 A 
ATOM      3  C   UNL     1       8.131  -1.882  26.692  0.00  0.00    +0.012 A 
ATOM      4  C   UNL     1       8.993  -0.778  26.648  0.00  0.00    +0.046 A 
ATOM      5  C   UNL     1       9.524  -0.372  25.430  0.00  0.00    +0.120 A 
ATOM      6  C   UNL     1       9.220  -1.060  24.263  0.00  0.00    +0.092 A 
ATOM      7  C   UNL     1       8.362  -2.162  24.306  0.00  0.00    +0.136 A 
ATOM      8  O   UNL     1       8.151  -2.796  23.105  0.00  0.00    -0.455 OA
ATOM      9  C   UNL     1       7.260  -3.840  23.047  0.00  0.00    +0.136 A 
ATOM     10  C   UNL     1       7.069  -4.417  21.788  0.00  0.00    +0.092 A 
ATOM     11  C   UNL     1       6.183  -5.478  21.640  0.00  0.00    +0.120 A 
ATOM     12  C   UNL     1       5.472  -5.970  22.727  0.00  0.00    +0.046 A 
ATOM     13  C   UNL     1       5.682  -5.409  23.984  0.00  0.00    +0.012 A 
ATOM     14  C   UNL     1       6.579  -4.338  24.160  0.00  0.00    +0.007 A 
ENDROOT
BRANCH   1  16
ATOM     15  C   UNL     1       5.387  -4.711  27.471  0.00  0.00    +0.063 A 
ATOM     16  C   UNL     1       5.707  -3.750  26.483  0.00  0.00    -0.021 A 
ATOM     17  C   UNL     1       4.957  -2.549  26.460  0.00  0.00    +0.005 A 
ATOM     18  C   UNL     1       3.985  -2.271  27.421  0.00  0.00    +0.000 A 
ATOM     19  C   UNL     1       3.720  -3.194  28.420  0.00  0.00    +0.001 A 
ATOM     20  C   UNL     1       4.403  -4.411  28.435  0.00  0.00    +0.015 A 
BRANCH  15  21
ATOM     21  C   UNL     1       6.088  -6.004  27.692  0.00  0.00    +0.337 C 
ATOM     22  O   UNL     1       7.199  -6.060  28.197  0.00  0.00    -0.245 OA
BRANCH  21  23
ATOM     23  O   UNL     1       5.356  -7.100  27.427  0.00  0.00    -0.477 OA
ATOM     24  H   UNL     1       5.713  -7.697  26.747  0.00  0.00    +0.295 HD
ENDBRANCH  21  23
ENDBRANCH  15  21
ENDBRANCH   1  16
BRANCH   5  25
ATOM     25  O   UNL     1      10.366   0.696  25.340  0.00  0.00    -0.507 OA
ATOM     26  H   UNL     1      10.442   1.117  26.212  0.00  0.00    +0.292 HD
ENDBRANCH   5  25
BRANCH  11  27
ATOM     27  O   UNL     1       6.046  -6.031  20.402  0.00  0.00    -0.507 OA
ATOM     28  H   UNL     1       5.713  -5.349  19.795  0.00  0.00    +0.292 HD
ENDBRANCH  11  27
TORSDOF 5
ENDMDL
MODEL 7
REMARK VINA RESULT:      -6.6      2.092      4.692
REMARK  Name = 
REMARK  5 active torsions:
REMARK  status: ('A' for Active; 'I' for Inactive)
REMARK    1  A    between atoms: O_1  and  C_2
REMARK    2  A    between atoms: C_2  and  C_4
REMARK    3  A    between atoms: C_9  and  C_10
REMARK    4  A    between atoms: C_14  and  O_15
REMARK    5  A    between atoms: C_23  and  O_24
REMARK                            x       y       z     vdW  Elec       q    Type
REMARK                         _______ _______ _______ _____ _____    ______ ____
ROOT
ATOM      1  C   UNL     1       6.429  -0.500  24.071  0.00  0.00    +0.087 C 
ATOM      2  C   UNL     1       6.427  -1.975  23.738  0.00  0.00    +0.007 A 
ATOM      3  C   UNL     1       5.471  -2.858  24.273  0.00  0.00    +0.012 A 
ATOM      4  C   UNL     1       5.455  -4.207  23.898  0.00  0.00    +0.046 A 
ATOM      5  C   UNL     1       6.381  -4.672  22.973  0.00  0.00    +0.120 A 
ATOM      6  C   UNL     1       7.310  -3.807  22.409  0.00  0.00    +0.092 A 
ATOM      7  C   UNL     1       7.326  -2.461  22.781  0.00  0.00    +0.136 A 
ATOM      8  O   UNL     1       8.259  -1.680  22.141  0.00  0.00    -0.455 OA
ATOM      9  C   UNL     1       8.393  -0.363  22.506  0.00  0.00    +0.136 A 
ATOM     10  C   UNL     1       9.382   0.364  21.838  0.00  0.00    +0.092 A 
ATOM     11  C   UNL     1       9.585   1.704  22.148  0.00  0.00    +0.120 A 
ATOM     12  C   UNL     1       8.824   2.333  23.123  0.00  0.00    +0.046 A 
ATOM     13  C   UNL     1       7.822   1.614  23.770  0.00  0.00    +0.012 A 
ATOM     14  C   UNL     1       7.594   0.257  23.469  0.00  0.00    +0.007 A 
ENDROOT
BRANCH   1  16
ATOM     15  C   UNL     1       7.057  -0.338  26.614  0.00  0.00    +0.063 A 
ATOM     16  C   UNL     1       6.158  -0.148  25.538  0.00  0.00    -0.021 A 
ATOM     17  C   UNL     1       4.968   0.576  25.790  0.00  0.00    +0.005 A 
ATOM     18  C   UNL     1       4.710   1.158  27.030  0.00  0.00    +0.000 A 
ATOM     19  C   UNL     1       5.625   1.015  28.062  0.00  0.00    +0.001 A 
ATOM     20  C   UNL     1       6.780   0.260  27.861  0.00  0.00    +0.015 A 
BRANCH  15  21
ATOM     21  C   UNL     1       8.377  -1.020  26.540  0.00  0.00    +0.337 C 
ATOM     22  O   UNL     1       8.475  -2.236  26.476  0.00  0.00    -0.245 OA
BRANCH  21  23
ATOM     23  O   UNL     1       9.434  -0.200  26.409  0.00  0.00    -0.477 OA
ATOM     24  H   UNL     1       9.301   0.718  26.701  0.00  0.00    +0.295 HD
ENDBRANCH  21  23
ENDBRANCH  15  21
ENDBRANCH   1  16
BRANCH   5  25
ATOM     25  O   UNL     1       6.402  -5.977  22.579  0.00  0.00    -0.507 OA
ATOM     26  H   UNL     1       7.031  -6.468  23.134  0.00  0.00    +0.292 HD
ENDBRANCH   5  25
BRANCH  11  27
ATOM     27  O   UNL     1      10.541   2.384  21.455  0.00  0.00    -0.507 OA
ATOM     28  H   UNL     1      11.220   1.752  21.164  0.00  0.00    +0.292 HD
ENDBRANCH  11  27
TORSDOF 5
ENDMDL
MODEL 8
REMARK VINA RESULT:      -6.6      2.515      5.343
REMARK  Name = 
REMARK  5 active torsions:
REMARK  status: ('A' for Active; 'I' for Inactive)
REMARK    1  A    between atoms: O_1  and  C_2
REMARK    2  A    between atoms: C_2  and  C_4
REMARK    3  A    between atoms: C_9  and  C_10
REMARK    4  A    between atoms: C_14  and  O_15
REMARK    5  A    between atoms: C_23  and  O_24
REMARK                            x       y       z     vdW  Elec       q    Type
REMARK                         _______ _______ _______ _____ _____    ______ ____
ROOT
ATOM      1  C   UNL     1       7.383  -3.862  25.266  0.00  0.00    +0.087 C 
ATOM      2  C   UNL     1       7.991  -2.478  25.258  0.00  0.00    +0.007 A 
ATOM      3  C   UNL     1       8.432  -1.851  26.438  0.00  0.00    +0.012 A 
ATOM      4  C   UNL     1       9.049  -0.594  26.392  0.00  0.00    +0.046 A 
ATOM      5  C   UNL     1       9.243   0.029  25.167  0.00  0.00    +0.120 A 
ATOM      6  C   UNL     1       8.845  -0.590  23.989  0.00  0.00    +0.092 A 
ATOM      7  C   UNL     1       8.231  -1.844  24.033  0.00  0.00    +0.136 A 
ATOM      8  O   UNL     1       7.906  -2.388  22.813  0.00  0.00    -0.455 OA
ATOM      9  C   UNL     1       7.230  -3.582  22.772  0.00  0.00    +0.136 A 
ATOM     10  C   UNL     1       6.902  -4.062  21.500  0.00  0.00    +0.092 A 
ATOM     11  C   UNL     1       6.216  -5.263  21.368  0.00  0.00    +0.120 A 
ATOM     12  C   UNL     1       5.838  -5.994  22.486  0.00  0.00    +0.046 A 
ATOM     13  C   UNL     1       6.187  -5.528  23.751  0.00  0.00    +0.012 A 
ATOM     14  C   UNL     1       6.888  -4.316  23.909  0.00  0.00    +0.007 A 
ENDROOT
BRANCH   1  16
ATOM     15  C   UNL     1       5.092  -3.631  26.526  0.00  0.00    +0.063 A 
ATOM     16  C   UNL     1       6.402  -4.152  26.408  0.00  0.00    -0.021 A 
ATOM     17  C   UNL     1       6.801  -5.154  27.325  0.00  0.00    +0.005 A 
ATOM     18  C   UNL     1       5.919  -5.680  28.269  0.00  0.00    +0.000 A 
ATOM     19  C   UNL     1       4.619  -5.203  28.338  0.00  0.00    +0.001 A 
ATOM     20  C   UNL     1       4.214  -4.176  27.485  0.00  0.00    +0.015 A 
BRANCH  15  21
ATOM     21  C   UNL     1       4.470  -2.618  25.631  0.00  0.00    +0.337 C 
ATOM     22  O   UNL     1       4.742  -1.430  25.712  0.00  0.00    -0.245 OA
BRANCH  21  23
ATOM     23  O   UNL     1       3.704  -3.122  24.648  0.00  0.00    -0.477 OA
ATOM     24  H   UNL     1       2.831  -3.456  24.916  0.00  0.00    +0.295 HD
ENDBRANCH  21  23
ENDBRANCH  15  21
ENDBRANCH   1  16
BRANCH   5  25
ATOM     25  O   UNL     1       9.838   1.252  25.075  0.00  0.00    -0.507 OA
ATOM     26  H   UNL     1      10.066   1.564  25.967  0.00  0.00    +0.292 HD
ENDBRANCH   5  25
BRANCH  11  27
ATOM     27  O   UNL     1       5.940  -5.708  20.110  0.00  0.00    -0.507 OA
ATOM     28  H   UNL     1       6.107  -6.665  20.078  0.00  0.00    +0.292 HD
ENDBRANCH  11  27
TORSDOF 5
ENDMDL
MODEL 9
REMARK VINA RESULT:      -6.5      3.666      8.016
REMARK  Name = 
REMARK  5 active torsions:
REMARK  status: ('A' for Active; 'I' for Inactive)
REMARK    1  A    between atoms: O_1  and  C_2
REMARK    2  A    between atoms: C_2  and  C_4
REMARK    3  A    between atoms: C_9  and  C_10
REMARK    4  A    between atoms: C_14  and  O_15
REMARK    5  A    between atoms: C_23  and  O_24
REMARK                            x       y       z     vdW  Elec       q    Type
REMARK                         _______ _______ _______ _____ _____    ______ ____
ROOT
ATOM      1  C   UNL     1       8.575   3.041  24.581  0.00  0.00    +0.087 C 
ATOM      2  C   UNL     1       8.901   1.860  23.694  0.00  0.00    +0.007 A 
ATOM      3  C   UNL     1       9.561   2.015  22.461  0.00  0.00    +0.012 A 
ATOM      4  C   UNL     1       9.906   0.898  21.689  0.00  0.00    +0.046 A 
ATOM      5  C   UNL     1       9.609  -0.376  22.158  0.00  0.00    +0.120 A 
ATOM      6  C   UNL     1       8.988  -0.548  23.388  0.00  0.00    +0.092 A 
ATOM      7  C   UNL     1       8.645   0.565  24.159  0.00  0.00    +0.136 A 
ATOM      8  O   UNL     1       8.067   0.289  25.375  0.00  0.00    -0.455 OA
ATOM      9  C   UNL     1       7.629   1.327  26.159  0.00  0.00    +0.136 A 
ATOM     10  C   UNL     1       7.022   0.974  27.367  0.00  0.00    +0.092 A 
ATOM     11  C   UNL     1       6.549   1.964  28.221  0.00  0.00    +0.120 A 
ATOM     12  C   UNL     1       6.661   3.306  27.886  0.00  0.00    +0.046 A 
ATOM     13  C   UNL     1       7.288   3.658  26.693  0.00  0.00    +0.012 A 
ATOM     14  C   UNL     1       7.781   2.672  25.815  0.00  0.00    +0.007 A 
ENDROOT
BRANCH   1  16
ATOM     15  C   UNL     1       8.804   5.448  23.561  0.00  0.00    +0.063 A 
ATOM     16  C   UNL     1       8.051   4.290  23.862  0.00  0.00    -0.021 A 
ATOM     17  C   UNL     1       6.748   4.186  23.317  0.00  0.00    +0.005 A 
ATOM     18  C   UNL     1       6.237   5.149  22.447  0.00  0.00    +0.000 A 
ATOM     19  C   UNL     1       7.006   6.253  22.112  0.00  0.00    +0.001 A 
ATOM     20  C   UNL     1       8.271   6.410  22.677  0.00  0.00    +0.015 A 
BRANCH  15  21
ATOM     21  C   UNL     1      10.203   5.718  23.991  0.00  0.00    +0.337 C 
ATOM     22  O   UNL     1      10.458   6.321  25.021  0.00  0.00    -0.245 OA
BRANCH  21  23
ATOM     23  O   UNL     1      11.150   5.132  23.239  0.00  0.00    -0.477 OA
ATOM     24  H   UNL     1      10.837   4.657  22.450  0.00  0.00    +0.295 HD
ENDBRANCH  21  23
ENDBRANCH  15  21
ENDBRANCH   1  16
BRANCH   5  25
ATOM     25  O   UNL     1       9.925  -1.491  21.440  0.00  0.00    -0.507 OA
ATOM     26  H   UNL     1      10.559  -1.253  20.744  0.00  0.00    +0.292 HD
ENDBRANCH   5  25
BRANCH  11  27
ATOM     27  O   UNL     1       5.988   1.578  29.402  0.00  0.00    -0.507 OA
ATOM     28  H   UNL     1       6.389   0.736  29.673  0.00  0.00    +0.292 HD
ENDBRANCH  11  27
TORSDOF 5
ENDMDL
