MODEL 1
REMARK VINA RESULT:      -5.5      0.000      0.000
REMARK  Name = 
REMARK  6 active torsions:
REMARK  status: ('A' for Active; 'I' for Inactive)
REMARK    1  A    between atoms: C_1  and  N_2
REMARK    2  A    between atoms: N_2  and  C_3
REMARK    3  A    between atoms: N_2  and  C_4
REMARK    4  A    between atoms: C_4  and  C_5
REMARK    5  A    between atoms: C_5  and  C_6
REMARK    6  A    between atoms: C_12  and  O_13
REMARK                            x       y       z     vdW  Elec       q    Type
REMARK                         _______ _______ _______ _____ _____    ______ ____
ROOT
ATOM      1  C   UNL     1       9.633   2.886  23.351  0.00  0.00    -0.021 A 
ATOM      2  C   UNL     1      10.654   3.881  23.479  0.00  0.00    +0.006 A 
ATOM      3  C   UNL     1      12.033   3.913  23.180  0.00  0.00    +0.055 A 
ATOM      4  C   UNL     1      12.757   5.070  23.472  0.00  0.00    +0.118 A 
ATOM      5  C   UNL     1      12.154   6.179  24.049  0.00  0.00    +0.047 A 
ATOM      6  C   UNL     1      10.789   6.172  24.347  0.00  0.00    +0.030 A 
ATOM      7  C   UNL     1      10.066   5.012  24.046  0.00  0.00    +0.047 A 
ATOM      8  N   UNL     1       8.733   4.730  24.222  0.00  0.00    -0.360 N 
ATOM      9  H   UNL     1       8.058   5.372  24.615  0.00  0.00    +0.165 HD
ATOM     10  C   UNL     1       8.460   3.454  23.809  0.00  0.00    +0.087 A 
ENDROOT
BRANCH   4  11
ATOM     11  O   UNL     1      14.094   5.148  23.200  0.00  0.00    -0.507 OA
ATOM     12  H   UNL     1      14.537   4.400  23.633  0.00  0.00    +0.292 HD
ENDBRANCH   4  11
BRANCH   1  13
ATOM     13  C   UNL     1       9.803   1.482  22.854  0.00  0.00    +0.052 C 
BRANCH  13  14
ATOM     14  C   UNL     1      10.509   0.604  23.903  0.00  0.00    +0.088 C 
BRANCH  14  16
ATOM     15  C   UNL     1       8.672  -0.894  24.284  0.00  0.00    +0.104 C 
ATOM     16  N   UNL     1      10.090  -0.813  23.916  0.00  0.00    -0.308 NA
ATOM     17  C   UNL     1      10.297  -1.460  22.619  0.00  0.00    +0.104 C 
ENDBRANCH  14  16
ENDBRANCH  13  14
ENDBRANCH   1  13
TORSDOF 4
ENDMDL
MODEL 2
REMARK VINA RESULT:      -5.4      3.528      5.587
REMARK  Name = 
REMARK  6 active torsions:
REMARK  status: ('A' for Active; 'I' for Inactive)
REMARK    1  A    between atoms: C_1  and  N_2
REMARK    2  A    between atoms: N_2  and  C_3
REMARK    3  A    between atoms: N_2  and  C_4
REMARK    4  A    between atoms: C_4  and  C_5
REMARK    5  A    between atoms: C_5  and  C_6
REMARK    6  A    between atoms: C_12  and  O_13
REMARK                            x       y       z     vdW  Elec       q    Type
REMARK                         _______ _______ _______ _____ _____    ______ ____
ROOT
ATOM      1  C   UNL     1       8.242  -2.148  23.358  0.00  0.00    -0.021 A 
ATOM      2  C   UNL     1       8.935  -0.898  23.277  0.00  0.00    +0.006 A 
ATOM      3  C   UNL     1       9.147   0.039  22.243  0.00  0.00    +0.055 A 
ATOM      4  C   UNL     1       9.924   1.168  22.508  0.00  0.00    +0.118 A 
ATOM      5  C   UNL     1      10.491   1.384  23.758  0.00  0.00    +0.047 A 
ATOM      6  C   UNL     1      10.288   0.473  24.798  0.00  0.00    +0.030 A 
ATOM      7  C   UNL     1       9.503  -0.654  24.528  0.00  0.00    +0.047 A 
ATOM      8  N   UNL     1       9.139  -1.695  25.348  0.00  0.00    -0.360 N 
ATOM      9  H   UNL     1       9.408  -1.781  26.319  0.00  0.00    +0.165 HD
ATOM     10  C   UNL     1       8.382  -2.600  24.657  0.00  0.00    +0.087 A 
ENDROOT
BRANCH   4  11
ATOM     11  O   UNL     1      10.156   2.103  21.539  0.00  0.00    -0.507 OA
ATOM     12  H   UNL     1      10.778   2.760  21.891  0.00  0.00    +0.292 HD
ENDBRANCH   4  11
BRANCH   1  13
ATOM     13  C   UNL     1       7.532  -2.856  22.244  0.00  0.00    +0.052 C 
BRANCH  13  14
ATOM     14  C   UNL     1       6.006  -2.690  22.366  0.00  0.00    +0.088 C 
BRANCH  14  16
ATOM     15  C   UNL     1       6.124  -4.961  21.596  0.00  0.00    +0.104 C 
ATOM     16  N   UNL     1       5.219  -3.903  22.058  0.00  0.00    -0.308 NA
ATOM     17  C   UNL     1       4.464  -4.377  23.220  0.00  0.00    +0.104 C 
ENDBRANCH  14  16
ENDBRANCH  13  14
ENDBRANCH   1  13
TORSDOF 4
ENDMDL
MODEL 3
REMARK VINA RESULT:      -5.4      4.902      8.538
REMARK  Name = 
REMARK  6 active torsions:
REMARK  status: ('A' for Active; 'I' for Inactive)
REMARK    1  A    between atoms: C_1  and  N_2
REMARK    2  A    between atoms: N_2  and  C_3
REMARK    3  A    between atoms: N_2  and  C_4
REMARK    4  A    between atoms: C_4  and  C_5
REMARK    5  A    between atoms: C_5  and  C_6
REMARK    6  A    between atoms: C_12  and  O_13
REMARK                            x       y       z     vdW  Elec       q    Type
REMARK                         _______ _______ _______ _____ _____    ______ ____
ROOT
ATOM      1  C   UNL     1       8.650  -2.978  23.578  0.00  0.00    -0.021 A 
ATOM      2  C   UNL     1       8.013  -3.868  24.500  0.00  0.00    +0.006 A 
ATOM      3  C   UNL     1       8.378  -4.405  25.753  0.00  0.00    +0.055 A 
ATOM      4  C   UNL     1       7.506  -5.296  26.381  0.00  0.00    +0.118 A 
ATOM      5  C   UNL     1       6.300  -5.664  25.801  0.00  0.00    +0.047 A 
ATOM      6  C   UNL     1       5.915  -5.139  24.565  0.00  0.00    +0.030 A 
ATOM      7  C   UNL     1       6.790  -4.241  23.942  0.00  0.00    +0.047 A 
ATOM      8  N   UNL     1       6.670  -3.576  22.746  0.00  0.00    -0.360 N 
ATOM      9  H   UNL     1       5.878  -3.654  22.123  0.00  0.00    +0.165 HD
ATOM     10  C   UNL     1       7.783  -2.814  22.514  0.00  0.00    +0.087 A 
ENDROOT
BRANCH   4  11
ATOM     11  O   UNL     1       7.817  -5.842  27.595  0.00  0.00    -0.507 OA
ATOM     12  H   UNL     1       7.824  -6.808  27.502  0.00  0.00    +0.292 HD
ENDBRANCH   4  11
BRANCH   1  13
ATOM     13  C   UNL     1      10.012  -2.368  23.712  0.00  0.00    +0.052 C 
BRANCH  13  14
ATOM     14  C   UNL     1      10.223  -1.248  22.676  0.00  0.00    +0.088 C 
BRANCH  14  16
ATOM     15  C   UNL     1      10.760   0.498  24.234  0.00  0.00    +0.104 C 
ATOM     16  N   UNL     1       9.864   0.108  23.140  0.00  0.00    -0.308 NA
ATOM     17  C   UNL     1       9.947   1.097  22.063  0.00  0.00    +0.104 C 
ENDBRANCH  14  16
ENDBRANCH  13  14
ENDBRANCH   1  13
TORSDOF 4
ENDMDL
MODEL 4
REMARK VINA RESULT:      -5.3      2.972      4.499
REMARK  Name = 
REMARK  6 active torsions:
REMARK  status: ('A' for Active; 'I' for Inactive)
REMARK    1  A    between atoms: C_1  and  N_2
REMARK    2  A    between atoms: N_2  and  C_3
REMARK    3  A    between atoms: N_2  and  C_4
REMARK    4  A    between atoms: C_4  and  C_5
REMARK    5  A    between atoms: C_5  and  C_6
REMARK    6  A    between atoms: C_12  and  O_13
REMARK                            x       y       z     vdW  Elec       q    Type
REMARK                         _______ _______ _______ _____ _____    ______ ____
ROOT
ATOM      1  C   UNL     1       9.266  -1.271  24.746  0.00  0.00    -0.021 A 
ATOM      2  C   UNL     1       9.390   0.013  24.126  0.00  0.00    +0.006 A 
ATOM      3  C   UNL     1       9.854   0.452  22.867  0.00  0.00    +0.055 A 
ATOM      4  C   UNL     1       9.868   1.821  22.596  0.00  0.00    +0.118 A 
ATOM      5  C   UNL     1       9.443   2.753  23.534  0.00  0.00    +0.047 A 
ATOM      6  C   UNL     1       8.973   2.341  24.784  0.00  0.00    +0.030 A 
ATOM      7  C   UNL     1       8.955   0.966  25.048  0.00  0.00    +0.047 A 
ATOM      8  N   UNL     1       8.547   0.287  26.171  0.00  0.00    -0.360 N 
ATOM      9  H   UNL     1       8.178   0.725  27.003  0.00  0.00    +0.165 HD
ATOM     10  C   UNL     1       8.730  -1.059  26.003  0.00  0.00    +0.087 A 
ENDROOT
BRANCH   4  11
ATOM     11  O   UNL     1      10.308   2.293  21.392  0.00  0.00    -0.507 OA
ATOM     12  H   UNL     1      10.498   1.534  20.817  0.00  0.00    +0.292 HD
ENDBRANCH   4  11
BRANCH   1  13
ATOM     13  C   UNL     1       9.673  -2.592  24.167  0.00  0.00    +0.052 C 
BRANCH  13  14
ATOM     14  C   UNL     1       8.473  -3.306  23.519  0.00  0.00    +0.088 C 
BRANCH  14  16
ATOM     15  C   UNL     1       8.683  -5.070  25.134  0.00  0.00    +0.104 C 
ATOM     16  N   UNL     1       8.433  -4.770  23.719  0.00  0.00    -0.308 NA
ATOM     17  C   UNL     1       7.149  -5.345  23.315  0.00  0.00    +0.104 C 
ENDBRANCH  14  16
ENDBRANCH  13  14
ENDBRANCH   1  13
TORSDOF 4
ENDMDL
MODEL 5
REMARK VINA RESULT:      -5.3      3.752      4.864
REMARK  Name = 
REMARK  6 active torsions:
REMARK  status: ('A' for Active; 'I' for Inactive)
REMARK    1  A    between atoms: C_1  and  N_2
REMARK    2  A    between atoms: N_2  and  C_3
REMARK    3  A    between atoms: N_2  and  C_4
REMARK    4  A    between atoms: C_4  and  C_5
REMARK    5  A    between atoms: C_5  and  C_6
REMARK    6  A    between atoms: C_12  and  O_13
REMARK                            x       y       z     vdW  Elec       q    Type
REMARK                         _______ _______ _______ _____ _____    ______ ____
ROOT
ATOM      1  C   UNL     1       8.033  -1.113  24.359  0.00  0.00    -0.021 A 
ATOM      2  C   UNL     1       8.258  -0.016  23.468  0.00  0.00    +0.006 A 
ATOM      3  C   UNL     1       9.416   0.594  22.940  0.00  0.00    +0.055 A 
ATOM      4  C   UNL     1       9.269   1.699  22.100  0.00  0.00    +0.118 A 
ATOM      5  C   UNL     1       8.017   2.208  21.779  0.00  0.00    +0.047 A 
ATOM      6  C   UNL     1       6.857   1.615  22.285  0.00  0.00    +0.030 A 
ATOM      7  C   UNL     1       7.010   0.503  23.122  0.00  0.00    +0.047 A 
ATOM      8  N   UNL     1       6.062  -0.269  23.747  0.00  0.00    -0.360 N 
ATOM      9  H   UNL     1       5.064  -0.125  23.673  0.00  0.00    +0.165 HD
ATOM     10  C   UNL     1       6.663  -1.244  24.496  0.00  0.00    +0.087 A 
ENDROOT
BRANCH   4  11
ATOM     11  O   UNL     1      10.360   2.323  21.565  0.00  0.00    -0.507 OA
ATOM     12  H   UNL     1      11.045   1.654  21.400  0.00  0.00    +0.292 HD
ENDBRANCH   4  11
BRANCH   1  13
ATOM     13  C   UNL     1       9.075  -1.941  25.048  0.00  0.00    +0.052 C 
BRANCH  13  14
ATOM     14  C   UNL     1       9.618  -3.038  24.114  0.00  0.00    +0.088 C 
BRANCH  14  16
ATOM     15  C   UNL     1       9.074  -4.488  25.948  0.00  0.00    +0.104 C 
ATOM     16  N   UNL     1       9.255  -4.419  24.494  0.00  0.00    -0.308 NA
ATOM     17  C   UNL     1       8.032  -4.868  23.826  0.00  0.00    +0.104 C 
ENDBRANCH  14  16
ENDBRANCH  13  14
ENDBRANCH   1  13
TORSDOF 4
ENDMDL
MODEL 6
REMARK VINA RESULT:      -5.2      4.254      5.876
REMARK  Name = 
REMARK  6 active torsions:
REMARK  status: ('A' for Active; 'I' for Inactive)
REMARK    1  A    between atoms: C_1  and  N_2
REMARK    2  A    between atoms: N_2  and  C_3
REMARK    3  A    between atoms: N_2  and  C_4
REMARK    4  A    between atoms: C_4  and  C_5
REMARK    5  A    between atoms: C_5  and  C_6
REMARK    6  A    between atoms: C_12  and  O_13
REMARK                            x       y       z     vdW  Elec       q    Type
REMARK                         _______ _______ _______ _____ _____    ______ ____
ROOT
ATOM      1  C   UNL     1       7.867  -1.772  25.965  0.00  0.00    -0.021 A 
ATOM      2  C   UNL     1       8.728  -1.335  24.908  0.00  0.00    +0.006 A 
ATOM      3  C   UNL     1       9.019  -1.826  23.617  0.00  0.00    +0.055 A 
ATOM      4  C   UNL     1       9.962  -1.151  22.839  0.00  0.00    +0.118 A 
ATOM      5  C   UNL     1      10.617  -0.020  23.308  0.00  0.00    +0.047 A 
ATOM      6  C   UNL     1      10.339   0.487  24.580  0.00  0.00    +0.030 A 
ATOM      7  C   UNL     1       9.388  -0.189  25.353  0.00  0.00    +0.047 A 
ATOM      8  N   UNL     1       8.920   0.083  26.616  0.00  0.00    -0.360 N 
ATOM      9  H   UNL     1       9.223   0.862  27.184  0.00  0.00    +0.165 HD
ATOM     10  C   UNL     1       8.007  -0.862  26.996  0.00  0.00    +0.087 A 
ENDROOT
BRANCH   4  11
ATOM     11  O   UNL     1      10.277  -1.589  21.583  0.00  0.00    -0.507 OA
ATOM     12  H   UNL     1      10.915  -2.316  21.664  0.00  0.00    +0.292 HD
ENDBRANCH   4  11
BRANCH   1  13
ATOM     13  C   UNL     1       7.008  -2.999  25.975  0.00  0.00    +0.052 C 
BRANCH  13  14
ATOM     14  C   UNL     1       7.739  -4.183  26.634  0.00  0.00    +0.088 C 
BRANCH  14  16
ATOM     15  C   UNL     1       7.493  -5.115  24.435  0.00  0.00    +0.104 C 
ATOM     16  N   UNL     1       8.238  -5.210  25.695  0.00  0.00    -0.308 NA
ATOM     17  C   UNL     1       9.670  -5.063  25.430  0.00  0.00    +0.104 C 
ENDBRANCH  14  16
ENDBRANCH  13  14
ENDBRANCH   1  13
TORSDOF 4
ENDMDL
MODEL 7
REMARK VINA RESULT:      -5.1      5.434      9.421
REMARK  Name = 
REMARK  6 active torsions:
REMARK  status: ('A' for Active; 'I' for Inactive)
REMARK    1  A    between atoms: C_1  and  N_2
REMARK    2  A    between atoms: N_2  and  C_3
REMARK    3  A    between atoms: N_2  and  C_4
REMARK    4  A    between atoms: C_4  and  C_5
REMARK    5  A    between atoms: C_5  and  C_6
REMARK    6  A    between atoms: C_12  and  O_13
REMARK                            x       y       z     vdW  Elec       q    Type
REMARK                         _______ _______ _______ _____ _____    ______ ____
ROOT
ATOM      1  C   UNL     1       8.627  -4.260  25.192  0.00  0.00    -0.021 A 
ATOM      2  C   UNL     1       7.299  -4.688  24.869  0.00  0.00    +0.006 A 
ATOM      3  C   UNL     1       6.421  -4.428  23.796  0.00  0.00    +0.055 A 
ATOM      4  C   UNL     1       5.148  -5.000  23.815  0.00  0.00    +0.118 A 
ATOM      5  C   UNL     1       4.731  -5.809  24.864  0.00  0.00    +0.047 A 
ATOM      6  C   UNL     1       5.586  -6.086  25.934  0.00  0.00    +0.030 A 
ATOM      7  C   UNL     1       6.863  -5.515  25.906  0.00  0.00    +0.047 A 
ATOM      8  N   UNL     1       7.897  -5.616  26.805  0.00  0.00    -0.360 N 
ATOM      9  H   UNL     1       7.864  -6.158  27.657  0.00  0.00    +0.165 HD
ATOM     10  C   UNL     1       8.963  -4.866  26.388  0.00  0.00    +0.087 A 
ENDROOT
BRANCH   4  11
ATOM     11  O   UNL     1       4.264  -4.777  22.798  0.00  0.00    -0.507 OA
ATOM     12  H   UNL     1       3.377  -5.027  23.105  0.00  0.00    +0.292 HD
ENDBRANCH   4  11
BRANCH   1  13
ATOM     13  C   UNL     1       9.480  -3.308  24.410  0.00  0.00    +0.052 C 
BRANCH  13  14
ATOM     14  C   UNL     1       9.089  -1.847  24.700  0.00  0.00    +0.088 C 
BRANCH  14  16
ATOM     15  C   UNL     1      10.479   0.087  24.401  0.00  0.00    +0.104 C 
ATOM     16  N   UNL     1       9.589  -0.860  23.720  0.00  0.00    -0.308 NA
ATOM     17  C   UNL     1      10.306  -1.498  22.614  0.00  0.00    +0.104 C 
ENDBRANCH  14  16
ENDBRANCH  13  14
ENDBRANCH   1  13
TORSDOF 4
ENDMDL
MODEL 8
REMARK VINA RESULT:      -5.1      4.581      7.878
REMARK  Name = 
REMARK  6 active torsions:
REMARK  status: ('A' for Active; 'I' for Inactive)
REMARK    1  A    between atoms: C_1  and  N_2
REMARK    2  A    between atoms: N_2  and  C_3
REMARK    3  A    between atoms: N_2  and  C_4
REMARK    4  A    between atoms: C_4  and  C_5
REMARK    5  A    between atoms: C_5  and  C_6
REMARK    6  A    between atoms: C_12  and  O_13
REMARK                            x       y       z     vdW  Elec       q    Type
REMARK                         _______ _______ _______ _____ _____    ______ ____
ROOT
ATOM      1  C   UNL     1       9.167  -1.649  22.471  0.00  0.00    -0.021 A 
ATOM      2  C   UNL     1       8.139  -2.612  22.723  0.00  0.00    +0.006 A 
ATOM      3  C   UNL     1       6.863  -2.850  22.169  0.00  0.00    +0.055 A 
ATOM      4  C   UNL     1       6.087  -3.886  22.692  0.00  0.00    +0.118 A 
ATOM      5  C   UNL     1       6.539  -4.677  23.740  0.00  0.00    +0.047 A 
ATOM      6  C   UNL     1       7.802  -4.464  24.298  0.00  0.00    +0.030 A 
ATOM      7  C   UNL     1       8.579  -3.428  23.766  0.00  0.00    +0.047 A 
ATOM      8  N   UNL     1       9.839  -3.002  24.110  0.00  0.00    -0.360 N 
ATOM      9  H   UNL     1      10.405  -3.415  24.838  0.00  0.00    +0.165 HD
ATOM     10  C   UNL     1      10.204  -1.932  23.340  0.00  0.00    +0.087 A 
ENDROOT
BRANCH   4  11
ATOM     11  O   UNL     1       4.845  -4.155  22.188  0.00  0.00    -0.507 OA
ATOM     12  H   UNL     1       4.660  -3.519  21.478  0.00  0.00    +0.292 HD
ENDBRANCH   4  11
BRANCH   1  13
ATOM     13  C   UNL     1       9.120  -0.522  21.484  0.00  0.00    +0.052 C 
BRANCH  13  14
ATOM     14  C   UNL     1       9.952   0.678  21.973  0.00  0.00    +0.088 C 
BRANCH  14  16
ATOM     15  C   UNL     1       7.891   1.870  21.667  0.00  0.00    +0.104 C 
ATOM     16  N   UNL     1       9.165   1.855  22.394  0.00  0.00    -0.308 NA
ATOM     17  C   UNL     1       8.906   1.856  23.836  0.00  0.00    +0.104 C 
ENDBRANCH  14  16
ENDBRANCH  13  14
ENDBRANCH   1  13
TORSDOF 4
ENDMDL
MODEL 9
REMARK VINA RESULT:      -5.1      3.460      4.856
REMARK  Name = 
REMARK  6 active torsions:
REMARK  status: ('A' for Active; 'I' for Inactive)
REMARK    1  A    between atoms: C_1  and  N_2
REMARK    2  A    between atoms: N_2  and  C_3
REMARK    3  A    between atoms: N_2  and  C_4
REMARK    4  A    between atoms: C_4  and  C_5
REMARK    5  A    between atoms: C_5  and  C_6
REMARK    6  A    between atoms: C_12  and  O_13
REMARK                            x       y       z     vdW  Elec       q    Type
REMARK                         _______ _______ _______ _____ _____    ______ ____
ROOT
ATOM      1  C   UNL     1       9.666  -1.321  23.177  0.00  0.00    -0.021 A 
ATOM      2  C   UNL     1       9.363   0.063  23.381  0.00  0.00    +0.006 A 
ATOM      3  C   UNL     1       9.145   0.859  24.526  0.00  0.00    +0.055 A 
ATOM      4  C   UNL     1       8.829   2.208  24.357  0.00  0.00    +0.118 A 
ATOM      5  C   UNL     1       8.720   2.777  23.094  0.00  0.00    +0.047 A 
ATOM      6  C   UNL     1       8.938   2.009  21.947  0.00  0.00    +0.030 A 
ATOM      7  C   UNL     1       9.262   0.659  22.123  0.00  0.00    +0.047 A 
ATOM      8  N   UNL     1       9.529  -0.315  21.192  0.00  0.00    -0.360 N 
ATOM      9  H   UNL     1       9.530  -0.167  20.192  0.00  0.00    +0.165 HD
ATOM     10  C   UNL     1       9.772  -1.510  21.812  0.00  0.00    +0.087 A 
ENDROOT
BRANCH   4  11
ATOM     11  O   UNL     1       8.610   3.018  25.435  0.00  0.00    -0.507 OA
ATOM     12  H   UNL     1       9.291   2.830  26.101  0.00  0.00    +0.292 HD
ENDBRANCH   4  11
BRANCH   1  13
ATOM     13  C   UNL     1       9.803  -2.376  24.232  0.00  0.00    +0.052 C 
BRANCH  13  14
ATOM     14  C   UNL     1       8.533  -3.242  24.319  0.00  0.00    +0.088 C 
BRANCH  14  16
ATOM     15  C   UNL     1       9.047  -5.378  25.286  0.00  0.00    +0.104 C 
ATOM     16  N   UNL     1       8.733  -4.678  24.035  0.00  0.00    -0.308 NA
ATOM     17  C   UNL     1       7.554  -5.285  23.416  0.00  0.00    +0.104 C 
ENDBRANCH  14  16
ENDBRANCH  13  14
ENDBRANCH   1  13
TORSDOF 4
ENDMDL
