MODEL 1
REMARK VINA RESULT:      -6.6      0.000      0.000
REMARK  Name = 
REMARK  9 active torsions:
REMARK  status: ('A' for Active; 'I' for Inactive)
REMARK    1  A    between atoms: C_1  and  C_2
REMARK    2  A    between atoms: C_4  and  O_5
REMARK    3  A    between atoms: O_5  and  C_6
REMARK    4  A    between atoms: C_6  and  C_7
REMARK    5  A    between atoms: C_7  and  N_8
REMARK    6  A    between atoms: N_8  and  C_9
REMARK    7  A    between atoms: C_17  and  N_18
REMARK    8  A    between atoms: N_18  and  S_19
REMARK    9  A    between atoms: S_19  and  C_22
REMARK                            x       y       z     vdW  Elec       q    Type
REMARK                         _______ _______ _______ _____ _____    ______ ____
ROOT
ATOM      1  C   UNL     1      10.449  -1.459  22.545  0.00  0.00    +0.044 C 
ATOM      2  C   UNL     1       9.061  -1.379  23.110  0.00  0.00    -0.045 A 
ATOM      3  C   UNL     1       7.998  -2.013  22.457  0.00  0.00    +0.028 A 
ATOM      4  C   UNL     1       6.711  -1.947  22.994  0.00  0.00    +0.052 A 
ATOM      5  C   UNL     1       6.470  -1.246  24.174  0.00  0.00    +0.070 A 
ATOM      6  C   UNL     1       7.523  -0.627  24.842  0.00  0.00    +0.123 A 
ATOM      7  C   UNL     1       8.811  -0.679  24.298  0.00  0.00    +0.049 A 
ENDROOT
BRANCH   4   8
ATOM      8  N   UNL     1       5.627  -2.618  22.370  0.00  0.00    -0.216 N 
ATOM      9  H   UNL     1       5.210  -2.208  21.535  0.00  0.00    +0.174 HD
BRANCH   8  10
ATOM     10  S   UNL     1       5.530  -4.298  22.452  0.00  0.00    +0.072 S 
ATOM     11  O   UNL     1       6.227  -4.813  21.294  0.00  0.00    -0.150 OA
ATOM     12  O   UNL     1       4.154  -4.677  22.725  0.00  0.00    -0.150 OA
BRANCH  10  13
ATOM     13  C   UNL     1       6.496  -4.702  23.891  0.00  0.00    +0.108 A 
ATOM     14  C   UNL     1       7.843  -5.051  23.746  0.00  0.00    +0.029 A 
ATOM     15  C   UNL     1       8.594  -5.367  24.878  0.00  0.00    +0.002 A 
ATOM     16  C   UNL     1       8.001  -5.347  26.142  0.00  0.00    +0.000 A 
ATOM     17  C   UNL     1       6.652  -5.020  26.279  0.00  0.00    +0.002 A 
ATOM     18  C   UNL     1       5.892  -4.704  25.153  0.00  0.00    +0.029 A 
ENDBRANCH  10  13
ENDBRANCH   8  10
ENDBRANCH   4   8
BRANCH   6  19
ATOM     19  O   UNL     1       7.410   0.093  25.997  0.00  0.00    -0.490 OA
BRANCH  19  20
ATOM     20  C   UNL     1       6.530   1.219  25.981  0.00  0.00    +0.247 C 
BRANCH  20  21
ATOM     21  C   UNL     1       7.377   2.493  26.067  0.00  0.00    +0.142 C 
BRANCH  21  22
ATOM     22  N   UNL     1       7.355   3.245  24.805  0.00  0.00    -0.340 N 
ATOM     23  H   UNL     1       7.319   4.250  24.970  0.00  0.00    +0.146 HD
BRANCH  22  24
ATOM     24  C   UNL     1       8.114   2.861  23.706  0.00  0.00    +0.038 A 
ATOM     25  C   UNL     1       7.462   2.328  22.589  0.00  0.00    +0.092 A 
ATOM     26  C   UNL     1       8.195   1.864  21.502  0.00  0.00    +0.309 A 
ATOM     27  N   UNL     1       9.533   1.900  21.535  0.00  0.00    -0.217 N 
ATOM     28  H   UNL     1      10.059   1.552  20.732  0.00  0.00    +0.452 HD
ATOM     29  C   UNL     1      10.205   2.369  22.596  0.00  0.00    +0.309 A 
ATOM     30  C   UNL     1       9.510   2.851  23.701  0.00  0.00    +0.092 A 
ENDBRANCH  22  24
ENDBRANCH  21  22
ENDBRANCH  20  21
ENDBRANCH  19  20
ENDBRANCH   6  19
TORSDOF 8
ENDMDL
MODEL 2
REMARK VINA RESULT:      -6.4      1.692      2.977
REMARK  Name = 
REMARK  9 active torsions:
REMARK  status: ('A' for Active; 'I' for Inactive)
REMARK    1  A    between atoms: C_1  and  C_2
REMARK    2  A    between atoms: C_4  and  O_5
REMARK    3  A    between atoms: O_5  and  C_6
REMARK    4  A    between atoms: C_6  and  C_7
REMARK    5  A    between atoms: C_7  and  N_8
REMARK    6  A    between atoms: N_8  and  C_9
REMARK    7  A    between atoms: C_17  and  N_18
REMARK    8  A    between atoms: N_18  and  S_19
REMARK    9  A    between atoms: S_19  and  C_22
REMARK                            x       y       z     vdW  Elec       q    Type
REMARK                         _______ _______ _______ _____ _____    ______ ____
ROOT
ATOM      1  C   UNL     1       7.875  -0.191  27.306  0.00  0.00    +0.044 C 
ATOM      2  C   UNL     1       7.392   0.050  25.906  0.00  0.00    -0.045 A 
ATOM      3  C   UNL     1       6.997  -1.026  25.102  0.00  0.00    +0.028 A 
ATOM      4  C   UNL     1       6.535  -0.795  23.806  0.00  0.00    +0.052 A 
ATOM      5  C   UNL     1       6.470   0.501  23.296  0.00  0.00    +0.070 A 
ATOM      6  C   UNL     1       6.843   1.580  24.092  0.00  0.00    +0.123 A 
ATOM      7  C   UNL     1       7.321   1.349  25.387  0.00  0.00    +0.049 A 
ENDROOT
BRANCH   4   8
ATOM      8  N   UNL     1       6.091  -1.868  22.990  0.00  0.00    -0.216 N 
ATOM      9  H   UNL     1       6.633  -2.115  22.163  0.00  0.00    +0.174 HD
BRANCH   8  10
ATOM     10  S   UNL     1       5.250  -3.152  23.688  0.00  0.00    +0.072 S 
ATOM     11  O   UNL     1       4.768  -3.974  22.600  0.00  0.00    -0.150 OA
ATOM     12  O   UNL     1       4.338  -2.629  24.690  0.00  0.00    -0.150 OA
BRANCH  10  13
ATOM     13  C   UNL     1       6.518  -4.067  24.538  0.00  0.00    +0.108 A 
ATOM     14  C   UNL     1       6.320  -4.453  25.869  0.00  0.00    +0.029 A 
ATOM     15  C   UNL     1       7.319  -5.169  26.529  0.00  0.00    +0.002 A 
ATOM     16  C   UNL     1       8.509  -5.483  25.871  0.00  0.00    +0.000 A 
ATOM     17  C   UNL     1       8.711  -5.076  24.552  0.00  0.00    +0.002 A 
ATOM     18  C   UNL     1       7.720  -4.359  23.883  0.00  0.00    +0.029 A 
ENDBRANCH  10  13
ENDBRANCH   8  10
ENDBRANCH   4   8
BRANCH   6  19
ATOM     19  O   UNL     1       6.832   2.888  23.702  0.00  0.00    -0.490 OA
BRANCH  19  20
ATOM     20  C   UNL     1       7.442   3.202  22.449  0.00  0.00    +0.247 C 
BRANCH  20  21
ATOM     21  C   UNL     1       8.960   3.249  22.652  0.00  0.00    +0.142 C 
BRANCH  21  22
ATOM     22  N   UNL     1       9.651   2.268  21.804  0.00  0.00    -0.340 N 
ATOM     23  H   UNL     1      10.428   2.692  21.299  0.00  0.00    +0.146 HD
BRANCH  22  24
ATOM     24  C   UNL     1       9.871   0.961  22.220  0.00  0.00    +0.038 A 
ATOM     25  C   UNL     1       9.455  -0.089  21.394  0.00  0.00    +0.092 A 
ATOM     26  C   UNL     1       9.590  -1.408  21.811  0.00  0.00    +0.309 A 
ATOM     27  N   UNL     1      10.094  -1.677  23.023  0.00  0.00    -0.217 N 
ATOM     28  H   UNL     1      10.184  -2.650  23.319  0.00  0.00    +0.452 HD
ATOM     29  C   UNL     1      10.474  -0.705  23.865  0.00  0.00    +0.309 A 
ATOM     30  C   UNL     1      10.364   0.628  23.483  0.00  0.00    +0.092 A 
ENDBRANCH  22  24
ENDBRANCH  21  22
ENDBRANCH  20  21
ENDBRANCH  19  20
ENDBRANCH   6  19
TORSDOF 8
ENDMDL
MODEL 3
REMARK VINA RESULT:      -6.3      2.382      3.984
REMARK  Name = 
REMARK  9 active torsions:
REMARK  status: ('A' for Active; 'I' for Inactive)
REMARK    1  A    between atoms: C_1  and  C_2
REMARK    2  A    between atoms: C_4  and  O_5
REMARK    3  A    between atoms: O_5  and  C_6
REMARK    4  A    between atoms: C_6  and  C_7
REMARK    5  A    between atoms: C_7  and  N_8
REMARK    6  A    between atoms: N_8  and  C_9
REMARK    7  A    between atoms: C_17  and  N_18
REMARK    8  A    between atoms: N_18  and  S_19
REMARK    9  A    between atoms: S_19  and  C_22
REMARK                            x       y       z     vdW  Elec       q    Type
REMARK                         _______ _______ _______ _____ _____    ______ ____
ROOT
ATOM      1  C   UNL     1       7.891  -0.465  27.047  0.00  0.00    +0.044 C 
ATOM      2  C   UNL     1       8.120  -1.758  26.320  0.00  0.00    -0.045 A 
ATOM      3  C   UNL     1       7.370  -2.893  26.648  0.00  0.00    +0.028 A 
ATOM      4  C   UNL     1       7.577  -4.088  25.960  0.00  0.00    +0.052 A 
ATOM      5  C   UNL     1       8.533  -4.169  24.949  0.00  0.00    +0.070 A 
ATOM      6  C   UNL     1       9.273  -3.041  24.602  0.00  0.00    +0.123 A 
ATOM      7  C   UNL     1       9.077  -1.846  25.301  0.00  0.00    +0.049 A 
ENDROOT
BRANCH   4   8
ATOM      8  N   UNL     1       6.798  -5.239  26.249  0.00  0.00    -0.216 N 
ATOM      9  H   UNL     1       6.880  -5.671  27.169  0.00  0.00    +0.174 HD
BRANCH   8  10
ATOM     10  S   UNL     1       5.293  -5.432  25.516  0.00  0.00    +0.072 S 
ATOM     11  O   UNL     1       4.401  -4.475  26.134  0.00  0.00    -0.150 OA
ATOM     12  O   UNL     1       4.963  -6.846  25.481  0.00  0.00    -0.150 OA
BRANCH  10  13
ATOM     13  C   UNL     1       5.577  -4.904  23.839  0.00  0.00    +0.108 A 
ATOM     14  C   UNL     1       5.290  -3.585  23.470  0.00  0.00    +0.029 A 
ATOM     15  C   UNL     1       5.515  -3.178  22.154  0.00  0.00    +0.002 A 
ATOM     16  C   UNL     1       6.007  -4.085  21.214  0.00  0.00    +0.000 A 
ATOM     17  C   UNL     1       6.269  -5.405  21.581  0.00  0.00    +0.002 A 
ATOM     18  C   UNL     1       6.047  -5.822  22.894  0.00  0.00    +0.029 A 
ENDBRANCH  10  13
ENDBRANCH   8  10
ENDBRANCH   4   8
BRANCH   6  19
ATOM     19  O   UNL     1      10.241  -3.000  23.639  0.00  0.00    -0.490 OA
BRANCH  19  20
ATOM     20  C   UNL     1      10.446  -1.753  22.973  0.00  0.00    +0.247 C 
BRANCH  20  21
ATOM     21  C   UNL     1       9.323  -1.565  21.947  0.00  0.00    +0.142 C 
BRANCH  21  22
ATOM     22  N   UNL     1       9.530  -0.361  21.131  0.00  0.00    -0.340 N 
ATOM     23  H   UNL     1       9.230  -0.507  20.168  0.00  0.00    +0.146 HD
BRANCH  22  24
ATOM     24  C   UNL     1       9.296   0.915  21.628  0.00  0.00    +0.038 A 
ATOM     25  C   UNL     1      10.291   1.535  22.391  0.00  0.00    +0.092 A 
ATOM     26  C   UNL     1      10.062   2.780  22.967  0.00  0.00    +0.309 A 
ATOM     27  N   UNL     1       8.873   3.377  22.816  0.00  0.00    -0.217 N 
ATOM     28  H   UNL     1       8.716   4.289  23.247  0.00  0.00    +0.452 HD
ATOM     29  C   UNL     1       7.876   2.808  22.123  0.00  0.00    +0.309 A 
ATOM     30  C   UNL     1       8.066   1.567  21.524  0.00  0.00    +0.092 A 
ENDBRANCH  22  24
ENDBRANCH  21  22
ENDBRANCH  20  21
ENDBRANCH  19  20
ENDBRANCH   6  19
TORSDOF 8
ENDMDL
MODEL 4
REMARK VINA RESULT:      -6.3      1.349      2.923
REMARK  Name = 
REMARK  9 active torsions:
REMARK  status: ('A' for Active; 'I' for Inactive)
REMARK    1  A    between atoms: C_1  and  C_2
REMARK    2  A    between atoms: C_4  and  O_5
REMARK    3  A    between atoms: O_5  and  C_6
REMARK    4  A    between atoms: C_6  and  C_7
REMARK    5  A    between atoms: C_7  and  N_8
REMARK    6  A    between atoms: N_8  and  C_9
REMARK    7  A    between atoms: C_17  and  N_18
REMARK    8  A    between atoms: N_18  and  S_19
REMARK    9  A    between atoms: S_19  and  C_22
REMARK                            x       y       z     vdW  Elec       q    Type
REMARK                         _______ _______ _______ _____ _____    ______ ____
ROOT
ATOM      1  C   UNL     1       5.619  -0.340  25.482  0.00  0.00    +0.044 C 
ATOM      2  C   UNL     1       6.518  -1.004  24.480  0.00  0.00    -0.045 A 
ATOM      3  C   UNL     1       6.002  -1.959  23.596  0.00  0.00    +0.028 A 
ATOM      4  C   UNL     1       6.839  -2.563  22.657  0.00  0.00    +0.052 A 
ATOM      5  C   UNL     1       8.191  -2.232  22.595  0.00  0.00    +0.070 A 
ATOM      6  C   UNL     1       8.712  -1.270  23.457  0.00  0.00    +0.123 A 
ATOM      7  C   UNL     1       7.878  -0.675  24.409  0.00  0.00    +0.049 A 
ENDROOT
BRANCH   4   8
ATOM      8  N   UNL     1       6.327  -3.502  21.724  0.00  0.00    -0.216 N 
ATOM      9  H   UNL     1       6.508  -3.359  20.731  0.00  0.00    +0.174 HD
BRANCH   8  10
ATOM     10  S   UNL     1       6.147  -5.115  22.180  0.00  0.00    +0.072 S 
ATOM     11  O   UNL     1       7.005  -5.892  21.313  0.00  0.00    -0.150 OA
ATOM     12  O   UNL     1       4.731  -5.417  22.296  0.00  0.00    -0.150 OA
BRANCH  10  13
ATOM     13  C   UNL     1       6.844  -5.164  23.818  0.00  0.00    +0.108 A 
ATOM     14  C   UNL     1       5.998  -5.129  24.932  0.00  0.00    +0.029 A 
ATOM     15  C   UNL     1       6.551  -5.167  26.212  0.00  0.00    +0.002 A 
ATOM     16  C   UNL     1       7.936  -5.226  26.377  0.00  0.00    +0.000 A 
ATOM     17  C   UNL     1       8.776  -5.238  25.263  0.00  0.00    +0.002 A 
ATOM     18  C   UNL     1       8.233  -5.199  23.979  0.00  0.00    +0.029 A 
ENDBRANCH  10  13
ENDBRANCH   8  10
ENDBRANCH   4   8
BRANCH   6  19
ATOM     19  O   UNL     1      10.016  -0.871  23.497  0.00  0.00    -0.490 OA
BRANCH  19  20
ATOM     20  C   UNL     1      10.283   0.513  23.264  0.00  0.00    +0.247 C 
BRANCH  20  21
ATOM     21  C   UNL     1       9.911   0.837  21.813  0.00  0.00    +0.142 C 
BRANCH  21  22
ATOM     22  N   UNL     1       9.420   2.215  21.675  0.00  0.00    -0.340 N 
ATOM     23  H   UNL     1       9.565   2.570  20.731  0.00  0.00    +0.146 HD
BRANCH  22  24
ATOM     24  C   UNL     1       8.246   2.642  22.283  0.00  0.00    +0.038 A 
ATOM     25  C   UNL     1       8.308   3.695  23.203  0.00  0.00    +0.092 A 
ATOM     26  C   UNL     1       7.166   4.099  23.887  0.00  0.00    +0.309 A 
ATOM     27  N   UNL     1       6.007   3.458  23.688  0.00  0.00    -0.217 N 
ATOM     28  H   UNL     1       5.177   3.762  24.200  0.00  0.00    +0.452 HD
ATOM     29  C   UNL     1       5.904   2.422  22.844  0.00  0.00    +0.309 A 
ATOM     30  C   UNL     1       7.020   1.992  22.133  0.00  0.00    +0.092 A 
ENDBRANCH  22  24
ENDBRANCH  21  22
ENDBRANCH  20  21
ENDBRANCH  19  20
ENDBRANCH   6  19
TORSDOF 8
ENDMDL
MODEL 5
REMARK VINA RESULT:      -6.3      2.706      6.765
REMARK  Name = 
REMARK  9 active torsions:
REMARK  status: ('A' for Active; 'I' for Inactive)
REMARK    1  A    between atoms: C_1  and  C_2
REMARK    2  A    between atoms: C_4  and  O_5
REMARK    3  A    between atoms: O_5  and  C_6
REMARK    4  A    between atoms: C_6  and  C_7
REMARK    5  A    between atoms: C_7  and  N_8
REMARK    6  A    between atoms: N_8  and  C_9
REMARK    7  A    between atoms: C_17  and  N_18
REMARK    8  A    between atoms: N_18  and  S_19
REMARK    9  A    between atoms: S_19  and  C_22
REMARK                            x       y       z     vdW  Elec       q    Type
REMARK                         _______ _______ _______ _____ _____    ______ ____
ROOT
ATOM      1  C   UNL     1       5.091  -1.056  26.402  0.00  0.00    +0.044 C 
ATOM      2  C   UNL     1       6.140  -2.051  26.000  0.00  0.00    -0.045 A 
ATOM      3  C   UNL     1       7.327  -1.618  25.399  0.00  0.00    +0.028 A 
ATOM      4  C   UNL     1       8.306  -2.546  25.040  0.00  0.00    +0.052 A 
ATOM      5  C   UNL     1       8.109  -3.908  25.266  0.00  0.00    +0.070 A 
ATOM      6  C   UNL     1       6.939  -4.348  25.880  0.00  0.00    +0.123 A 
ATOM      7  C   UNL     1       5.952  -3.421  26.227  0.00  0.00    +0.049 A 
ENDROOT
BRANCH   4   8
ATOM      8  N   UNL     1       9.533  -2.124  24.467  0.00  0.00    -0.216 N 
ATOM      9  H   UNL     1      10.402  -2.540  24.803  0.00  0.00    +0.174 HD
BRANCH   8  10
ATOM     10  S   UNL     1       9.572  -1.619  22.859  0.00  0.00    +0.072 S 
ATOM     11  O   UNL     1       8.388  -2.154  22.225  0.00  0.00    -0.150 OA
ATOM     12  O   UNL     1      10.894  -1.878  22.315  0.00  0.00    -0.150 OA
BRANCH  10  13
ATOM     13  C   UNL     1       9.374   0.147  22.974  0.00  0.00    +0.108 A 
ATOM     14  C   UNL     1       9.764   0.813  24.141  0.00  0.00    +0.029 A 
ATOM     15  C   UNL     1       9.605   2.197  24.224  0.00  0.00    +0.002 A 
ATOM     16  C   UNL     1       9.050   2.905  23.157  0.00  0.00    +0.000 A 
ATOM     17  C   UNL     1       8.642   2.233  22.004  0.00  0.00    +0.002 A 
ATOM     18  C   UNL     1       8.795   0.850  21.912  0.00  0.00    +0.029 A 
ENDBRANCH  10  13
ENDBRANCH   8  10
ENDBRANCH   4   8
BRANCH   6  19
ATOM     19  O   UNL     1       6.631  -5.652  26.145  0.00  0.00    -0.490 OA
BRANCH  19  20
ATOM     20  C   UNL     1       5.264  -5.956  26.426  0.00  0.00    +0.247 C 
BRANCH  20  21
ATOM     21  C   UNL     1       4.768  -6.957  25.377  0.00  0.00    +0.142 C 
BRANCH  21  22
ATOM     22  N   UNL     1       4.087  -6.282  24.263  0.00  0.00    -0.340 N 
ATOM     23  H   UNL     1       3.189  -5.897  24.553  0.00  0.00    +0.146 HD
BRANCH  22  24
ATOM     24  C   UNL     1       4.779  -5.513  23.335  0.00  0.00    +0.038 A 
ATOM     25  C   UNL     1       5.852  -6.089  22.647  0.00  0.00    +0.092 A 
ATOM     26  C   UNL     1       6.613  -5.328  21.767  0.00  0.00    +0.309 A 
ATOM     27  N   UNL     1       6.337  -4.028  21.598  0.00  0.00    -0.217 N 
ATOM     28  H   UNL     1       6.907  -3.479  20.952  0.00  0.00    +0.452 HD
ATOM     29  C   UNL     1       5.342  -3.422  22.260  0.00  0.00    +0.309 A 
ATOM     30  C   UNL     1       4.551  -4.149  23.143  0.00  0.00    +0.092 A 
ENDBRANCH  22  24
ENDBRANCH  21  22
ENDBRANCH  20  21
ENDBRANCH  19  20
ENDBRANCH   6  19
TORSDOF 8
ENDMDL
MODEL 6
REMARK VINA RESULT:      -6.3      2.807      6.934
REMARK  Name = 
REMARK  9 active torsions:
REMARK  status: ('A' for Active; 'I' for Inactive)
REMARK    1  A    between atoms: C_1  and  C_2
REMARK    2  A    between atoms: C_4  and  O_5
REMARK    3  A    between atoms: O_5  and  C_6
REMARK    4  A    between atoms: C_6  and  C_7
REMARK    5  A    between atoms: C_7  and  N_8
REMARK    6  A    between atoms: N_8  and  C_9
REMARK    7  A    between atoms: C_17  and  N_18
REMARK    8  A    between atoms: N_18  and  S_19
REMARK    9  A    between atoms: S_19  and  C_22
REMARK                            x       y       z     vdW  Elec       q    Type
REMARK                         _______ _______ _______ _____ _____    ______ ____
ROOT
ATOM      1  C   UNL     1       7.192  -6.028  21.875  0.00  0.00    +0.044 C 
ATOM      2  C   UNL     1       7.551  -4.916  22.817  0.00  0.00    -0.045 A 
ATOM      3  C   UNL     1       7.572  -3.591  22.366  0.00  0.00    +0.028 A 
ATOM      4  C   UNL     1       7.893  -2.559  23.248  0.00  0.00    +0.052 A 
ATOM      5  C   UNL     1       8.203  -2.835  24.579  0.00  0.00    +0.070 A 
ATOM      6  C   UNL     1       8.168  -4.147  25.043  0.00  0.00    +0.123 A 
ATOM      7  C   UNL     1       7.862  -5.184  24.156  0.00  0.00    +0.049 A 
ENDROOT
BRANCH   4   8
ATOM      8  N   UNL     1       7.879  -1.206  22.821  0.00  0.00    -0.216 N 
ATOM      9  H   UNL     1       7.204  -0.565  23.238  0.00  0.00    +0.174 HD
BRANCH   8  10
ATOM     10  S   UNL     1       9.310  -0.481  22.305  0.00  0.00    +0.072 S 
ATOM     11  O   UNL     1       9.162  -0.228  20.888  0.00  0.00    -0.150 OA
ATOM     12  O   UNL     1      10.435  -1.245  22.814  0.00  0.00    -0.150 OA
BRANCH  10  13
ATOM     13  C   UNL     1       9.305   1.091  23.140  0.00  0.00    +0.108 A 
ATOM     14  C   UNL     1      10.191   2.095  22.733  0.00  0.00    +0.029 A 
ATOM     15  C   UNL     1      10.182   3.324  23.393  0.00  0.00    +0.002 A 
ATOM     16  C   UNL     1       9.306   3.543  24.457  0.00  0.00    +0.000 A 
ATOM     17  C   UNL     1       8.440   2.531  24.873  0.00  0.00    +0.002 A 
ATOM     18  C   UNL     1       8.442   1.299  24.222  0.00  0.00    +0.029 A 
ENDBRANCH  10  13
ENDBRANCH   8  10
ENDBRANCH   4   8
BRANCH   6  19
ATOM     19  O   UNL     1       8.461  -4.540  26.318  0.00  0.00    -0.490 OA
BRANCH  19  20
ATOM     20  C   UNL     1       7.476  -5.313  27.005  0.00  0.00    +0.247 C 
BRANCH  20  21
ATOM     21  C   UNL     1       6.360  -4.369  27.468  0.00  0.00    +0.142 C 
BRANCH  21  22
ATOM     22  N   UNL     1       5.030  -4.915  27.169  0.00  0.00    -0.340 N 
ATOM     23  H   UNL     1       4.319  -4.526  27.787  0.00  0.00    +0.146 HD
BRANCH  22  24
ATOM     24  C   UNL     1       4.605  -5.147  25.866  0.00  0.00    +0.038 A 
ATOM     25  C   UNL     1       4.556  -6.464  25.397  0.00  0.00    +0.092 A 
ATOM     26  C   UNL     1       4.209  -6.728  24.077  0.00  0.00    +0.309 A 
ATOM     27  N   UNL     1       3.948  -5.716  23.240  0.00  0.00    -0.217 N 
ATOM     28  H   UNL     1       3.698  -5.923  22.272  0.00  0.00    +0.452 HD
ATOM     29  C   UNL     1       4.015  -4.436  23.632  0.00  0.00    +0.309 A 
ATOM     30  C   UNL     1       4.351  -4.128  24.947  0.00  0.00    +0.092 A 
ENDBRANCH  22  24
ENDBRANCH  21  22
ENDBRANCH  20  21
ENDBRANCH  19  20
ENDBRANCH   6  19
TORSDOF 8
ENDMDL
MODEL 7
REMARK VINA RESULT:      -6.2      2.870      6.555
REMARK  Name = 
REMARK  9 active torsions:
REMARK  status: ('A' for Active; 'I' for Inactive)
REMARK    1  A    between atoms: C_1  and  C_2
REMARK    2  A    between atoms: C_4  and  O_5
REMARK    3  A    between atoms: O_5  and  C_6
REMARK    4  A    between atoms: C_6  and  C_7
REMARK    5  A    between atoms: C_7  and  N_8
REMARK    6  A    between atoms: N_8  and  C_9
REMARK    7  A    between atoms: C_17  and  N_18
REMARK    8  A    between atoms: N_18  and  S_19
REMARK    9  A    between atoms: S_19  and  C_22
REMARK                            x       y       z     vdW  Elec       q    Type
REMARK                         _______ _______ _______ _____ _____    ______ ____
ROOT
ATOM      1  C   UNL     1       9.497  -5.217  25.262  0.00  0.00    +0.044 C 
ATOM      2  C   UNL     1       8.262  -4.559  25.808  0.00  0.00    -0.045 A 
ATOM      3  C   UNL     1       8.252  -3.182  26.060  0.00  0.00    +0.028 A 
ATOM      4  C   UNL     1       7.098  -2.573  26.554  0.00  0.00    +0.052 A 
ATOM      5  C   UNL     1       5.952  -3.325  26.808  0.00  0.00    +0.070 A 
ATOM      6  C   UNL     1       5.945  -4.692  26.543  0.00  0.00    +0.123 A 
ATOM      7  C   UNL     1       7.106  -5.307  26.063  0.00  0.00    +0.049 A 
ENDROOT
BRANCH   4   8
ATOM      8  N   UNL     1       7.053  -1.172  26.778  0.00  0.00    -0.216 N 
ATOM      9  H   UNL     1       7.716  -0.757  27.432  0.00  0.00    +0.174 HD
BRANCH   8  10
ATOM     10  S   UNL     1       6.553  -0.146  25.538  0.00  0.00    +0.072 S 
ATOM     11  O   UNL     1       6.393   1.167  26.122  0.00  0.00    -0.150 OA
ATOM     12  O   UNL     1       5.465  -0.779  24.812  0.00  0.00    -0.150 OA
BRANCH  10  13
ATOM     13  C   UNL     1       7.963  -0.089  24.452  0.00  0.00    +0.108 A 
ATOM     14  C   UNL     1       7.816  -0.447  23.107  0.00  0.00    +0.029 A 
ATOM     15  C   UNL     1       8.925  -0.400  22.262  0.00  0.00    +0.002 A 
ATOM     16  C   UNL     1      10.171  -0.012  22.759  0.00  0.00    +0.000 A 
ATOM     17  C   UNL     1      10.317   0.321  24.106  0.00  0.00    +0.002 A 
ATOM     18  C   UNL     1       9.214   0.277  24.959  0.00  0.00    +0.029 A 
ENDBRANCH  10  13
ENDBRANCH   8  10
ENDBRANCH   4   8
BRANCH   6  19
ATOM     19  O   UNL     1       4.890  -5.531  26.759  0.00  0.00    -0.490 OA
BRANCH  19  20
ATOM     20  C   UNL     1       4.907  -6.789  26.083  0.00  0.00    +0.247 C 
BRANCH  20  21
ATOM     21  C   UNL     1       3.838  -6.761  24.986  0.00  0.00    +0.142 C 
BRANCH  21  22
ATOM     22  N   UNL     1       4.433  -6.863  23.647  0.00  0.00    -0.340 N 
ATOM     23  H   UNL     1       3.843  -7.404  23.016  0.00  0.00    +0.146 HD
BRANCH  22  24
ATOM     24  C   UNL     1       5.096  -5.796  23.053  0.00  0.00    +0.038 A 
ATOM     25  C   UNL     1       6.352  -6.019  22.477  0.00  0.00    +0.092 A 
ATOM     26  C   UNL     1       7.077  -4.960  21.941  0.00  0.00    +0.309 A 
ATOM     27  N   UNL     1       6.586  -3.715  22.002  0.00  0.00    -0.217 N 
ATOM     28  H   UNL     1       7.131  -2.947  21.609  0.00  0.00    +0.452 HD
ATOM     29  C   UNL     1       5.405  -3.446  22.575  0.00  0.00    +0.309 A 
ATOM     30  C   UNL     1       4.643  -4.478  23.115  0.00  0.00    +0.092 A 
ENDBRANCH  22  24
ENDBRANCH  21  22
ENDBRANCH  20  21
ENDBRANCH  19  20
ENDBRANCH   6  19
TORSDOF 8
ENDMDL
MODEL 8
REMARK VINA RESULT:      -6.2      2.351      3.710
REMARK  Name = 
REMARK  9 active torsions:
REMARK  status: ('A' for Active; 'I' for Inactive)
REMARK    1  A    between atoms: C_1  and  C_2
REMARK    2  A    between atoms: C_4  and  O_5
REMARK    3  A    between atoms: O_5  and  C_6
REMARK    4  A    between atoms: C_6  and  C_7
REMARK    5  A    between atoms: C_7  and  N_8
REMARK    6  A    between atoms: N_8  and  C_9
REMARK    7  A    between atoms: C_17  and  N_18
REMARK    8  A    between atoms: N_18  and  S_19
REMARK    9  A    between atoms: S_19  and  C_22
REMARK                            x       y       z     vdW  Elec       q    Type
REMARK                         _______ _______ _______ _____ _____    ______ ____
ROOT
ATOM      1  C   UNL     1       9.960  -4.980  25.583  0.00  0.00    +0.044 C 
ATOM      2  C   UNL     1       8.555  -4.586  25.936  0.00  0.00    -0.045 A 
ATOM      3  C   UNL     1       7.525  -5.532  25.883  0.00  0.00    +0.028 A 
ATOM      4  C   UNL     1       6.223  -5.164  26.226  0.00  0.00    +0.052 A 
ATOM      5  C   UNL     1       5.934  -3.857  26.614  0.00  0.00    +0.070 A 
ATOM      6  C   UNL     1       6.954  -2.912  26.688  0.00  0.00    +0.123 A 
ATOM      7  C   UNL     1       8.257  -3.275  26.330  0.00  0.00    +0.049 A 
ENDROOT
BRANCH   4   8
ATOM      8  N   UNL     1       5.172  -6.118  26.218  0.00  0.00    -0.216 N 
ATOM      9  H   UNL     1       4.776  -6.421  27.107  0.00  0.00    +0.174 HD
BRANCH   8  10
ATOM     10  S   UNL     1       4.100  -6.165  24.918  0.00  0.00    +0.072 S 
ATOM     11  O   UNL     1       2.984  -5.314  25.268  0.00  0.00    -0.150 OA
ATOM     12  O   UNL     1       3.892  -7.549  24.529  0.00  0.00    -0.150 OA
BRANCH  10  13
ATOM     13  C   UNL     1       5.001  -5.366  23.607  0.00  0.00    +0.108 A 
ATOM     14  C   UNL     1       4.787  -4.008  23.346  0.00  0.00    +0.029 A 
ATOM     15  C   UNL     1       5.496  -3.389  22.316  0.00  0.00    +0.002 A 
ATOM     16  C   UNL     1       6.399  -4.123  21.546  0.00  0.00    +0.000 A 
ATOM     17  C   UNL     1       6.592  -5.483  21.795  0.00  0.00    +0.002 A 
ATOM     18  C   UNL     1       5.887  -6.111  22.821  0.00  0.00    +0.029 A 
ENDBRANCH  10  13
ENDBRANCH   8  10
ENDBRANCH   4   8
BRANCH   6  19
ATOM     19  O   UNL     1       6.793  -1.604  27.044  0.00  0.00    -0.490 OA
BRANCH  19  20
ATOM     20  C   UNL     1       7.948  -0.766  26.993  0.00  0.00    +0.247 C 
BRANCH  20  21
ATOM     21  C   UNL     1       7.712   0.314  25.931  0.00  0.00    +0.142 C 
BRANCH  21  22
ATOM     22  N   UNL     1       8.949   0.643  25.210  0.00  0.00    -0.340 N 
ATOM     23  H   UNL     1       9.752   0.665  25.836  0.00  0.00    +0.146 HD
BRANCH  22  24
ATOM     24  C   UNL     1       9.215   0.147  23.939  0.00  0.00    +0.038 A 
ATOM     25  C   UNL     1       9.916  -1.057  23.818  0.00  0.00    +0.092 A 
ATOM     26  C   UNL     1      10.265  -1.545  22.564  0.00  0.00    +0.309 A 
ATOM     27  N   UNL     1       9.954  -0.845  21.465  0.00  0.00    -0.217 N 
ATOM     28  H   UNL     1      10.220  -1.212  20.550  0.00  0.00    +0.452 HD
ATOM     29  C   UNL     1       9.314   0.331  21.531  0.00  0.00    +0.309 A 
ATOM     30  C   UNL     1       8.939   0.850  22.766  0.00  0.00    +0.092 A 
ENDBRANCH  22  24
ENDBRANCH  21  22
ENDBRANCH  20  21
ENDBRANCH  19  20
ENDBRANCH   6  19
TORSDOF 8
ENDMDL
MODEL 9
REMARK VINA RESULT:      -6.2      2.472      3.161
REMARK  Name = 
REMARK  9 active torsions:
REMARK  status: ('A' for Active; 'I' for Inactive)
REMARK    1  A    between atoms: C_1  and  C_2
REMARK    2  A    between atoms: C_4  and  O_5
REMARK    3  A    between atoms: O_5  and  C_6
REMARK    4  A    between atoms: C_6  and  C_7
REMARK    5  A    between atoms: C_7  and  N_8
REMARK    6  A    between atoms: N_8  and  C_9
REMARK    7  A    between atoms: C_17  and  N_18
REMARK    8  A    between atoms: N_18  and  S_19
REMARK    9  A    between atoms: S_19  and  C_22
REMARK                            x       y       z     vdW  Elec       q    Type
REMARK                         _______ _______ _______ _____ _____    ______ ____
ROOT
ATOM      1  C   UNL     1      10.519  -1.156  22.244  0.00  0.00    +0.044 C 
ATOM      2  C   UNL     1       9.391  -1.320  23.222  0.00  0.00    -0.045 A 
ATOM      3  C   UNL     1       9.439  -2.333  24.187  0.00  0.00    +0.028 A 
ATOM      4  C   UNL     1       8.395  -2.473  25.103  0.00  0.00    +0.052 A 
ATOM      5  C   UNL     1       7.296  -1.617  25.061  0.00  0.00    +0.070 A 
ATOM      6  C   UNL     1       7.246  -0.596  24.116  0.00  0.00    +0.123 A 
ATOM      7  C   UNL     1       8.284  -0.463  23.188  0.00  0.00    +0.049 A 
ENDROOT
BRANCH   4   8
ATOM      8  N   UNL     1       8.444  -3.466  26.115  0.00  0.00    -0.216 N 
ATOM      9  H   UNL     1       8.028  -3.264  27.024  0.00  0.00    +0.174 HD
BRANCH   8  10
ATOM     10  S   UNL     1       8.434  -5.096  25.684  0.00  0.00    +0.072 S 
ATOM     11  O   UNL     1       7.915  -5.824  26.821  0.00  0.00    -0.150 OA
ATOM     12  O   UNL     1       9.720  -5.437  25.102  0.00  0.00    -0.150 OA
BRANCH  10  13
ATOM     13  C   UNL     1       7.216  -5.175  24.387  0.00  0.00    +0.108 A 
ATOM     14  C   UNL     1       5.857  -5.088  24.707  0.00  0.00    +0.029 A 
ATOM     15  C   UNL     1       4.909  -5.151  23.685  0.00  0.00    +0.002 A 
ATOM     16  C   UNL     1       5.315  -5.315  22.360  0.00  0.00    +0.000 A 
ATOM     17  C   UNL     1       6.671  -5.425  22.049  0.00  0.00    +0.002 A 
ATOM     18  C   UNL     1       7.626  -5.364  23.063  0.00  0.00    +0.029 A 
ENDBRANCH  10  13
ENDBRANCH   8  10
ENDBRANCH   4   8
BRANCH   6  19
ATOM     19  O   UNL     1       6.221   0.295  23.972  0.00  0.00    -0.490 OA
BRANCH  19  20
ATOM     20  C   UNL     1       6.524   1.545  23.351  0.00  0.00    +0.247 C 
BRANCH  20  21
ATOM     21  C   UNL     1       6.593   2.619  24.442  0.00  0.00    +0.142 C 
BRANCH  21  22
ATOM     22  N   UNL     1       7.939   2.714  25.025  0.00  0.00    -0.340 N 
ATOM     23  H   UNL     1       8.230   1.830  25.439  0.00  0.00    +0.146 HD
BRANCH  22  24
ATOM     24  C   UNL     1       8.958   3.433  24.411  0.00  0.00    +0.038 A 
ATOM     25  C   UNL     1      10.054   2.739  23.889  0.00  0.00    +0.092 A 
ATOM     26  C   UNL     1      11.126   3.430  23.336  0.00  0.00    +0.309 A 
ATOM     27  N   UNL     1      11.125   4.770  23.329  0.00  0.00    -0.217 N 
ATOM     28  H   UNL     1      11.920   5.265  22.924  0.00  0.00    +0.452 HD
ATOM     29  C   UNL     1      10.114   5.481  23.848  0.00  0.00    +0.309 A 
ATOM     30  C   UNL     1       9.018   4.828  24.404  0.00  0.00    +0.092 A 
ENDBRANCH  22  24
ENDBRANCH  21  22
ENDBRANCH  20  21
ENDBRANCH  19  20
ENDBRANCH   6  19
TORSDOF 8
ENDMDL
