MODEL 1
REMARK VINA RESULT:      -3.4      0.000      0.000
REMARK  Name = 
REMARK  4 active torsions:
REMARK  status: ('A' for Active; 'I' for Inactive)
REMARK    1  A    between atoms: C_1  and  C_2
REMARK    2  A    between atoms: C_2  and  O_3
REMARK    3  A    between atoms: C_2  and  C_4
REMARK    4  A    between atoms: C_4  and  O_5
REMARK                            x       y       z     vdW  Elec       q    Type
REMARK                         _______ _______ _______ _____ _____    ______ ____
ROOT
ATOM      1  C   UNL     1      11.002   5.943  23.697  0.00  0.00    +0.049 C 
ATOM      2  C   UNL     1      11.977   4.799  23.489  0.00  0.00    +0.219 C 
ENDROOT
BRANCH   2   3
ATOM      3  C   UNL     1      13.178   5.207  22.635  0.00  0.00    +0.333 C 
ATOM      4  O   UNL     1      13.131   5.656  21.502  0.00  0.00    -0.248 OA
BRANCH   3   5
ATOM      5  O   UNL     1      14.342   5.017  23.314  0.00  0.00    -0.479 OA
ATOM      6  H   UNL     1      15.079   5.395  22.779  0.00  0.00    +0.295 HD
ENDBRANCH   3   5
ENDBRANCH   2   3
BRANCH   2   7
ATOM      7  O   UNL     1      11.321   3.698  22.839  0.00  0.00    -0.381 OA
ATOM      8  H   UNL     1      10.427   3.625  23.229  0.00  0.00    +0.210 HD
ENDBRANCH   2   7
TORSDOF 3
ENDMDL
MODEL 2
REMARK VINA RESULT:      -3.3     11.030     11.312
REMARK  Name = 
REMARK  4 active torsions:
REMARK  status: ('A' for Active; 'I' for Inactive)
REMARK    1  A    between atoms: C_1  and  C_2
REMARK    2  A    between atoms: C_2  and  O_3
REMARK    3  A    between atoms: C_2  and  C_4
REMARK    4  A    between atoms: C_4  and  O_5
REMARK                            x       y       z     vdW  Elec       q    Type
REMARK                         _______ _______ _______ _____ _____    ______ ____
ROOT
ATOM      1  C   UNL     1       7.117  -4.015  26.134  0.00  0.00    +0.049 C 
ATOM      2  C   UNL     1       8.385  -4.733  26.558  0.00  0.00    +0.219 C 
ENDROOT
BRANCH   2   3
ATOM      3  C   UNL     1       9.197  -5.231  25.362  0.00  0.00    +0.333 C 
ATOM      4  O   UNL     1       8.794  -5.335  24.216  0.00  0.00    -0.248 OA
BRANCH   3   5
ATOM      5  O   UNL     1      10.468  -5.543  25.736  0.00  0.00    -0.479 OA
ATOM      6  H   UNL     1      11.093  -5.058  25.149  0.00  0.00    +0.295 HD
ENDBRANCH   3   5
ENDBRANCH   2   3
BRANCH   2   7
ATOM      7  O   UNL     1       8.064  -5.866  27.382  0.00  0.00    -0.381 OA
ATOM      8  H   UNL     1       8.337  -6.665  26.892  0.00  0.00    +0.210 HD
ENDBRANCH   2   7
TORSDOF 3
ENDMDL
MODEL 3
REMARK VINA RESULT:      -3.1     10.611     11.478
REMARK  Name = 
REMARK  4 active torsions:
REMARK  status: ('A' for Active; 'I' for Inactive)
REMARK    1  A    between atoms: C_1  and  C_2
REMARK    2  A    between atoms: C_2  and  O_3
REMARK    3  A    between atoms: C_2  and  C_4
REMARK    4  A    between atoms: C_4  and  O_5
REMARK                            x       y       z     vdW  Elec       q    Type
REMARK                         _______ _______ _______ _____ _____    ______ ____
ROOT
ATOM      1  C   UNL     1       8.859  -4.099  24.444  0.00  0.00    +0.049 C 
ATOM      2  C   UNL     1       8.870  -5.251  25.432  0.00  0.00    +0.219 C 
ENDROOT
BRANCH   2   3
ATOM      3  C   UNL     1       8.143  -4.907  26.732  0.00  0.00    +0.333 C 
ATOM      4  O   UNL     1       7.756  -3.799  27.065  0.00  0.00    -0.248 OA
BRANCH   3   5
ATOM      5  O   UNL     1       7.960  -6.020  27.494  0.00  0.00    -0.479 OA
ATOM      6  H   UNL     1       8.572  -6.721  27.170  0.00  0.00    +0.295 HD
ENDBRANCH   3   5
ENDBRANCH   2   3
BRANCH   2   7
ATOM      7  O   UNL     1      10.222  -5.613  25.760  0.00  0.00    -0.381 OA
ATOM      8  H   UNL     1      10.585  -6.095  24.991  0.00  0.00    +0.210 HD
ENDBRANCH   2   7
TORSDOF 3
ENDMDL
MODEL 4
REMARK VINA RESULT:      -3.1      4.953      5.913
REMARK  Name = 
REMARK  4 active torsions:
REMARK  status: ('A' for Active; 'I' for Inactive)
REMARK    1  A    between atoms: C_1  and  C_2
REMARK    2  A    between atoms: C_2  and  O_3
REMARK    3  A    between atoms: C_2  and  C_4
REMARK    4  A    between atoms: C_4  and  O_5
REMARK                            x       y       z     vdW  Elec       q    Type
REMARK                         _______ _______ _______ _____ _____    ______ ____
ROOT
ATOM      1  C   UNL     1       7.894   1.428  22.276  0.00  0.00    +0.049 C 
ATOM      2  C   UNL     1       9.159   1.109  21.501  0.00  0.00    +0.219 C 
ENDROOT
BRANCH   2   3
ATOM      3  C   UNL     1       9.886  -0.117  22.056  0.00  0.00    +0.333 C 
ATOM      4  O   UNL     1      10.486  -0.173  23.116  0.00  0.00    -0.248 OA
BRANCH   3   5
ATOM      5  O   UNL     1       9.770  -1.174  21.207  0.00  0.00    -0.479 OA
ATOM      6  H   UNL     1       9.702  -0.827  20.287  0.00  0.00    +0.295 HD
ENDBRANCH   3   5
ENDBRANCH   2   3
BRANCH   2   7
ATOM      7  O   UNL     1      10.065   2.224  21.546  0.00  0.00    -0.381 OA
ATOM      8  H   UNL     1      10.936   1.898  21.247  0.00  0.00    +0.210 HD
ENDBRANCH   2   7
TORSDOF 3
ENDMDL
MODEL 5
REMARK VINA RESULT:      -3.0      4.050      4.943
REMARK  Name = 
REMARK  4 active torsions:
REMARK  status: ('A' for Active; 'I' for Inactive)
REMARK    1  A    between atoms: C_1  and  C_2
REMARK    2  A    between atoms: C_2  and  O_3
REMARK    3  A    between atoms: C_2  and  C_4
REMARK    4  A    between atoms: C_4  and  O_5
REMARK                            x       y       z     vdW  Elec       q    Type
REMARK                         _______ _______ _______ _____ _____    ______ ____
ROOT
ATOM      1  C   UNL     1      10.856   0.620  24.519  0.00  0.00    +0.049 C 
ATOM      2  C   UNL     1      10.029   1.564  23.666  0.00  0.00    +0.219 C 
ENDROOT
BRANCH   2   3
ATOM      3  C   UNL     1       9.965   1.121  22.204  0.00  0.00    +0.333 C 
ATOM      4  O   UNL     1      10.004  -0.029  21.802  0.00  0.00    -0.248 OA
BRANCH   3   5
ATOM      5  O   UNL     1       9.843   2.196  21.378  0.00  0.00    -0.479 OA
ATOM      6  H   UNL     1       8.985   2.641  21.571  0.00  0.00    +0.295 HD
ENDBRANCH   3   5
ENDBRANCH   2   3
BRANCH   2   7
ATOM      7  O   UNL     1      10.585   2.889  23.708  0.00  0.00    -0.381 OA
ATOM      8  H   UNL     1      10.087   3.430  23.063  0.00  0.00    +0.210 HD
ENDBRANCH   2   7
TORSDOF 3
ENDMDL
MODEL 6
REMARK VINA RESULT:      -2.9     12.053     12.855
REMARK  Name = 
REMARK  4 active torsions:
REMARK  status: ('A' for Active; 'I' for Inactive)
REMARK    1  A    between atoms: C_1  and  C_2
REMARK    2  A    between atoms: C_2  and  O_3
REMARK    3  A    between atoms: C_2  and  C_4
REMARK    4  A    between atoms: C_4  and  O_5
REMARK                            x       y       z     vdW  Elec       q    Type
REMARK                         _______ _______ _______ _____ _____    ______ ____
ROOT
ATOM      1  C   UNL     1       1.989   6.784  16.385  0.00  0.00    +0.049 C 
ATOM      2  C   UNL     1       2.735   6.599  15.077  0.00  0.00    +0.219 C 
ENDROOT
BRANCH   2   3
ATOM      3  C   UNL     1       2.383   5.280  14.388  0.00  0.00    +0.333 C 
ATOM      4  O   UNL     1       1.564   5.135  13.497  0.00  0.00    -0.248 OA
BRANCH   3   5
ATOM      5  O   UNL     1       3.124   4.257  14.895  0.00  0.00    -0.479 OA
ATOM      6  H   UNL     1       4.078   4.483  14.792  0.00  0.00    +0.295 HD
ENDBRANCH   3   5
ENDBRANCH   2   3
BRANCH   2   7
ATOM      7  O   UNL     1       4.154   6.618  15.307  0.00  0.00    -0.381 OA
ATOM      8  H   UNL     1       4.300   7.058  16.168  0.00  0.00    +0.210 HD
ENDBRANCH   2   7
TORSDOF 3
ENDMDL
MODEL 7
REMARK VINA RESULT:      -2.9     13.024     13.914
REMARK  Name = 
REMARK  4 active torsions:
REMARK  status: ('A' for Active; 'I' for Inactive)
REMARK    1  A    between atoms: C_1  and  C_2
REMARK    2  A    between atoms: C_2  and  O_3
REMARK    3  A    between atoms: C_2  and  C_4
REMARK    4  A    between atoms: C_4  and  O_5
REMARK                            x       y       z     vdW  Elec       q    Type
REMARK                         _______ _______ _______ _____ _____    ______ ____
ROOT
ATOM      1  C   UNL     1       1.525   5.333  16.425  0.00  0.00    +0.049 C 
ATOM      2  C   UNL     1       2.018   5.115  15.006  0.00  0.00    +0.219 C 
ENDROOT
BRANCH   2   3
ATOM      3  C   UNL     1       0.969   4.436  14.124  0.00  0.00    +0.333 C 
ATOM      4  O   UNL     1       0.444   4.920  13.136  0.00  0.00    -0.248 OA
BRANCH   3   5
ATOM      5  O   UNL     1       0.691   3.184  14.579  0.00  0.00    -0.479 OA
ATOM      6  H   UNL     1       1.198   3.036  15.412  0.00  0.00    +0.295 HD
ENDBRANCH   3   5
ENDBRANCH   2   3
BRANCH   2   7
ATOM      7  O   UNL     1       3.197   4.292  15.010  0.00  0.00    -0.381 OA
ATOM      8  H   UNL     1       2.900   3.364  15.088  0.00  0.00    +0.210 HD
ENDBRANCH   2   7
TORSDOF 3
ENDMDL
MODEL 8
REMARK VINA RESULT:      -2.9      4.552      5.645
REMARK  Name = 
REMARK  4 active torsions:
REMARK  status: ('A' for Active; 'I' for Inactive)
REMARK    1  A    between atoms: C_1  and  C_2
REMARK    2  A    between atoms: C_2  and  O_3
REMARK    3  A    between atoms: C_2  and  C_4
REMARK    4  A    between atoms: C_4  and  O_5
REMARK                            x       y       z     vdW  Elec       q    Type
REMARK                         _______ _______ _______ _____ _____    ______ ____
ROOT
ATOM      1  C   UNL     1       9.658  -1.032  23.420  0.00  0.00    +0.049 C 
ATOM      2  C   UNL     1      10.181  -0.177  22.281  0.00  0.00    +0.219 C 
ENDROOT
BRANCH   2   3
ATOM      3  C   UNL     1      10.007   1.319  22.550  0.00  0.00    +0.333 C 
ATOM      4  O   UNL     1      10.066   1.861  23.640  0.00  0.00    -0.248 OA
BRANCH   3   5
ATOM      5  O   UNL     1       9.782   1.996  21.392  0.00  0.00    -0.479 OA
ATOM      6  H   UNL     1       9.672   1.340  20.664  0.00  0.00    +0.295 HD
ENDBRANCH   3   5
ENDBRANCH   2   3
BRANCH   2   7
ATOM      7  O   UNL     1       9.489  -0.494  21.062  0.00  0.00    -0.381 OA
ATOM      8  H   UNL     1       9.259  -1.443  21.101  0.00  0.00    +0.210 HD
ENDBRANCH   2   7
TORSDOF 3
ENDMDL
MODEL 9
REMARK VINA RESULT:      -2.9      6.950      7.631
REMARK  Name = 
REMARK  4 active torsions:
REMARK  status: ('A' for Active; 'I' for Inactive)
REMARK    1  A    between atoms: C_1  and  C_2
REMARK    2  A    between atoms: C_2  and  O_3
REMARK    3  A    between atoms: C_2  and  C_4
REMARK    4  A    between atoms: C_4  and  O_5
REMARK                            x       y       z     vdW  Elec       q    Type
REMARK                         _______ _______ _______ _____ _____    ______ ____
ROOT
ATOM      1  C   UNL     1       8.375  -0.394  22.506  0.00  0.00    +0.049 C 
ATOM      2  C   UNL     1       9.151  -1.692  22.381  0.00  0.00    +0.219 C 
ENDROOT
BRANCH   2   3
ATOM      3  C   UNL     1       9.786  -2.119  23.705  0.00  0.00    +0.333 C 
ATOM      4  O   UNL     1      10.147  -3.246  23.995  0.00  0.00    -0.248 OA
BRANCH   3   5
ATOM      5  O   UNL     1       9.918  -1.055  24.543  0.00  0.00    -0.479 OA
ATOM      6  H   UNL     1      10.490  -1.324  25.300  0.00  0.00    +0.295 HD
ENDBRANCH   3   5
ENDBRANCH   2   3
BRANCH   2   7
ATOM      7  O   UNL     1      10.199  -1.554  21.407  0.00  0.00    -0.381 OA
ATOM      8  H   UNL     1      10.952  -2.094  21.716  0.00  0.00    +0.210 HD
ENDBRANCH   2   7
TORSDOF 3
ENDMDL
