MODEL 1
REMARK VINA RESULT:      -5.4      0.000      0.000
REMARK  Name = 
REMARK  21 active torsions:
REMARK  status: ('A' for Active; 'I' for Inactive)
REMARK    1  A    between atoms: N_1  and  C_2
REMARK    2  A    between atoms: C_2  and  C_3
REMARK    3  A    between atoms: C_3  and  C_4
REMARK    4  A    between atoms: C_4  and  C_5
REMARK    5  A    between atoms: C_5  and  N_6
REMARK    6  A    between atoms: N_6  and  C_7
REMARK    7  A    between atoms: C_7  and  C_8
REMARK    8  A    between atoms: C_8  and  C_9
REMARK    9  A    between atoms: C_9  and  N_10
REMARK   10  A    between atoms: C_11  and  C_13
REMARK   11  A    between atoms: C_13  and  N_14
REMARK   12  A    between atoms: C_15  and  C_17
REMARK   13  A    between atoms: C_17  and  C_19
REMARK   14  A    between atoms: C_17  and  N_21
REMARK   15  A    between atoms: C_19  and  S_20
REMARK   16  A    between atoms: C_22  and  C_24
REMARK   17  A    between atoms: C_24  and  C_25
REMARK   18  A    between atoms: C_25  and  C_26
REMARK   19  A    between atoms: C_26  and  N_28
REMARK   20  A    between atoms: C_26  and  C_29
REMARK   21  A    between atoms: C_29  and  O_30
REMARK                            x       y       z     vdW  Elec       q    Type
REMARK                         _______ _______ _______ _____ _____    ______ ____
ROOT
ATOM      1  N   UNK     1       7.301  -4.184  25.905  0.00  0.00    -0.305 N 
ATOM      2  H   UNK     1       6.896  -4.136  24.978  0.00  0.00    +0.149 HD
ATOM      3  C   UNK     1       6.989  -5.249  26.729  0.00  0.00    +0.235 C 
ATOM      4  O   UNK     1       7.626  -5.471  27.757  0.00  0.00    -0.274 OA
ENDROOT
BRANCH   1   5
ATOM      5  C   UNK     1       8.512  -3.408  26.130  0.00  0.00    +0.200 C 
BRANCH   5   8
ATOM      6  N   UNK     1       9.348  -2.219  24.158  0.00  0.00    -0.314 N 
ATOM      7  H   UNK     1       8.838  -1.432  24.546  0.00  0.00    +0.149 HD
ATOM      8  C   UNK     1       9.393  -3.393  24.879  0.00  0.00    +0.230 C 
ATOM      9  O   UNK     1      10.142  -4.329  24.606  0.00  0.00    -0.274 OA
BRANCH   6  10
ATOM     10  C   UNK     1      10.150  -2.007  22.966  0.00  0.00    +0.105 C 
BRANCH  10  11
ATOM     11  C   UNK     1       9.331  -1.424  21.813  0.00  0.00    +0.034 C 
BRANCH  11  12
ATOM     12  C   UNK     1       8.319  -0.400  22.328  0.00  0.00    +0.082 C 
BRANCH  12  13
ATOM     13  N   UNK     1       8.274   0.765  21.439  0.00  0.00    -0.316 NA
ATOM     14  H   UNK     1       8.873   0.604  20.630  0.00  0.00    +0.122 HD
BRANCH  13  15
ATOM     15  C   UNK     1       8.686   1.987  22.127  0.00  0.00    +0.081 C 
BRANCH  15  16
ATOM     16  C   UNK     1      10.213   2.060  22.262  0.00  0.00    +0.016 C 
BRANCH  16  17
ATOM     17  C   UNK     1      10.678   2.203  23.715  0.00  0.00    +0.016 C 
BRANCH  17  18
ATOM     18  C   UNK     1       9.637   1.658  24.690  0.00  0.00    +0.077 C 
BRANCH  18  19
ATOM     19  N   UNK     1      10.196   0.543  25.445  0.00  0.00    -0.330 NA
ATOM     20  H   UNK     1       9.783   0.518  26.377  0.00  0.00    +0.118 HD
ATOM     21  H   UNK     1       9.945  -0.335  24.994  0.00  0.00    +0.118 HD
ENDBRANCH  18  19
ENDBRANCH  17  18
ENDBRANCH  16  17
ENDBRANCH  15  16
ENDBRANCH  13  15
ENDBRANCH  12  13
ENDBRANCH  11  12
ENDBRANCH  10  11
ENDBRANCH   6  10
ENDBRANCH   5   8
ENDBRANCH   1   5
BRANCH   3  22
ATOM     22  C   UNK     1       5.679  -5.994  26.370  0.00  0.00    +0.168 C 
BRANCH  22  23
ATOM     23  N   UNK     1       5.419  -5.654  24.956  0.00  0.00    -0.303 N 
ATOM     24  H   UNK     1       5.872  -4.821  24.600  0.00  0.00    +0.149 HD
ATOM     25  C   UNK     1       4.778  -6.476  24.063  0.00  0.00    +0.214 C 
ATOM     26  O   UNK     1       4.340  -7.586  24.340  0.00  0.00    -0.276 OA
BRANCH  25  27
ATOM     27  C   UNK     1       4.630  -5.909  22.667  0.00  0.00    +0.098 C 
BRANCH  27  28
ATOM     28  C   UNK     1       5.811  -6.295  21.789  0.00  0.00    +0.039 C 
BRANCH  28  29
ATOM     29  C   UNK     1       6.946  -5.260  21.795  0.00  0.00    +0.161 C 
BRANCH  29  30
ATOM     30  N   UNK     1       7.867  -5.454  22.948  0.00  0.00    -0.318 NA
ATOM     31  H   UNK     1       8.661  -4.815  22.855  0.00  0.00    +0.119 HD
ATOM     32  H   UNK     1       7.389  -5.124  23.796  0.00  0.00    +0.119 HD
ENDBRANCH  29  30
BRANCH  29  33
ATOM     33  C   UNK     1       6.312  -3.866  21.920  0.00  0.00    +0.322 C 
ATOM     34  O   UNK     1       5.646  -3.322  21.056  0.00  0.00    -0.249 OA
BRANCH  33  35
ATOM     35  O   UNK     1       6.539  -3.332  23.149  0.00  0.00    -0.480 OA
ATOM     36  H   UNK     1       7.467  -3.574  23.390  0.00  0.00    +0.295 HD
ENDBRANCH  33  35
ENDBRANCH  29  33
ENDBRANCH  28  29
ENDBRANCH  27  28
ENDBRANCH  25  27
ENDBRANCH  22  23
BRANCH  22  37
ATOM     37  C   UNK     1       4.559  -5.583  27.342  0.00  0.00    +0.097 C 
BRANCH  37  38
ATOM     38  S   UNK     1       3.661  -4.080  26.818  0.00  0.00    -0.176 S 
ATOM     39  H   UNK     1       3.093  -4.611  25.726  0.00  0.00    +0.102 HD
ENDBRANCH  37  38
ENDBRANCH  22  37
ENDBRANCH   3  22
TORSDOF 21
ENDMDL
MODEL 2
REMARK VINA RESULT:      -5.3      3.006      4.707
REMARK  Name = 
REMARK  21 active torsions:
REMARK  status: ('A' for Active; 'I' for Inactive)
REMARK    1  A    between atoms: N_1  and  C_2
REMARK    2  A    between atoms: C_2  and  C_3
REMARK    3  A    between atoms: C_3  and  C_4
REMARK    4  A    between atoms: C_4  and  C_5
REMARK    5  A    between atoms: C_5  and  N_6
REMARK    6  A    between atoms: N_6  and  C_7
REMARK    7  A    between atoms: C_7  and  C_8
REMARK    8  A    between atoms: C_8  and  C_9
REMARK    9  A    between atoms: C_9  and  N_10
REMARK   10  A    between atoms: C_11  and  C_13
REMARK   11  A    between atoms: C_13  and  N_14
REMARK   12  A    between atoms: C_15  and  C_17
REMARK   13  A    between atoms: C_17  and  C_19
REMARK   14  A    between atoms: C_17  and  N_21
REMARK   15  A    between atoms: C_19  and  S_20
REMARK   16  A    between atoms: C_22  and  C_24
REMARK   17  A    between atoms: C_24  and  C_25
REMARK   18  A    between atoms: C_25  and  C_26
REMARK   19  A    between atoms: C_26  and  N_28
REMARK   20  A    between atoms: C_26  and  C_29
REMARK   21  A    between atoms: C_29  and  O_30
REMARK                            x       y       z     vdW  Elec       q    Type
REMARK                         _______ _______ _______ _____ _____    ______ ____
ROOT
ATOM      1  N   UNK     1       9.711  -1.095  22.925  0.00  0.00    -0.305 N 
ATOM      2  H   UNK     1      10.546  -0.914  23.469  0.00  0.00    +0.149 HD
ATOM      3  C   UNK     1       8.558  -1.506  23.567  0.00  0.00    +0.235 C 
ATOM      4  O   UNK     1       7.472  -1.513  22.990  0.00  0.00    -0.274 OA
ENDROOT
BRANCH   1   5
ATOM      5  C   UNK     1       9.642  -0.478  21.609  0.00  0.00    +0.200 C 
BRANCH   5   8
ATOM      6  N   UNK     1       8.009   1.347  21.546  0.00  0.00    -0.314 N 
ATOM      7  H   UNK     1       7.330   0.596  21.466  0.00  0.00    +0.149 HD
ATOM      8  C   UNK     1       9.336   1.017  21.720  0.00  0.00    +0.230 C 
ATOM      9  O   UNK     1      10.203   1.832  22.030  0.00  0.00    -0.274 OA
BRANCH   6  10
ATOM     10  C   UNK     1       7.525   2.712  21.658  0.00  0.00    +0.105 C 
BRANCH  10  11
ATOM     11  C   UNK     1       6.776   2.954  22.969  0.00  0.00    +0.034 C 
BRANCH  11  12
ATOM     12  C   UNK     1       7.536   3.941  23.856  0.00  0.00    +0.082 C 
BRANCH  12  13
ATOM     13  N   UNK     1       8.808   4.316  23.230  0.00  0.00    -0.316 NA
ATOM     14  H   UNK     1       9.197   3.515  22.736  0.00  0.00    +0.122 HD
BRANCH  13  15
ATOM     15  C   UNK     1       9.770   4.811  24.212  0.00  0.00    +0.081 C 
BRANCH  15  16
ATOM     16  C   UNK     1      10.514   6.046  23.687  0.00  0.00    +0.016 C 
BRANCH  16  17
ATOM     17  C   UNK     1      12.023   5.987  23.942  0.00  0.00    +0.016 C 
BRANCH  17  18
ATOM     18  C   UNK     1      12.686   4.884  23.119  0.00  0.00    +0.077 C 
BRANCH  18  19
ATOM     19  N   UNK     1      14.131   5.074  23.100  0.00  0.00    -0.330 NA
ATOM     20  H   UNK     1      14.575   4.399  23.721  0.00  0.00    +0.118 HD
ATOM     21  H   UNK     1      14.488   4.886  22.165  0.00  0.00    +0.118 HD
ENDBRANCH  18  19
ENDBRANCH  17  18
ENDBRANCH  16  17
ENDBRANCH  15  16
ENDBRANCH  13  15
ENDBRANCH  12  13
ENDBRANCH  11  12
ENDBRANCH  10  11
ENDBRANCH   6  10
ENDBRANCH   5   8
ENDBRANCH   1   5
BRANCH   3  22
ATOM     22  C   UNK     1       8.774  -2.135  24.966  0.00  0.00    +0.168 C 
BRANCH  22  23
ATOM     23  N   UNK     1       7.699  -3.138  25.107  0.00  0.00    -0.303 N 
ATOM     24  H   UNK     1       6.794  -2.792  25.406  0.00  0.00    +0.149 HD
ATOM     25  C   UNK     1       7.787  -4.440  24.683  0.00  0.00    +0.214 C 
ATOM     26  O   UNK     1       8.776  -4.923  24.145  0.00  0.00    -0.276 OA
BRANCH  25  27
ATOM     27  C   UNK     1       6.553  -5.279  24.935  0.00  0.00    +0.098 C 
BRANCH  27  28
ATOM     28  C   UNK     1       5.354  -4.735  24.173  0.00  0.00    +0.039 C 
BRANCH  28  29
ATOM     29  C   UNK     1       4.773  -5.724  23.152  0.00  0.00    +0.161 C 
BRANCH  29  30
ATOM     30  N   UNK     1       4.707  -7.109  23.696  0.00  0.00    -0.318 NA
ATOM     31  H   UNK     1       3.780  -7.267  24.100  0.00  0.00    +0.119 HD
ATOM     32  H   UNK     1       4.742  -7.763  22.905  0.00  0.00    +0.119 HD
ENDBRANCH  29  30
BRANCH  29  33
ATOM     33  C   UNK     1       5.703  -5.738  21.928  0.00  0.00    +0.322 C 
ATOM     34  O   UNK     1       5.838  -4.813  21.144  0.00  0.00    -0.249 OA
BRANCH  33  35
ATOM     35  O   UNK     1       6.407  -6.897  21.859  0.00  0.00    -0.480 OA
ATOM     36  H   UNK     1       6.101  -7.360  21.039  0.00  0.00    +0.295 HD
ENDBRANCH  33  35
ENDBRANCH  29  33
ENDBRANCH  28  29
ENDBRANCH  27  28
ENDBRANCH  25  27
ENDBRANCH  22  23
BRANCH  22  37
ATOM     37  C   UNK     1       8.766  -1.034  26.042  0.00  0.00    +0.097 C 
BRANCH  37  38
ATOM     38  S   UNK     1       8.155   0.575  25.426  0.00  0.00    -0.176 S 
ATOM     39  H   UNK     1       8.891   1.343  26.243  0.00  0.00    +0.102 HD
ENDBRANCH  37  38
ENDBRANCH  22  37
ENDBRANCH   3  22
TORSDOF 21
ENDMDL
MODEL 3
REMARK VINA RESULT:      -5.3      2.208      2.967
REMARK  Name = 
REMARK  21 active torsions:
REMARK  status: ('A' for Active; 'I' for Inactive)
REMARK    1  A    between atoms: N_1  and  C_2
REMARK    2  A    between atoms: C_2  and  C_3
REMARK    3  A    between atoms: C_3  and  C_4
REMARK    4  A    between atoms: C_4  and  C_5
REMARK    5  A    between atoms: C_5  and  N_6
REMARK    6  A    between atoms: N_6  and  C_7
REMARK    7  A    between atoms: C_7  and  C_8
REMARK    8  A    between atoms: C_8  and  C_9
REMARK    9  A    between atoms: C_9  and  N_10
REMARK   10  A    between atoms: C_11  and  C_13
REMARK   11  A    between atoms: C_13  and  N_14
REMARK   12  A    between atoms: C_15  and  C_17
REMARK   13  A    between atoms: C_17  and  C_19
REMARK   14  A    between atoms: C_17  and  N_21
REMARK   15  A    between atoms: C_19  and  S_20
REMARK   16  A    between atoms: C_22  and  C_24
REMARK   17  A    between atoms: C_24  and  C_25
REMARK   18  A    between atoms: C_25  and  C_26
REMARK   19  A    between atoms: C_26  and  N_28
REMARK   20  A    between atoms: C_26  and  C_29
REMARK   21  A    between atoms: C_29  and  O_30
REMARK                            x       y       z     vdW  Elec       q    Type
REMARK                         _______ _______ _______ _____ _____    ______ ____
ROOT
ATOM      1  N   UNK     1       8.660  -2.556  26.351  0.00  0.00    -0.305 N 
ATOM      2  H   UNK     1       9.523  -3.056  26.523  0.00  0.00    +0.149 HD
ATOM      3  C   UNK     1       7.451  -3.188  26.574  0.00  0.00    +0.235 C 
ATOM      4  O   UNK     1       6.395  -2.559  26.605  0.00  0.00    -0.274 OA
ENDROOT
BRANCH   1   5
ATOM      5  C   UNK     1       8.739  -1.102  26.336  0.00  0.00    +0.200 C 
BRANCH   5   8
ATOM      6  N   UNK     1       9.630  -1.420  24.076  0.00  0.00    -0.314 N 
ATOM      7  H   UNK     1       8.978  -2.197  24.042  0.00  0.00    +0.149 HD
ATOM      8  C   UNK     1       9.633  -0.614  25.194  0.00  0.00    +0.230 C 
ATOM      9  O   UNK     1      10.228   0.461  25.255  0.00  0.00    -0.274 OA
BRANCH   6  10
ATOM     10  C   UNK     1      10.385  -1.094  22.879  0.00  0.00    +0.105 C 
BRANCH  10  11
ATOM     11  C   UNK     1       9.556  -0.297  21.871  0.00  0.00    +0.034 C 
BRANCH  11  12
ATOM     12  C   UNK     1       9.978   1.172  21.859  0.00  0.00    +0.082 C 
BRANCH  12  13
ATOM     13  N   UNK     1       8.883   2.015  21.370  0.00  0.00    -0.316 NA
ATOM     14  H   UNK     1       9.250   2.723  20.736  0.00  0.00    +0.122 HD
BRANCH  13  15
ATOM     15  C   UNK     1       8.162   2.657  22.467  0.00  0.00    +0.081 C 
BRANCH  15  16
ATOM     16  C   UNK     1       6.730   2.115  22.582  0.00  0.00    +0.016 C 
BRANCH  16  17
ATOM     17  C   UNK     1       6.462   1.417  23.919  0.00  0.00    +0.016 C 
BRANCH  17  18
ATOM     18  C   UNK     1       6.326  -0.094  23.743  0.00  0.00    +0.077 C 
BRANCH  18  19
ATOM     19  N   UNK     1       5.369  -0.625  24.706  0.00  0.00    -0.330 NA
ATOM     20  H   UNK     1       4.505  -0.879  24.229  0.00  0.00    +0.118 HD
ATOM     21  H   UNK     1       5.736  -1.483  25.115  0.00  0.00    +0.118 HD
ENDBRANCH  18  19
ENDBRANCH  17  18
ENDBRANCH  16  17
ENDBRANCH  15  16
ENDBRANCH  13  15
ENDBRANCH  12  13
ENDBRANCH  11  12
ENDBRANCH  10  11
ENDBRANCH   6  10
ENDBRANCH   5   8
ENDBRANCH   1   5
BRANCH   3  22
ATOM     22  C   UNK     1       7.512  -4.736  26.576  0.00  0.00    +0.168 C 
BRANCH  22  23
ATOM     23  N   UNK     1       7.175  -5.136  25.194  0.00  0.00    -0.303 N 
ATOM     24  H   UNK     1       6.208  -5.382  25.017  0.00  0.00    +0.149 HD
ATOM     25  C   UNK     1       8.019  -5.009  24.119  0.00  0.00    +0.214 C 
ATOM     26  O   UNK     1       9.156  -4.558  24.185  0.00  0.00    -0.276 OA
BRANCH  25  27
ATOM     27  C   UNK     1       7.449  -5.486  22.800  0.00  0.00    +0.098 C 
BRANCH  27  28
ATOM     28  C   UNK     1       6.008  -5.949  22.960  0.00  0.00    +0.039 C 
BRANCH  28  29
ATOM     29  C   UNK     1       4.982  -4.991  22.341  0.00  0.00    +0.161 C 
BRANCH  29  30
ATOM     30  N   UNK     1       5.636  -3.834  21.669  0.00  0.00    -0.318 NA
ATOM     31  H   UNK     1       6.621  -3.797  21.947  0.00  0.00    +0.119 HD
ATOM     32  H   UNK     1       5.676  -4.032  20.663  0.00  0.00    +0.119 HD
ENDBRANCH  29  30
BRANCH  29  33
ATOM     33  C   UNK     1       4.101  -4.446  23.476  0.00  0.00    +0.322 C 
ATOM     34  O   UNK     1       2.964  -4.815  23.716  0.00  0.00    -0.249 OA
BRANCH  33  35
ATOM     35  O   UNK     1       4.774  -3.533  24.225  0.00  0.00    -0.480 OA
ATOM     36  H   UNK     1       4.468  -2.643  23.920  0.00  0.00    +0.295 HD
ENDBRANCH  33  35
ENDBRANCH  29  33
ENDBRANCH  28  29
ENDBRANCH  27  28
ENDBRANCH  25  27
ENDBRANCH  22  23
BRANCH  22  37
ATOM     37  C   UNK     1       6.564  -5.297  27.652  0.00  0.00    +0.097 C 
BRANCH  37  38
ATOM     38  S   UNK     1       5.153  -6.228  26.957  0.00  0.00    -0.176 S 
ATOM     39  H   UNK     1       5.341  -7.349  27.668  0.00  0.00    +0.102 HD
ENDBRANCH  37  38
ENDBRANCH  22  37
ENDBRANCH   3  22
TORSDOF 21
ENDMDL
MODEL 4
REMARK VINA RESULT:      -5.2      2.406      4.185
REMARK  Name = 
REMARK  21 active torsions:
REMARK  status: ('A' for Active; 'I' for Inactive)
REMARK    1  A    between atoms: N_1  and  C_2
REMARK    2  A    between atoms: C_2  and  C_3
REMARK    3  A    between atoms: C_3  and  C_4
REMARK    4  A    between atoms: C_4  and  C_5
REMARK    5  A    between atoms: C_5  and  N_6
REMARK    6  A    between atoms: N_6  and  C_7
REMARK    7  A    between atoms: C_7  and  C_8
REMARK    8  A    between atoms: C_8  and  C_9
REMARK    9  A    between atoms: C_9  and  N_10
REMARK   10  A    between atoms: C_11  and  C_13
REMARK   11  A    between atoms: C_13  and  N_14
REMARK   12  A    between atoms: C_15  and  C_17
REMARK   13  A    between atoms: C_17  and  C_19
REMARK   14  A    between atoms: C_17  and  N_21
REMARK   15  A    between atoms: C_19  and  S_20
REMARK   16  A    between atoms: C_22  and  C_24
REMARK   17  A    between atoms: C_24  and  C_25
REMARK   18  A    between atoms: C_25  and  C_26
REMARK   19  A    between atoms: C_26  and  N_28
REMARK   20  A    between atoms: C_26  and  C_29
REMARK   21  A    between atoms: C_29  and  O_30
REMARK                            x       y       z     vdW  Elec       q    Type
REMARK                         _______ _______ _______ _____ _____    ______ ____
ROOT
ATOM      1  N   UNK     1       7.166  -2.958  22.948  0.00  0.00    -0.305 N 
ATOM      2  H   UNK     1       7.257  -2.720  23.928  0.00  0.00    +0.149 HD
ATOM      3  C   UNK     1       5.957  -3.431  22.472  0.00  0.00    +0.235 C 
ATOM      4  O   UNK     1       5.730  -3.511  21.266  0.00  0.00    -0.274 OA
ENDROOT
BRANCH   1   5
ATOM      5  C   UNK     1       8.134  -2.363  22.038  0.00  0.00    +0.200 C 
BRANCH   5   8
ATOM      6  N   UNK     1       9.284  -0.285  22.636  0.00  0.00    -0.314 N 
ATOM      7  H   UNK     1       8.535   0.157  22.113  0.00  0.00    +0.149 HD
ATOM      8  C   UNK     1       9.247  -1.651  22.811  0.00  0.00    +0.230 C 
ATOM      9  O   UNK     1       9.980  -2.256  23.590  0.00  0.00    -0.274 OA
BRANCH   6  10
ATOM     10  C   UNK     1      10.244   0.562  23.323  0.00  0.00    +0.105 C 
BRANCH  10  11
ATOM     11  C   UNK     1       9.726   1.042  24.679  0.00  0.00    +0.034 C 
BRANCH  11  12
ATOM     12  C   UNK     1       9.071   2.418  24.555  0.00  0.00    +0.082 C 
BRANCH  12  13
ATOM     13  N   UNK     1       8.905   2.780  23.144  0.00  0.00    -0.316 NA
ATOM     14  H   UNK     1       9.399   3.651  22.953  0.00  0.00    +0.122 HD
BRANCH  13  15
ATOM     15  C   UNK     1       7.496   2.918  22.782  0.00  0.00    +0.081 C 
BRANCH  15  16
ATOM     16  C   UNK     1       7.203   4.315  22.217  0.00  0.00    +0.016 C 
BRANCH  16  17
ATOM     17  C   UNK     1       7.332   5.423  23.267  0.00  0.00    +0.016 C 
BRANCH  17  18
ATOM     18  C   UNK     1       8.372   6.463  22.856  0.00  0.00    +0.077 C 
BRANCH  18  19
ATOM     19  N   UNK     1       9.714   5.966  23.134  0.00  0.00    -0.330 NA
ATOM     20  H   UNK     1      10.396   6.494  22.590  0.00  0.00    +0.118 HD
ATOM     21  H   UNK     1       9.940   6.126  24.114  0.00  0.00    +0.118 HD
ENDBRANCH  18  19
ENDBRANCH  17  18
ENDBRANCH  16  17
ENDBRANCH  15  16
ENDBRANCH  13  15
ENDBRANCH  12  13
ENDBRANCH  11  12
ENDBRANCH  10  11
ENDBRANCH   6  10
ENDBRANCH   5   8
ENDBRANCH   1   5
BRANCH   3  22
ATOM     22  C   UNK     1       5.017  -4.027  23.549  0.00  0.00    +0.168 C 
BRANCH  22  23
ATOM     23  N   UNK     1       5.815  -4.039  24.792  0.00  0.00    -0.303 N 
ATOM     24  H   UNK     1       6.817  -3.925  24.689  0.00  0.00    +0.149 HD
ATOM     25  C   UNK     1       5.286  -3.998  26.058  0.00  0.00    +0.214 C 
ATOM     26  O   UNK     1       4.086  -3.956  26.302  0.00  0.00    -0.276 OA
BRANCH  25  27
ATOM     27  C   UNK     1       6.305  -4.018  27.177  0.00  0.00    +0.098 C 
BRANCH  27  28
ATOM     28  C   UNK     1       7.421  -5.010  26.886  0.00  0.00    +0.039 C 
BRANCH  28  29
ATOM     29  C   UNK     1       8.739  -4.346  26.462  0.00  0.00    +0.161 C 
BRANCH  29  30
ATOM     30  N   UNK     1       8.546  -2.918  26.086  0.00  0.00    -0.318 NA
ATOM     31  H   UNK     1       8.027  -2.869  25.205  0.00  0.00    +0.119 HD
ATOM     32  H   UNK     1       7.905  -2.494  26.768  0.00  0.00    +0.119 HD
ENDBRANCH  29  30
BRANCH  29  33
ATOM     33  C   UNK     1       9.269  -5.095  25.230  0.00  0.00    +0.322 C 
ATOM     34  O   UNK     1       8.647  -5.264  24.194  0.00  0.00    -0.249 OA
BRANCH  33  35
ATOM     35  O   UNK     1      10.553  -5.499  25.415  0.00  0.00    -0.480 OA
ATOM     36  H   UNK     1      10.971  -4.833  26.016  0.00  0.00    +0.295 HD
ENDBRANCH  33  35
ENDBRANCH  29  33
ENDBRANCH  28  29
ENDBRANCH  27  28
ENDBRANCH  25  27
ENDBRANCH  22  23
BRANCH  22  37
ATOM     37  C   UNK     1       4.516  -5.411  23.099  0.00  0.00    +0.097 C 
BRANCH  37  38
ATOM     38  S   UNK     1       2.725  -5.655  23.370  0.00  0.00    -0.176 S 
ATOM     39  H   UNK     1       2.315  -5.057  22.243  0.00  0.00    +0.102 HD
ENDBRANCH  37  38
ENDBRANCH  22  37
ENDBRANCH   3  22
TORSDOF 21
ENDMDL
MODEL 5
REMARK VINA RESULT:      -5.2      1.348      1.672
REMARK  Name = 
REMARK  21 active torsions:
REMARK  status: ('A' for Active; 'I' for Inactive)
REMARK    1  A    between atoms: N_1  and  C_2
REMARK    2  A    between atoms: C_2  and  C_3
REMARK    3  A    between atoms: C_3  and  C_4
REMARK    4  A    between atoms: C_4  and  C_5
REMARK    5  A    between atoms: C_5  and  N_6
REMARK    6  A    between atoms: N_6  and  C_7
REMARK    7  A    between atoms: C_7  and  C_8
REMARK    8  A    between atoms: C_8  and  C_9
REMARK    9  A    between atoms: C_9  and  N_10
REMARK   10  A    between atoms: C_11  and  C_13
REMARK   11  A    between atoms: C_13  and  N_14
REMARK   12  A    between atoms: C_15  and  C_17
REMARK   13  A    between atoms: C_17  and  C_19
REMARK   14  A    between atoms: C_17  and  N_21
REMARK   15  A    between atoms: C_19  and  S_20
REMARK   16  A    between atoms: C_22  and  C_24
REMARK   17  A    between atoms: C_24  and  C_25
REMARK   18  A    between atoms: C_25  and  C_26
REMARK   19  A    between atoms: C_26  and  N_28
REMARK   20  A    between atoms: C_26  and  C_29
REMARK   21  A    between atoms: C_29  and  O_30
REMARK                            x       y       z     vdW  Elec       q    Type
REMARK                         _______ _______ _______ _____ _____    ______ ____
ROOT
ATOM      1  N   UNK     1       7.175  -4.499  26.268  0.00  0.00    -0.305 N 
ATOM      2  H   UNK     1       6.769  -4.303  25.361  0.00  0.00    +0.149 HD
ATOM      3  C   UNK     1       6.672  -5.538  27.029  0.00  0.00    +0.235 C 
ATOM      4  O   UNK     1       7.272  -5.958  28.017  0.00  0.00    -0.274 OA
ENDROOT
BRANCH   1   5
ATOM      5  C   UNK     1       8.522  -4.000  26.502  0.00  0.00    +0.200 C 
BRANCH   5   8
ATOM      6  N   UNK     1       9.561  -2.762  24.661  0.00  0.00    -0.314 N 
ATOM      7  H   UNK     1       9.856  -3.682  24.348  0.00  0.00    +0.149 HD
ATOM      8  C   UNK     1       8.750  -2.674  25.771  0.00  0.00    +0.230 C 
ATOM      9  O   UNK     1       8.174  -1.643  26.112  0.00  0.00    -0.274 OA
BRANCH   6  10
ATOM     10  C   UNK     1       9.854  -1.615  23.819  0.00  0.00    +0.105 C 
BRANCH  10  11
ATOM     11  C   UNK     1       9.301  -1.780  22.403  0.00  0.00    +0.034 C 
BRANCH  11  12
ATOM     12  C   UNK     1       8.207  -0.748  22.123  0.00  0.00    +0.082 C 
BRANCH  12  13
ATOM     13  N   UNK     1       7.573  -0.323  23.375  0.00  0.00    -0.316 NA
ATOM     14  H   UNK     1       6.942  -1.051  23.706  0.00  0.00    +0.122 HD
BRANCH  13  15
ATOM     15  C   UNK     1       6.842   0.932  23.212  0.00  0.00    +0.081 C 
BRANCH  15  16
ATOM     16  C   UNK     1       7.785   2.076  22.813  0.00  0.00    +0.016 C 
BRANCH  16  17
ATOM     17  C   UNK     1       8.891   2.325  23.844  0.00  0.00    +0.016 C 
BRANCH  17  18
ATOM     18  C   UNK     1      10.277   2.227  23.210  0.00  0.00    +0.077 C 
BRANCH  18  19
ATOM     19  N   UNK     1      10.161   2.193  21.757  0.00  0.00    -0.330 NA
ATOM     20  H   UNK     1      10.386   1.259  21.417  0.00  0.00    +0.118 HD
ATOM     21  H   UNK     1       9.196   2.374  21.488  0.00  0.00    +0.118 HD
ENDBRANCH  18  19
ENDBRANCH  17  18
ENDBRANCH  16  17
ENDBRANCH  15  16
ENDBRANCH  13  15
ENDBRANCH  12  13
ENDBRANCH  11  12
ENDBRANCH  10  11
ENDBRANCH   6  10
ENDBRANCH   5   8
ENDBRANCH   1   5
BRANCH   3  22
ATOM     22  C   UNK     1       5.231  -5.977  26.666  0.00  0.00    +0.168 C 
BRANCH  22  23
ATOM     23  N   UNK     1       5.053  -5.583  25.254  0.00  0.00    -0.303 N 
ATOM     24  H   UNK     1       5.414  -4.675  24.988  0.00  0.00    +0.149 HD
ATOM     25  C   UNK     1       4.618  -6.424  24.259  0.00  0.00    +0.214 C 
ATOM     26  O   UNK     1       4.318  -7.599  24.434  0.00  0.00    -0.276 OA
BRANCH  25  27
ATOM     27  C   UNK     1       4.517  -5.792  22.888  0.00  0.00    +0.098 C 
BRANCH  27  28
ATOM     28  C   UNK     1       5.782  -6.033  22.077  0.00  0.00    +0.039 C 
BRANCH  28  29
ATOM     29  C   UNK     1       6.823  -4.913  22.215  0.00  0.00    +0.161 C 
BRANCH  29  30
ATOM     30  N   UNK     1       7.790  -5.186  23.315  0.00  0.00    -0.318 NA
ATOM     31  H   UNK     1       8.427  -5.933  23.025  0.00  0.00    +0.119 HD
ATOM     32  H   UNK     1       8.403  -4.367  23.409  0.00  0.00    +0.119 HD
ENDBRANCH  29  30
BRANCH  29  33
ATOM     33  C   UNK     1       6.076  -3.613  22.549  0.00  0.00    +0.322 C 
ATOM     34  O   UNK     1       6.080  -3.066  23.639  0.00  0.00    -0.249 OA
BRANCH  33  35
ATOM     35  O   UNK     1       5.451  -3.110  21.452  0.00  0.00    -0.480 OA
ATOM     36  H   UNK     1       5.056  -2.246  21.729  0.00  0.00    +0.295 HD
ENDBRANCH  33  35
ENDBRANCH  29  33
ENDBRANCH  28  29
ENDBRANCH  27  28
ENDBRANCH  25  27
ENDBRANCH  22  23
BRANCH  22  37
ATOM     37  C   UNK     1       4.226  -5.335  27.640  0.00  0.00    +0.097 C 
BRANCH  37  38
ATOM     38  S   UNK     1       3.247  -6.559  28.581  0.00  0.00    -0.176 S 
ATOM     39  H   UNK     1       2.240  -6.660  27.701  0.00  0.00    +0.102 HD
ENDBRANCH  37  38
ENDBRANCH  22  37
ENDBRANCH   3  22
TORSDOF 21
ENDMDL
MODEL 6
REMARK VINA RESULT:      -5.2      1.456      2.072
REMARK  Name = 
REMARK  21 active torsions:
REMARK  status: ('A' for Active; 'I' for Inactive)
REMARK    1  A    between atoms: N_1  and  C_2
REMARK    2  A    between atoms: C_2  and  C_3
REMARK    3  A    between atoms: C_3  and  C_4
REMARK    4  A    between atoms: C_4  and  C_5
REMARK    5  A    between atoms: C_5  and  N_6
REMARK    6  A    between atoms: N_6  and  C_7
REMARK    7  A    between atoms: C_7  and  C_8
REMARK    8  A    between atoms: C_8  and  C_9
REMARK    9  A    between atoms: C_9  and  N_10
REMARK   10  A    between atoms: C_11  and  C_13
REMARK   11  A    between atoms: C_13  and  N_14
REMARK   12  A    between atoms: C_15  and  C_17
REMARK   13  A    between atoms: C_17  and  C_19
REMARK   14  A    between atoms: C_17  and  N_21
REMARK   15  A    between atoms: C_19  and  S_20
REMARK   16  A    between atoms: C_22  and  C_24
REMARK   17  A    between atoms: C_24  and  C_25
REMARK   18  A    between atoms: C_25  and  C_26
REMARK   19  A    between atoms: C_26  and  N_28
REMARK   20  A    between atoms: C_26  and  C_29
REMARK   21  A    between atoms: C_29  and  O_30
REMARK                            x       y       z     vdW  Elec       q    Type
REMARK                         _______ _______ _______ _____ _____    ______ ____
ROOT
ATOM      1  N   UNK     1       6.931  -5.157  26.325  0.00  0.00    -0.305 N 
ATOM      2  H   UNK     1       6.617  -5.203  25.363  0.00  0.00    +0.149 HD
ATOM      3  C   UNK     1       6.378  -6.010  27.262  0.00  0.00    +0.235 C 
ATOM      4  O   UNK     1       6.883  -6.152  28.375  0.00  0.00    -0.274 OA
ENDROOT
BRANCH   1   5
ATOM      5  C   UNK     1       8.232  -4.549  26.559  0.00  0.00    +0.200 C 
BRANCH   5   8
ATOM      6  N   UNK     1       9.144  -2.933  24.959  0.00  0.00    -0.314 N 
ATOM      7  H   UNK     1       8.903  -2.250  25.672  0.00  0.00    +0.149 HD
ATOM      8  C   UNK     1       8.952  -4.268  25.237  0.00  0.00    +0.230 C 
ATOM      9  O   UNK     1       9.394  -5.179  24.539  0.00  0.00    -0.274 OA
BRANCH   6  10
ATOM     10  C   UNK     1       9.846  -2.478  23.772  0.00  0.00    +0.105 C 
BRANCH  10  11
ATOM     11  C   UNK     1      10.211  -0.995  23.847  0.00  0.00    +0.034 C 
BRANCH  11  12
ATOM     12  C   UNK     1       9.635  -0.356  25.111  0.00  0.00    +0.082 C 
BRANCH  12  13
ATOM     13  N   UNK     1       9.602   1.104  24.976  0.00  0.00    -0.316 NA
ATOM     14  H   UNK     1       8.698   1.394  24.606  0.00  0.00    +0.122 HD
BRANCH  13  15
ATOM     15  C   UNK     1      10.673   1.593  24.112  0.00  0.00    +0.081 C 
BRANCH  15  16
ATOM     16  C   UNK     1      10.128   2.540  23.035  0.00  0.00    +0.016 C 
BRANCH  16  17
ATOM     17  C   UNK     1       9.536   1.799  21.831  0.00  0.00    +0.016 C 
BRANCH  17  18
ATOM     18  C   UNK     1       8.019   1.959  21.768  0.00  0.00    +0.077 C 
BRANCH  18  19
ATOM     19  N   UNK     1       7.373   0.926  22.569  0.00  0.00    -0.330 NA
ATOM     20  H   UNK     1       8.027   0.575  23.269  0.00  0.00    +0.118 HD
ATOM     21  H   UNK     1       6.591   1.330  23.081  0.00  0.00    +0.118 HD
ENDBRANCH  18  19
ENDBRANCH  17  18
ENDBRANCH  16  17
ENDBRANCH  15  16
ENDBRANCH  13  15
ENDBRANCH  12  13
ENDBRANCH  11  12
ENDBRANCH  10  11
ENDBRANCH   6  10
ENDBRANCH   5   8
ENDBRANCH   1   5
BRANCH   3  22
ATOM     22  C   UNK     1       4.996  -6.596  26.881  0.00  0.00    +0.168 C 
BRANCH  22  23
ATOM     23  N   UNK     1       4.712  -6.065  25.532  0.00  0.00    -0.303 N 
ATOM     24  H   UNK     1       5.138  -5.176  25.296  0.00  0.00    +0.149 HD
ATOM     25  C   UNK     1       4.088  -6.770  24.533  0.00  0.00    +0.214 C 
ATOM     26  O   UNK     1       3.684  -7.921  24.651  0.00  0.00    -0.276 OA
BRANCH  25  27
ATOM     27  C   UNK     1       3.910  -6.014  23.234  0.00  0.00    +0.098 C 
BRANCH  27  28
ATOM     28  C   UNK     1       4.049  -4.514  23.447  0.00  0.00    +0.039 C 
BRANCH  28  29
ATOM     29  C   UNK     1       5.388  -3.944  22.958  0.00  0.00    +0.161 C 
BRANCH  29  30
ATOM     30  N   UNK     1       6.477  -4.959  23.015  0.00  0.00    -0.318 NA
ATOM     31  H   UNK     1       6.558  -5.312  23.972  0.00  0.00    +0.119 HD
ATOM     32  H   UNK     1       6.174  -5.780  22.478  0.00  0.00    +0.119 HD
ENDBRANCH  29  30
BRANCH  29  33
ATOM     33  C   UNK     1       5.772  -2.781  23.884  0.00  0.00    +0.322 C 
ATOM     34  O   UNK     1       6.412  -1.800  23.545  0.00  0.00    -0.249 OA
BRANCH  33  35
ATOM     35  O   UNK     1       5.255  -2.953  25.129  0.00  0.00    -0.480 OA
ATOM     36  H   UNK     1       5.013  -3.909  25.201  0.00  0.00    +0.295 HD
ENDBRANCH  33  35
ENDBRANCH  29  33
ENDBRANCH  28  29
ENDBRANCH  27  28
ENDBRANCH  25  27
ENDBRANCH  22  23
BRANCH  22  37
ATOM     37  C   UNK     1       3.953  -6.216  27.948  0.00  0.00    +0.097 C 
BRANCH  37  38
ATOM     38  S   UNK     1       3.657  -4.416  28.062  0.00  0.00    -0.176 S 
ATOM     39  H   UNK     1       4.219  -4.242  29.266  0.00  0.00    +0.102 HD
ENDBRANCH  37  38
ENDBRANCH  22  37
ENDBRANCH   3  22
TORSDOF 21
ENDMDL
MODEL 7
REMARK VINA RESULT:      -5.2      1.373      2.125
REMARK  Name = 
REMARK  21 active torsions:
REMARK  status: ('A' for Active; 'I' for Inactive)
REMARK    1  A    between atoms: N_1  and  C_2
REMARK    2  A    between atoms: C_2  and  C_3
REMARK    3  A    between atoms: C_3  and  C_4
REMARK    4  A    between atoms: C_4  and  C_5
REMARK    5  A    between atoms: C_5  and  N_6
REMARK    6  A    between atoms: N_6  and  C_7
REMARK    7  A    between atoms: C_7  and  C_8
REMARK    8  A    between atoms: C_8  and  C_9
REMARK    9  A    between atoms: C_9  and  N_10
REMARK   10  A    between atoms: C_11  and  C_13
REMARK   11  A    between atoms: C_13  and  N_14
REMARK   12  A    between atoms: C_15  and  C_17
REMARK   13  A    between atoms: C_17  and  C_19
REMARK   14  A    between atoms: C_17  and  N_21
REMARK   15  A    between atoms: C_19  and  S_20
REMARK   16  A    between atoms: C_22  and  C_24
REMARK   17  A    between atoms: C_24  and  C_25
REMARK   18  A    between atoms: C_25  and  C_26
REMARK   19  A    between atoms: C_26  and  N_28
REMARK   20  A    between atoms: C_26  and  C_29
REMARK   21  A    between atoms: C_29  and  O_30
REMARK                            x       y       z     vdW  Elec       q    Type
REMARK                         _______ _______ _______ _____ _____    ______ ____
ROOT
ATOM      1  N   UNK     1       7.274  -4.515  26.281  0.00  0.00    -0.305 N 
ATOM      2  H   UNK     1       6.921  -4.346  25.347  0.00  0.00    +0.149 HD
ATOM      3  C   UNK     1       6.798  -5.592  27.005  0.00  0.00    +0.235 C 
ATOM      4  O   UNK     1       7.356  -5.971  28.033  0.00  0.00    -0.274 OA
ENDROOT
BRANCH   1   5
ATOM      5  C   UNK     1       8.559  -3.916  26.612  0.00  0.00    +0.200 C 
BRANCH   5   8
ATOM      6  N   UNK     1       8.653  -1.470  26.524  0.00  0.00    -0.314 N 
ATOM      7  H   UNK     1       8.519  -1.534  27.529  0.00  0.00    +0.149 HD
ATOM      8  C   UNK     1       8.791  -2.636  25.805  0.00  0.00    +0.230 C 
ATOM      9  O   UNK     1       9.159  -2.672  24.631  0.00  0.00    -0.274 OA
BRANCH   6  10
ATOM     10  C   UNK     1       8.878  -0.161  25.936  0.00  0.00    +0.105 C 
BRANCH  10  11
ATOM     11  C   UNK     1       7.625   0.716  25.978  0.00  0.00    +0.034 C 
BRANCH  11  12
ATOM     12  C   UNK     1       7.690   1.809  24.910  0.00  0.00    +0.082 C 
BRANCH  12  13
ATOM     13  N   UNK     1       8.992   2.482  24.946  0.00  0.00    -0.316 NA
ATOM     14  H   UNK     1       8.921   3.339  25.492  0.00  0.00    +0.122 HD
BRANCH  13  15
ATOM     15  C   UNK     1       9.481   2.787  23.603  0.00  0.00    +0.081 C 
BRANCH  15  16
ATOM     16  C   UNK     1      10.178   1.570  22.977  0.00  0.00    +0.016 C 
BRANCH  16  17
ATOM     17  C   UNK     1       9.533   1.126  21.660  0.00  0.00    +0.016 C 
BRANCH  17  18
ATOM     18  C   UNK     1       9.399  -0.393  21.588  0.00  0.00    +0.077 C 
BRANCH  18  19
ATOM     19  N   UNK     1       8.315  -0.840  22.456  0.00  0.00    -0.330 NA
ATOM     20  H   UNK     1       7.584  -1.278  21.896  0.00  0.00    +0.118 HD
ATOM     21  H   UNK     1       8.660  -1.557  23.091  0.00  0.00    +0.118 HD
ENDBRANCH  18  19
ENDBRANCH  17  18
ENDBRANCH  16  17
ENDBRANCH  15  16
ENDBRANCH  13  15
ENDBRANCH  12  13
ENDBRANCH  11  12
ENDBRANCH  10  11
ENDBRANCH   6  10
ENDBRANCH   5   8
ENDBRANCH   1   5
BRANCH   3  22
ATOM     22  C   UNK     1       5.425  -6.138  26.540  0.00  0.00    +0.168 C 
BRANCH  22  23
ATOM     23  N   UNK     1       5.322  -5.758  25.116  0.00  0.00    -0.303 N 
ATOM     24  H   UNK     1       5.843  -4.938  24.827  0.00  0.00    +0.149 HD
ATOM     25  C   UNK     1       4.743  -6.534  24.142  0.00  0.00    +0.214 C 
ATOM     26  O   UNK     1       4.235  -7.630  24.347  0.00  0.00    -0.276 OA
BRANCH  25  27
ATOM     27  C   UNK     1       4.760  -5.934  22.753  0.00  0.00    +0.098 C 
BRANCH  27  28
ATOM     28  C   UNK     1       6.069  -6.236  22.039  0.00  0.00    +0.039 C 
BRANCH  28  29
ATOM     29  C   UNK     1       7.091  -5.094  22.118  0.00  0.00    +0.161 C 
BRANCH  29  30
ATOM     30  N   UNK     1       7.976  -5.222  23.310  0.00  0.00    -0.318 NA
ATOM     31  H   UNK     1       7.959  -6.191  23.639  0.00  0.00    +0.119 HD
ATOM     32  H   UNK     1       8.946  -5.087  23.001  0.00  0.00    +0.119 HD
ENDBRANCH  29  30
BRANCH  29  33
ATOM     33  C   UNK     1       6.315  -3.774  22.242  0.00  0.00    +0.322 C 
ATOM     34  O   UNK     1       5.631  -3.281  21.360  0.00  0.00    -0.249 OA
BRANCH  33  35
ATOM     35  O   UNK     1       6.437  -3.247  23.488  0.00  0.00    -0.480 OA
ATOM     36  H   UNK     1       5.517  -3.085  23.813  0.00  0.00    +0.295 HD
ENDBRANCH  33  35
ENDBRANCH  29  33
ENDBRANCH  28  29
ENDBRANCH  27  28
ENDBRANCH  25  27
ENDBRANCH  22  23
BRANCH  22  37
ATOM     37  C   UNK     1       4.306  -5.572  27.433  0.00  0.00    +0.097 C 
BRANCH  37  38
ATOM     38  S   UNK     1       3.865  -6.673  28.825  0.00  0.00    -0.176 S 
ATOM     39  H   UNK     1       3.004  -7.444  28.146  0.00  0.00    +0.102 HD
ENDBRANCH  37  38
ENDBRANCH  22  37
ENDBRANCH   3  22
TORSDOF 21
ENDMDL
MODEL 8
REMARK VINA RESULT:      -5.0      2.061      3.548
REMARK  Name = 
REMARK  21 active torsions:
REMARK  status: ('A' for Active; 'I' for Inactive)
REMARK    1  A    between atoms: N_1  and  C_2
REMARK    2  A    between atoms: C_2  and  C_3
REMARK    3  A    between atoms: C_3  and  C_4
REMARK    4  A    between atoms: C_4  and  C_5
REMARK    5  A    between atoms: C_5  and  N_6
REMARK    6  A    between atoms: N_6  and  C_7
REMARK    7  A    between atoms: C_7  and  C_8
REMARK    8  A    between atoms: C_8  and  C_9
REMARK    9  A    between atoms: C_9  and  N_10
REMARK   10  A    between atoms: C_11  and  C_13
REMARK   11  A    between atoms: C_13  and  N_14
REMARK   12  A    between atoms: C_15  and  C_17
REMARK   13  A    between atoms: C_17  and  C_19
REMARK   14  A    between atoms: C_17  and  N_21
REMARK   15  A    between atoms: C_19  and  S_20
REMARK   16  A    between atoms: C_22  and  C_24
REMARK   17  A    between atoms: C_24  and  C_25
REMARK   18  A    between atoms: C_25  and  C_26
REMARK   19  A    between atoms: C_26  and  N_28
REMARK   20  A    between atoms: C_26  and  C_29
REMARK   21  A    between atoms: C_29  and  O_30
REMARK                            x       y       z     vdW  Elec       q    Type
REMARK                         _______ _______ _______ _____ _____    ______ ____
ROOT
ATOM      1  N   UNK     1       6.690  -2.070  25.162  0.00  0.00    -0.305 N 
ATOM      2  H   UNK     1       7.381  -2.355  24.478  0.00  0.00    +0.149 HD
ATOM      3  C   UNK     1       6.605  -2.745  26.365  0.00  0.00    +0.235 C 
ATOM      4  O   UNK     1       5.953  -2.297  27.307  0.00  0.00    -0.274 OA
ENDROOT
BRANCH   1   5
ATOM      5  C   UNK     1       6.167  -0.717  25.038  0.00  0.00    +0.200 C 
BRANCH   5   8
ATOM      6  N   UNK     1       6.795   1.252  23.722  0.00  0.00    -0.314 N 
ATOM      7  H   UNK     1       6.810   1.719  24.624  0.00  0.00    +0.149 HD
ATOM      8  C   UNK     1       6.551  -0.104  23.689  0.00  0.00    +0.230 C 
ATOM      9  O   UNK     1       6.711  -0.798  22.687  0.00  0.00    -0.274 OA
BRANCH   6  10
ATOM     10  C   UNK     1       7.212   1.997  22.547  0.00  0.00    +0.105 C 
BRANCH  10  11
ATOM     11  C   UNK     1       8.726   2.211  22.505  0.00  0.00    +0.034 C 
BRANCH  11  12
ATOM     12  C   UNK     1       9.219   2.866  23.795  0.00  0.00    +0.082 C 
BRANCH  12  13
ATOM     13  N   UNK     1       9.540   1.845  24.797  0.00  0.00    -0.316 NA
ATOM     14  H   UNK     1       9.993   2.280  25.599  0.00  0.00    +0.122 HD
BRANCH  13  15
ATOM     15  C   UNK     1      10.400   0.799  24.247  0.00  0.00    +0.081 C 
BRANCH  15  16
ATOM     16  C   UNK     1      10.017  -0.581  24.800  0.00  0.00    +0.016 C 
BRANCH  16  17
ATOM     17  C   UNK     1       9.933  -1.657  23.712  0.00  0.00    +0.016 C 
BRANCH  17  18
ATOM     18  C   UNK     1      10.438  -1.134  22.369  0.00  0.00    +0.077 C 
BRANCH  18  19
ATOM     19  N   UNK     1       9.383  -1.233  21.367  0.00  0.00    -0.330 NA
ATOM     20  H   UNK     1       9.563  -2.029  20.756  0.00  0.00    +0.118 HD
ATOM     21  H   UNK     1       8.493  -1.416  21.825  0.00  0.00    +0.118 HD
ENDBRANCH  18  19
ENDBRANCH  17  18
ENDBRANCH  16  17
ENDBRANCH  15  16
ENDBRANCH  13  15
ENDBRANCH  12  13
ENDBRANCH  11  12
ENDBRANCH  10  11
ENDBRANCH   6  10
ENDBRANCH   5   8
ENDBRANCH   1   5
BRANCH   3  22
ATOM     22  C   UNK     1       7.211  -4.171  26.361  0.00  0.00    +0.168 C 
BRANCH  22  23
ATOM     23  N   UNK     1       7.010  -4.670  24.985  0.00  0.00    -0.303 N 
ATOM     24  H   UNK     1       6.082  -4.558  24.594  0.00  0.00    +0.149 HD
ATOM     25  C   UNK     1       8.019  -5.085  24.152  0.00  0.00    +0.214 C 
ATOM     26  O   UNK     1       9.205  -5.098  24.460  0.00  0.00    -0.276 OA
BRANCH  25  27
ATOM     27  C   UNK     1       7.566  -5.553  22.785  0.00  0.00    +0.098 C 
BRANCH  27  28
ATOM     28  C   UNK     1       6.108  -5.986  22.808  0.00  0.00    +0.039 C 
BRANCH  28  29
ATOM     29  C   UNK     1       5.153  -4.963  22.176  0.00  0.00    +0.161 C 
BRANCH  29  30
ATOM     30  N   UNK     1       5.856  -3.705  21.800  0.00  0.00    -0.318 NA
ATOM     31  H   UNK     1       5.211  -3.100  21.285  0.00  0.00    +0.119 HD
ATOM     32  H   UNK     1       6.046  -3.178  22.661  0.00  0.00    +0.119 HD
ENDBRANCH  29  30
BRANCH  29  33
ATOM     33  C   UNK     1       4.079  -4.615  23.218  0.00  0.00    +0.322 C 
ATOM     34  O   UNK     1       4.229  -3.832  24.141  0.00  0.00    -0.249 OA
BRANCH  33  35
ATOM     35  O   UNK     1       2.908  -5.248  22.947  0.00  0.00    -0.480 OA
ATOM     36  H   UNK     1       3.096  -5.875  22.205  0.00  0.00    +0.295 HD
ENDBRANCH  33  35
ENDBRANCH  29  33
ENDBRANCH  28  29
ENDBRANCH  27  28
ENDBRANCH  25  27
ENDBRANCH  22  23
BRANCH  22  37
ATOM     37  C   UNK     1       6.545  -5.027  27.454  0.00  0.00    +0.097 C 
BRANCH  37  38
ATOM     38  S   UNK     1       5.266  -6.161  26.805  0.00  0.00    -0.176 S 
ATOM     39  H   UNK     1       5.594  -7.215  27.566  0.00  0.00    +0.102 HD
ENDBRANCH  37  38
ENDBRANCH  22  37
ENDBRANCH   3  22
TORSDOF 21
ENDMDL
MODEL 9
REMARK VINA RESULT:      -5.0      3.770      6.171
REMARK  Name = 
REMARK  21 active torsions:
REMARK  status: ('A' for Active; 'I' for Inactive)
REMARK    1  A    between atoms: N_1  and  C_2
REMARK    2  A    between atoms: C_2  and  C_3
REMARK    3  A    between atoms: C_3  and  C_4
REMARK    4  A    between atoms: C_4  and  C_5
REMARK    5  A    between atoms: C_5  and  N_6
REMARK    6  A    between atoms: N_6  and  C_7
REMARK    7  A    between atoms: C_7  and  C_8
REMARK    8  A    between atoms: C_8  and  C_9
REMARK    9  A    between atoms: C_9  and  N_10
REMARK   10  A    between atoms: C_11  and  C_13
REMARK   11  A    between atoms: C_13  and  N_14
REMARK   12  A    between atoms: C_15  and  C_17
REMARK   13  A    between atoms: C_17  and  C_19
REMARK   14  A    between atoms: C_17  and  N_21
REMARK   15  A    between atoms: C_19  and  S_20
REMARK   16  A    between atoms: C_22  and  C_24
REMARK   17  A    between atoms: C_24  and  C_25
REMARK   18  A    between atoms: C_25  and  C_26
REMARK   19  A    between atoms: C_26  and  N_28
REMARK   20  A    between atoms: C_26  and  C_29
REMARK   21  A    between atoms: C_29  and  O_30
REMARK                            x       y       z     vdW  Elec       q    Type
REMARK                         _______ _______ _______ _____ _____    ______ ____
ROOT
ATOM      1  N   UNK     1       5.947  -0.236  24.076  0.00  0.00    -0.305 N 
ATOM      2  H   UNK     1       6.272   0.029  23.154  0.00  0.00    +0.149 HD
ATOM      3  C   UNK     1       6.256  -1.488  24.573  0.00  0.00    +0.235 C 
ATOM      4  O   UNK     1       6.088  -1.766  25.759  0.00  0.00    -0.274 OA
ENDROOT
BRANCH   1   5
ATOM      5  C   UNK     1       5.593   0.849  24.980  0.00  0.00    +0.200 C 
BRANCH   5   8
ATOM      6  N   UNK     1       6.048   2.686  23.424  0.00  0.00    -0.314 N 
ATOM      7  H   UNK     1       6.958   2.245  23.335  0.00  0.00    +0.149 HD
ATOM      8  C   UNK     1       5.093   2.069  24.202  0.00  0.00    +0.230 C 
ATOM      9  O   UNK     1       3.908   2.400  24.215  0.00  0.00    -0.274 OA
BRANCH   6  10
ATOM     10  C   UNK     1       5.746   3.832  22.585  0.00  0.00    +0.105 C 
BRANCH  10  11
ATOM     11  C   UNK     1       6.266   5.140  23.181  0.00  0.00    +0.034 C 
BRANCH  11  12
ATOM     12  C   UNK     1       7.373   5.734  22.310  0.00  0.00    +0.082 C 
BRANCH  12  13
ATOM     13  N   UNK     1       8.686   5.259  22.759  0.00  0.00    -0.316 NA
ATOM     14  H   UNK     1       8.569   4.458  23.378  0.00  0.00    +0.122 HD
BRANCH  13  15
ATOM     15  C   UNK     1       9.438   6.310  23.441  0.00  0.00    +0.081 C 
BRANCH  15  16
ATOM     16  C   UNK     1      10.542   5.716  24.327  0.00  0.00    +0.016 C 
BRANCH  16  17
ATOM     17  C   UNK     1      11.948   6.141  23.893  0.00  0.00    +0.016 C 
BRANCH  17  18
ATOM     18  C   UNK     1      12.745   4.960  23.343  0.00  0.00    +0.077 C 
BRANCH  18  19
ATOM     19  N   UNK     1      13.905   5.441  22.602  0.00  0.00    -0.330 NA
ATOM     20  H   UNK     1      14.708   5.508  23.226  0.00  0.00    +0.118 HD
ATOM     21  H   UNK     1      14.154   4.765  21.883  0.00  0.00    +0.118 HD
ENDBRANCH  18  19
ENDBRANCH  17  18
ENDBRANCH  16  17
ENDBRANCH  15  16
ENDBRANCH  13  15
ENDBRANCH  12  13
ENDBRANCH  11  12
ENDBRANCH  10  11
ENDBRANCH   6  10
ENDBRANCH   5   8
ENDBRANCH   1   5
BRANCH   3  22
ATOM     22  C   UNK     1       6.626  -2.545  23.502  0.00  0.00    +0.168 C 
BRANCH  22  23
ATOM     23  N   UNK     1       7.536  -1.847  22.571  0.00  0.00    -0.303 N 
ATOM     24  H   UNK     1       7.102  -1.264  21.866  0.00  0.00    +0.149 HD
ATOM     25  C   UNK     1       8.900  -1.782  22.717  0.00  0.00    +0.214 C 
ATOM     26  O   UNK     1       9.520  -2.306  23.635  0.00  0.00    -0.276 OA
BRANCH  25  27
ATOM     27  C   UNK     1       9.621  -1.007  21.636  0.00  0.00    +0.098 C 
BRANCH  27  28
ATOM     28  C   UNK     1      10.156   0.313  22.170  0.00  0.00    +0.039 C 
BRANCH  28  29
ATOM     29  C   UNK     1       9.056   1.292  22.605  0.00  0.00    +0.161 C 
BRANCH  29  30
ATOM     30  N   UNK     1       8.967   2.467  21.694  0.00  0.00    -0.318 NA
ATOM     31  H   UNK     1       8.978   2.142  20.724  0.00  0.00    +0.119 HD
ATOM     32  H   UNK     1       8.033   2.881  21.800  0.00  0.00    +0.119 HD
ENDBRANCH  29  30
BRANCH  29  33
ATOM     33  C   UNK     1       9.409   1.804  24.009  0.00  0.00    +0.322 C 
ATOM     34  O   UNK     1       8.806   2.683  24.604  0.00  0.00    -0.249 OA
BRANCH  33  35
ATOM     35  O   UNK     1      10.450   1.110  24.539  0.00  0.00    -0.480 OA
ATOM     36  H   UNK     1      11.262   1.427  24.071  0.00  0.00    +0.295 HD
ENDBRANCH  33  35
ENDBRANCH  29  33
ENDBRANCH  28  29
ENDBRANCH  27  28
ENDBRANCH  25  27
ENDBRANCH  22  23
BRANCH  22  37
ATOM     37  C   UNK     1       5.347  -3.099  22.849  0.00  0.00    +0.097 C 
BRANCH  37  38
ATOM     38  S   UNK     1       5.225  -4.922  22.929  0.00  0.00    -0.176 S 
ATOM     39  H   UNK     1       4.348  -5.063  21.925  0.00  0.00    +0.102 HD
ENDBRANCH  37  38
ENDBRANCH  22  37
ENDBRANCH   3  22
TORSDOF 21
ENDMDL
