MODEL 1
REMARK VINA RESULT:      -7.3      0.000      0.000
REMARK  Name = 
REMARK  7 active torsions:
REMARK  status: ('A' for Active; 'I' for Inactive)
REMARK    1  A    between atoms: C_1  and  C_2
REMARK    2  A    between atoms: C_2  and  C_3
REMARK    3  A    between atoms: C_3  and  N_4
REMARK    4  A    between atoms: C_5  and  C_30
REMARK    5  A    between atoms: C_7  and  C_22
REMARK    6  A    between atoms: C_8  and  C_9
REMARK    7  A    between atoms: N_14  and  C_15
REMARK                            x       y       z     vdW  Elec       q    Type
REMARK                         _______ _______ _______ _____ _____    ______ ____
ROOT
ATOM      1  N   UNL     1       5.138  -5.482  23.531  0.00  0.00    -0.326 N 
ATOM      2  C   UNL     1       5.733  -4.569  24.407  0.00  0.00    +0.095 A 
ATOM      3  C   UNL     1       4.654  -4.018  25.093  0.00  0.00    +0.099 A 
ATOM      4  N   UNL     1       3.472  -4.550  24.666  0.00  0.00    -0.231 NA
ATOM      5  C   UNL     1       3.763  -5.445  23.747  0.00  0.00    +0.114 A 
ENDROOT
BRANCH   2   6
ATOM      6  C   UNL     1       7.155  -4.217  24.503  0.00  0.00    +0.094 A 
ATOM      7  N   UNL     1       7.445  -2.987  24.018  0.00  0.00    -0.213 NA
ATOM      8  C   UNL     1       8.705  -2.555  24.070  0.00  0.00    +0.216 A 
ATOM      9  N   UNL     1       8.911  -1.253  23.700  0.00  0.00    -0.311 N 
ATOM     10  H   UNL     1       8.155  -0.639  23.968  0.00  0.00    +0.149 HD
ATOM     11  N   UNL     1       9.714  -3.305  24.519  0.00  0.00    -0.223 NA
ATOM     12  C   UNL     1       9.398  -4.499  25.047  0.00  0.00    +0.116 A 
ATOM     13  C   UNL     1       8.119  -4.997  25.096  0.00  0.00    +0.050 A 
BRANCH   9  14
ATOM     14  C   UNL     1      10.223  -0.731  23.383  0.00  0.00    +0.073 C 
ATOM     15  C   UNL     1      10.701   0.361  24.348  0.00  0.00    +0.022 C 
ATOM     16  C   UNL     1      10.021   1.712  24.147  0.00  0.00    +0.002 C 
ATOM     17  C   UNL     1      10.090   2.170  22.695  0.00  0.00    +0.000 C 
ATOM     18  C   UNL     1       9.510   1.119  21.758  0.00  0.00    +0.002 C 
ATOM     19  C   UNL     1      10.209  -0.231  21.928  0.00  0.00    +0.022 C 
ENDBRANCH   9  14
ENDBRANCH   2   6
BRANCH   3  20
ATOM     20  C   UNL     1       4.678  -3.002  26.138  0.00  0.00    +0.004 A 
ATOM     21  C   UNL     1       4.822  -1.644  25.833  0.00  0.00    +0.031 A 
ATOM     22  C   UNL     1       4.746  -0.673  26.833  0.00  0.00    +0.060 A 
ATOM     23 CL   UNL     1       4.806   0.983  26.342  0.00  0.00    -0.082 Cl
ATOM     24  C   UNL     1       4.598  -1.059  28.167  0.00  0.00    +0.059 A 
ATOM     25 CL   UNL     1       4.509   0.088  29.454  0.00  0.00    -0.082 Cl
ATOM     26  C   UNL     1       4.519  -2.416  28.491  0.00  0.00    +0.022 A 
ATOM     27  C   UNL     1       4.552  -3.382  27.480  0.00  0.00    +0.011 A 
ENDBRANCH   3  20
BRANCH   5  28
ATOM     28  C   UNL     1       2.716  -6.317  23.079  0.00  0.00    +0.058 C 
ATOM     29  C   UNL     1       1.360  -5.599  22.953  0.00  0.00    +0.026 C 
ATOM     30  C   UNL     1       0.601  -5.503  24.278  0.00  0.00    +0.081 C 
ATOM     31  N   UNL     1       0.454  -6.810  24.924  0.00  0.00    -0.316 NA
ATOM     32  H   UNL     1       0.003  -6.667  25.828  0.00  0.00    +0.122 HD
ATOM     33  C   UNL     1       1.756  -7.439  25.151  0.00  0.00    +0.081 C 
ATOM     34  C   UNL     1       2.518  -7.636  23.839  0.00  0.00    +0.026 C 
ENDBRANCH   5  28
BRANCH   1  35
ATOM     35  C   UNL     1       5.812  -6.391  22.616  0.00  0.00    +0.123 C 
BRANCH  35  37
ATOM     36  C   UNL     1       6.051  -4.389  21.039  0.00  0.00    +0.005 C 
ATOM     37  C   UNL     1       6.052  -5.900  21.184  0.00  0.00    +0.018 C 
ENDBRANCH  35  37
ENDBRANCH   1  35
TORSDOF 6
ENDMDL
MODEL 2
REMARK VINA RESULT:      -7.1      3.252      5.677
REMARK  Name = 
REMARK  7 active torsions:
REMARK  status: ('A' for Active; 'I' for Inactive)
REMARK    1  A    between atoms: C_1  and  C_2
REMARK    2  A    between atoms: C_2  and  C_3
REMARK    3  A    between atoms: C_3  and  N_4
REMARK    4  A    between atoms: C_5  and  C_30
REMARK    5  A    between atoms: C_7  and  C_22
REMARK    6  A    between atoms: C_8  and  C_9
REMARK    7  A    between atoms: N_14  and  C_15
REMARK                            x       y       z     vdW  Elec       q    Type
REMARK                         _______ _______ _______ _____ _____    ______ ____
ROOT
ATOM      1  N   UNL     1       8.279  -1.593  24.306  0.00  0.00    -0.326 N 
ATOM      2  C   UNL     1       7.731  -0.408  24.809  0.00  0.00    +0.095 A 
ATOM      3  C   UNL     1       7.416  -0.724  26.128  0.00  0.00    +0.099 A 
ATOM      4  N   UNL     1       7.740  -2.017  26.418  0.00  0.00    -0.231 NA
ATOM      5  C   UNL     1       8.280  -2.531  25.334  0.00  0.00    +0.114 A 
ENDROOT
BRANCH   2   6
ATOM      6  C   UNL     1       7.470   0.838  24.079  0.00  0.00    +0.094 A 
ATOM      7  N   UNL     1       8.303   1.851  24.416  0.00  0.00    -0.213 NA
ATOM      8  C   UNL     1       8.169   3.027  23.801  0.00  0.00    +0.216 A 
ATOM      9  N   UNL     1       9.128   3.963  24.076  0.00  0.00    -0.311 N 
ATOM     10  H   UNL     1      10.046   3.565  24.209  0.00  0.00    +0.149 HD
ATOM     11  N   UNL     1       7.204   3.277  22.911  0.00  0.00    -0.223 NA
ATOM     12  C   UNL     1       6.425   2.245  22.550  0.00  0.00    +0.116 A 
ATOM     13  C   UNL     1       6.535   0.983  23.082  0.00  0.00    +0.050 A 
BRANCH   9  14
ATOM     14  C   UNL     1       8.957   5.367  23.769  0.00  0.00    +0.073 C 
ATOM     15  C   UNL     1      10.277   6.102  23.501  0.00  0.00    +0.022 C 
ATOM     16  C   UNL     1      11.096   6.389  24.756  0.00  0.00    +0.002 C 
ATOM     17  C   UNL     1      10.266   7.087  25.826  0.00  0.00    +0.000 C 
ATOM     18  C   UNL     1       9.014   6.288  26.160  0.00  0.00    +0.002 C 
ATOM     19  C   UNL     1       8.168   6.025  24.914  0.00  0.00    +0.022 C 
ENDBRANCH   9  14
ENDBRANCH   2   6
BRANCH   3  20
ATOM     20  C   UNL     1       6.813   0.136  27.138  0.00  0.00    +0.004 A 
ATOM     21  C   UNL     1       7.543   0.590  28.242  0.00  0.00    +0.031 A 
ATOM     22  C   UNL     1       6.985   1.491  29.150  0.00  0.00    +0.060 A 
ATOM     23 CL   UNL     1       8.007   2.094  30.406  0.00  0.00    -0.082 Cl
ATOM     24  C   UNL     1       5.655   1.892  29.003  0.00  0.00    +0.059 A 
ATOM     25 CL   UNL     1       4.898   2.994  30.096  0.00  0.00    -0.082 Cl
ATOM     26  C   UNL     1       4.894   1.394  27.941  0.00  0.00    +0.022 A 
ATOM     27  C   UNL     1       5.474   0.525  27.010  0.00  0.00    +0.011 A 
ENDBRANCH   3  20
BRANCH   5  28
ATOM     28  C   UNL     1       8.847  -3.938  25.278  0.00  0.00    +0.058 C 
ATOM     29  C   UNL     1       8.073  -4.834  24.294  0.00  0.00    +0.026 C 
ATOM     30  C   UNL     1       6.709  -5.280  24.825  0.00  0.00    +0.081 C 
ATOM     31  N   UNL     1       6.812  -5.905  26.147  0.00  0.00    -0.316 NA
ATOM     32  H   UNL     1       5.867  -6.116  26.470  0.00  0.00    +0.122 HD
ATOM     33  C   UNL     1       7.441  -5.003  27.112  0.00  0.00    +0.081 C 
ATOM     34  C   UNL     1       8.846  -4.597  26.665  0.00  0.00    +0.026 C 
ENDBRANCH   5  28
BRANCH   1  35
ATOM     35  C   UNL     1       8.843  -1.808  22.982  0.00  0.00    +0.123 C 
BRANCH  35  37
ATOM     36  C   UNL     1       9.736   0.089  21.515  0.00  0.00    +0.005 C 
ATOM     37  C   UNL     1      10.044  -0.946  22.580  0.00  0.00    +0.018 C 
ENDBRANCH  35  37
ENDBRANCH   1  35
TORSDOF 6
ENDMDL
MODEL 3
REMARK VINA RESULT:      -7.0      2.077      7.414
REMARK  Name = 
REMARK  7 active torsions:
REMARK  status: ('A' for Active; 'I' for Inactive)
REMARK    1  A    between atoms: C_1  and  C_2
REMARK    2  A    between atoms: C_2  and  C_3
REMARK    3  A    between atoms: C_3  and  N_4
REMARK    4  A    between atoms: C_5  and  C_30
REMARK    5  A    between atoms: C_7  and  C_22
REMARK    6  A    between atoms: C_8  and  C_9
REMARK    7  A    between atoms: N_14  and  C_15
REMARK                            x       y       z     vdW  Elec       q    Type
REMARK                         _______ _______ _______ _____ _____    ______ ____
ROOT
ATOM      1  N   UNL     1       9.129  -0.821  24.237  0.00  0.00    -0.326 N 
ATOM      2  C   UNL     1       8.196  -1.180  25.216  0.00  0.00    +0.095 A 
ATOM      3  C   UNL     1       7.784   0.041  25.744  0.00  0.00    +0.099 A 
ATOM      4  N   UNL     1       8.422   1.083  25.137  0.00  0.00    -0.231 NA
ATOM      5  C   UNL     1       9.210   0.569  24.217  0.00  0.00    +0.114 A 
ENDROOT
BRANCH   2   6
ATOM      6  C   UNL     1       7.822  -2.534  25.641  0.00  0.00    +0.094 A 
ATOM      7  N   UNL     1       6.671  -2.981  25.086  0.00  0.00    -0.213 NA
ATOM      8  C   UNL     1       6.244  -4.208  25.387  0.00  0.00    +0.216 A 
ATOM      9  N   UNL     1       5.158  -4.656  24.686  0.00  0.00    -0.311 N 
ATOM     10  H   UNL     1       5.145  -4.338  23.727  0.00  0.00    +0.149 HD
ATOM     11  N   UNL     1       6.863  -4.998  26.268  0.00  0.00    -0.223 NA
ATOM     12  C   UNL     1       8.031  -4.560  26.764  0.00  0.00    +0.116 A 
ATOM     13  C   UNL     1       8.581  -3.338  26.459  0.00  0.00    +0.050 A 
BRANCH   9  14
ATOM     14  C   UNL     1       4.375  -5.798  25.107  0.00  0.00    +0.073 C 
ATOM     15  C   UNL     1       3.904  -6.683  23.945  0.00  0.00    +0.022 C 
ATOM     16  C   UNL     1       2.757  -6.088  23.135  0.00  0.00    +0.002 C 
ATOM     17  C   UNL     1       1.598  -5.658  24.026  0.00  0.00    +0.000 C 
ATOM     18  C   UNL     1       2.063  -4.692  25.108  0.00  0.00    +0.002 C 
ATOM     19  C   UNL     1       3.190  -5.293  25.948  0.00  0.00    +0.022 C 
ENDBRANCH   9  14
ENDBRANCH   2   6
BRANCH   3  20
ATOM     20  C   UNL     1       6.814   0.279  26.804  0.00  0.00    +0.004 A 
ATOM     21  C   UNL     1       7.203   0.779  28.053  0.00  0.00    +0.031 A 
ATOM     22  C   UNL     1       6.254   1.094  29.026  0.00  0.00    +0.060 A 
ATOM     23 CL   UNL     1       6.822   1.827  30.485  0.00  0.00    -0.082 Cl
ATOM     24  C   UNL     1       4.902   0.841  28.786  0.00  0.00    +0.059 A 
ATOM     25 CL   UNL     1       3.677   1.195  29.951  0.00  0.00    -0.082 Cl
ATOM     26  C   UNL     1       4.506   0.280  27.569  0.00  0.00    +0.022 A 
ATOM     27  C   UNL     1       5.458   0.007  26.581  0.00  0.00    +0.011 A 
ENDBRANCH   3  20
BRANCH   5  28
ATOM     28  C   UNL     1      10.036   1.415  23.266  0.00  0.00    +0.058 C 
ATOM     29  C   UNL     1      10.270   2.836  23.811  0.00  0.00    +0.026 C 
ATOM     30  C   UNL     1       9.032   3.732  23.717  0.00  0.00    +0.081 C 
ATOM     31  N   UNL     1       8.480   3.766  22.360  0.00  0.00    -0.316 NA
ATOM     32  H   UNL     1       7.624   4.322  22.381  0.00  0.00    +0.122 HD
ATOM     33  C   UNL     1       8.147   2.421  21.889  0.00  0.00    +0.081 C 
ATOM     34  C   UNL     1       9.375   1.509  21.883  0.00  0.00    +0.026 C 
ENDBRANCH   5  28
BRANCH   1  35
ATOM     35  C   UNL     1       9.831  -1.708  23.323  0.00  0.00    +0.123 C 
BRANCH  35  37
ATOM     36  C   UNL     1       7.885  -2.719  22.002  0.00  0.00    +0.005 C 
ATOM     37  C   UNL     1       9.194  -1.953  21.951  0.00  0.00    +0.018 C 
ENDBRANCH  35  37
ENDBRANCH   1  35
TORSDOF 6
ENDMDL
MODEL 4
REMARK VINA RESULT:      -6.9      3.092      7.756
REMARK  Name = 
REMARK  7 active torsions:
REMARK  status: ('A' for Active; 'I' for Inactive)
REMARK    1  A    between atoms: C_1  and  C_2
REMARK    2  A    between atoms: C_2  and  C_3
REMARK    3  A    between atoms: C_3  and  N_4
REMARK    4  A    between atoms: C_5  and  C_30
REMARK    5  A    between atoms: C_7  and  C_22
REMARK    6  A    between atoms: C_8  and  C_9
REMARK    7  A    between atoms: N_14  and  C_15
REMARK                            x       y       z     vdW  Elec       q    Type
REMARK                         _______ _______ _______ _____ _____    ______ ____
ROOT
ATOM      1  N   UNL     1       7.580   2.067  23.078  0.00  0.00    -0.326 N 
ATOM      2  C   UNL     1       7.465   1.143  24.123  0.00  0.00    +0.095 A 
ATOM      3  C   UNL     1       6.639   1.786  25.042  0.00  0.00    +0.099 A 
ATOM      4  N   UNL     1       6.273   3.023  24.598  0.00  0.00    -0.231 NA
ATOM      5  C   UNL     1       6.817   3.182  23.410  0.00  0.00    +0.114 A 
ENDROOT
BRANCH   2   6
ATOM      6  C   UNL     1       8.140  -0.154  24.249  0.00  0.00    +0.094 A 
ATOM      7  N   UNL     1       7.460  -1.178  23.681  0.00  0.00    -0.213 NA
ATOM      8  C   UNL     1       7.989  -2.402  23.720  0.00  0.00    +0.216 A 
ATOM      9  N   UNL     1       7.330  -3.366  23.006  0.00  0.00    -0.311 N 
ATOM     10  H   UNL     1       6.924  -3.018  22.149  0.00  0.00    +0.149 HD
ATOM     11  N   UNL     1       9.132  -2.682  24.353  0.00  0.00    -0.223 NA
ATOM     12  C   UNL     1       9.817  -1.644  24.860  0.00  0.00    +0.116 A 
ATOM     13  C   UNL     1       9.381  -0.342  24.808  0.00  0.00    +0.050 A 
BRANCH   9  14
ATOM     14  C   UNL     1       7.565  -4.780  23.203  0.00  0.00    +0.073 C 
ATOM     15  C   UNL     1       7.193  -5.640  21.989  0.00  0.00    +0.022 C 
ATOM     16  C   UNL     1       5.692  -5.830  21.797  0.00  0.00    +0.002 C 
ATOM     17  C   UNL     1       5.016  -6.324  23.070  0.00  0.00    +0.000 C 
ATOM     18  C   UNL     1       5.306  -5.397  24.243  0.00  0.00    +0.002 C 
ATOM     19  C   UNL     1       6.809  -5.228  24.466  0.00  0.00    +0.022 C 
ENDBRANCH   9  14
ENDBRANCH   2   6
BRANCH   3  20
ATOM     20  C   UNL     1       6.175   1.291  26.331  0.00  0.00    +0.004 A 
ATOM     21  C   UNL     1       6.911   1.501  27.503  0.00  0.00    +0.031 A 
ATOM     22  C   UNL     1       6.411   1.108  28.745  0.00  0.00    +0.060 A 
ATOM     23 CL   UNL     1       7.333   1.527  30.145  0.00  0.00    -0.082 Cl
ATOM     24  C   UNL     1       5.193   0.429  28.820  0.00  0.00    +0.059 A 
ATOM     25 CL   UNL     1       4.521  -0.097  30.322  0.00  0.00    -0.082 Cl
ATOM     26  C   UNL     1       4.479   0.154  27.650  0.00  0.00    +0.022 A 
ATOM     27  C   UNL     1       4.966   0.590  26.413  0.00  0.00    +0.011 A 
ENDBRANCH   3  20
BRANCH   5  28
ATOM     28  C   UNL     1       6.579   4.408  22.549  0.00  0.00    +0.058 C 
ATOM     29  C   UNL     1       7.776   5.376  22.577  0.00  0.00    +0.026 C 
ATOM     30  C   UNL     1       7.882   6.170  23.881  0.00  0.00    +0.081 C 
ATOM     31  N   UNL     1       6.631   6.861  24.207  0.00  0.00    -0.316 NA
ATOM     32  H   UNL     1       6.747   7.312  25.116  0.00  0.00    +0.122 HD
ATOM     33  C   UNL     1       5.514   5.920  24.297  0.00  0.00    +0.081 C 
ATOM     34  C   UNL     1       5.314   5.161  22.984  0.00  0.00    +0.026 C 
ENDBRANCH   5  28
BRANCH   1  35
ATOM     35  C   UNL     1       8.283   1.885  21.817  0.00  0.00    +0.123 C 
BRANCH  35  37
ATOM     36  C   UNL     1      10.419   2.704  22.965  0.00  0.00    +0.005 C 
ATOM     37  C   UNL     1       9.814   1.855  21.862  0.00  0.00    +0.018 C 
ENDBRANCH  35  37
ENDBRANCH   1  35
TORSDOF 6
ENDMDL
MODEL 5
REMARK VINA RESULT:      -6.6      3.159      5.075
REMARK  Name = 
REMARK  7 active torsions:
REMARK  status: ('A' for Active; 'I' for Inactive)
REMARK    1  A    between atoms: C_1  and  C_2
REMARK    2  A    between atoms: C_2  and  C_3
REMARK    3  A    between atoms: C_3  and  N_4
REMARK    4  A    between atoms: C_5  and  C_30
REMARK    5  A    between atoms: C_7  and  C_22
REMARK    6  A    between atoms: C_8  and  C_9
REMARK    7  A    between atoms: N_14  and  C_15
REMARK                            x       y       z     vdW  Elec       q    Type
REMARK                         _______ _______ _______ _____ _____    ______ ____
ROOT
ATOM      1  N   UNL     1       7.659  -2.154  24.839  0.00  0.00    -0.326 N 
ATOM      2  C   UNL     1       7.778  -0.863  25.365  0.00  0.00    +0.095 A 
ATOM      3  C   UNL     1       6.863  -0.850  26.414  0.00  0.00    +0.099 A 
ATOM      4  N   UNL     1       6.218  -2.047  26.525  0.00  0.00    -0.231 NA
ATOM      5  C   UNL     1       6.713  -2.838  25.597  0.00  0.00    +0.114 A 
ENDROOT
BRANCH   2   6
ATOM      6  C   UNL     1       8.607   0.237  24.859  0.00  0.00    +0.094 A 
ATOM      7  N   UNL     1       7.895   1.319  24.465  0.00  0.00    -0.213 NA
ATOM      8  C   UNL     1       8.548   2.386  24.004  0.00  0.00    +0.216 A 
ATOM      9  N   UNL     1       7.787   3.498  23.759  0.00  0.00    -0.311 N 
ATOM     10  H   UNL     1       7.030   3.614  24.417  0.00  0.00    +0.149 HD
ATOM     11  N   UNL     1       9.874   2.417  23.847  0.00  0.00    -0.223 NA
ATOM     12  C   UNL     1      10.565   1.357  24.295  0.00  0.00    +0.116 A 
ATOM     13  C   UNL     1       9.982   0.242  24.845  0.00  0.00    +0.050 A 
BRANCH   9  14
ATOM     14  C   UNL     1       8.262   4.607  22.960  0.00  0.00    +0.073 C 
ATOM     15  C   UNL     1       8.873   5.744  23.788  0.00  0.00    +0.022 C 
ATOM     16  C   UNL     1       7.847   6.602  24.521  0.00  0.00    +0.002 C 
ATOM     17  C   UNL     1       6.757   7.106  23.584  0.00  0.00    +0.000 C 
ATOM     18  C   UNL     1       6.084   5.953  22.850  0.00  0.00    +0.002 C 
ATOM     19  C   UNL     1       7.101   5.108  22.084  0.00  0.00    +0.022 C 
ENDBRANCH   9  14
ENDBRANCH   2   6
BRANCH   3  20
ATOM     20  C   UNL     1       6.556   0.247  27.324  0.00  0.00    +0.004 A 
ATOM     21  C   UNL     1       7.374   0.535  28.423  0.00  0.00    +0.031 A 
ATOM     22  C   UNL     1       7.125   1.646  29.230  0.00  0.00    +0.060 A 
ATOM     23 CL   UNL     1       8.264   1.993  30.482  0.00  0.00    -0.082 Cl
ATOM     24  C   UNL     1       6.004   2.443  28.988  0.00  0.00    +0.059 A 
ATOM     25 CL   UNL     1       5.630   3.825  29.955  0.00  0.00    -0.082 Cl
ATOM     26  C   UNL     1       5.143   2.128  27.934  0.00  0.00    +0.022 A 
ATOM     27  C   UNL     1       5.422   1.038  27.103  0.00  0.00    +0.011 A 
ENDBRANCH   3  20
BRANCH   5  28
ATOM     28  C   UNL     1       6.307  -4.291  25.445  0.00  0.00    +0.058 C 
ATOM     29  C   UNL     1       5.240  -4.706  26.475  0.00  0.00    +0.026 C 
ATOM     30  C   UNL     1       5.802  -4.890  27.886  0.00  0.00    +0.081 C 
ATOM     31  N   UNL     1       6.946  -5.806  27.907  0.00  0.00    -0.316 NA
ATOM     32  H   UNL     1       7.313  -5.831  28.860  0.00  0.00    +0.122 HD
ATOM     33  C   UNL     1       8.010  -5.345  27.015  0.00  0.00    +0.081 C 
ATOM     34  C   UNL     1       7.518  -5.227  25.571  0.00  0.00    +0.026 C 
ENDBRANCH   5  28
BRANCH   1  35
ATOM     35  C   UNL     1       8.439  -2.738  23.758  0.00  0.00    +0.123 C 
BRANCH  35  37
ATOM     36  C   UNL     1       6.808  -3.531  21.952  0.00  0.00    +0.005 C 
ATOM     37  C   UNL     1       7.910  -2.559  22.331  0.00  0.00    +0.018 C 
ENDBRANCH  35  37
ENDBRANCH   1  35
TORSDOF 6
ENDMDL
MODEL 6
REMARK VINA RESULT:      -6.4      3.954      6.713
REMARK  Name = 
REMARK  7 active torsions:
REMARK  status: ('A' for Active; 'I' for Inactive)
REMARK    1  A    between atoms: C_1  and  C_2
REMARK    2  A    between atoms: C_2  and  C_3
REMARK    3  A    between atoms: C_3  and  N_4
REMARK    4  A    between atoms: C_5  and  C_30
REMARK    5  A    between atoms: C_7  and  C_22
REMARK    6  A    between atoms: C_8  and  C_9
REMARK    7  A    between atoms: N_14  and  C_15
REMARK                            x       y       z     vdW  Elec       q    Type
REMARK                         _______ _______ _______ _____ _____    ______ ____
ROOT
ATOM      1  N   UNL     1       5.836  -2.256  25.602  0.00  0.00    -0.326 N 
ATOM      2  C   UNL     1       6.256  -0.927  25.492  0.00  0.00    +0.095 A 
ATOM      3  C   UNL     1       7.446  -1.015  24.774  0.00  0.00    +0.099 A 
ATOM      4  N   UNL     1       7.744  -2.311  24.467  0.00  0.00    -0.231 NA
ATOM      5  C   UNL     1       6.767  -3.053  24.942  0.00  0.00    +0.114 A 
ENDROOT
BRANCH   2   6
ATOM      6  C   UNL     1       5.629   0.262  26.081  0.00  0.00    +0.094 A 
ATOM      7  N   UNL     1       4.994   1.046  25.179  0.00  0.00    -0.213 NA
ATOM      8  C   UNL     1       4.372   2.146  25.606  0.00  0.00    +0.216 A 
ATOM      9  N   UNL     1       3.628   2.817  24.674  0.00  0.00    -0.311 N 
ATOM     10  H   UNL     1       3.173   2.205  24.012  0.00  0.00    +0.149 HD
ATOM     11  N   UNL     1       4.400   2.550  26.878  0.00  0.00    -0.223 NA
ATOM     12  C   UNL     1       4.986   1.731  27.766  0.00  0.00    +0.116 A 
ATOM     13  C   UNL     1       5.594   0.546  27.426  0.00  0.00    +0.050 A 
BRANCH   9  14
ATOM     14  C   UNL     1       3.172   4.177  24.872  0.00  0.00    +0.073 C 
ATOM     15  C   UNL     1       1.845   4.489  24.170  0.00  0.00    +0.022 C 
ATOM     16  C   UNL     1       1.964   4.659  22.658  0.00  0.00    +0.002 C 
ATOM     17  C   UNL     1       3.051   5.659  22.285  0.00  0.00    +0.000 C 
ATOM     18  C   UNL     1       4.390   5.274  22.901  0.00  0.00    +0.002 C 
ATOM     19  C   UNL     1       4.288   5.135  24.420  0.00  0.00    +0.022 C 
ENDBRANCH   9  14
ENDBRANCH   2   6
BRANCH   3  20
ATOM     20  C   UNL     1       8.329   0.069  24.362  0.00  0.00    +0.004 A 
ATOM     21  C   UNL     1       7.893   1.078  23.497  0.00  0.00    +0.031 A 
ATOM     22  C   UNL     1       8.715   2.162  23.187  0.00  0.00    +0.060 A 
ATOM     23 CL   UNL     1       8.042   3.422  22.214  0.00  0.00    -0.082 Cl
ATOM     24  C   UNL     1      10.020   2.210  23.685  0.00  0.00    +0.059 A 
ATOM     25 CL   UNL     1      11.094   3.515  23.332  0.00  0.00    -0.082 Cl
ATOM     26  C   UNL     1      10.489   1.174  24.498  0.00  0.00    +0.022 A 
ATOM     27  C   UNL     1       9.645   0.113  24.839  0.00  0.00    +0.011 A 
ENDBRANCH   3  20
BRANCH   5  28
ATOM     28  C   UNL     1       6.692  -4.554  24.735  0.00  0.00    +0.058 C 
ATOM     29  C   UNL     1       6.492  -5.312  26.060  0.00  0.00    +0.026 C 
ATOM     30  C   UNL     1       7.758  -5.377  26.917  0.00  0.00    +0.081 C 
ATOM     31  N   UNL     1       8.902  -5.905  26.168  0.00  0.00    -0.316 NA
ATOM     32  H   UNL     1       9.724  -5.859  26.773  0.00  0.00    +0.122 HD
ATOM     33  C   UNL     1       9.164  -5.110  24.969  0.00  0.00    +0.081 C 
ATOM     34  C   UNL     1       7.952  -5.086  24.036  0.00  0.00    +0.026 C 
ENDBRANCH   5  28
BRANCH   1  35
ATOM     35  C   UNL     1       4.605  -2.743  26.206  0.00  0.00    +0.123 C 
BRANCH  35  37
ATOM     36  C   UNL     1       2.998  -4.465  25.205  0.00  0.00    +0.005 C 
ATOM     37  C   UNL     1       3.420  -3.009  25.273  0.00  0.00    +0.018 C 
ENDBRANCH  35  37
ENDBRANCH   1  35
TORSDOF 6
ENDMDL
MODEL 7
REMARK VINA RESULT:      -6.4      2.099      3.080
REMARK  Name = 
REMARK  7 active torsions:
REMARK  status: ('A' for Active; 'I' for Inactive)
REMARK    1  A    between atoms: C_1  and  C_2
REMARK    2  A    between atoms: C_2  and  C_3
REMARK    3  A    between atoms: C_3  and  N_4
REMARK    4  A    between atoms: C_5  and  C_30
REMARK    5  A    between atoms: C_7  and  C_22
REMARK    6  A    between atoms: C_8  and  C_9
REMARK    7  A    between atoms: N_14  and  C_15
REMARK                            x       y       z     vdW  Elec       q    Type
REMARK                         _______ _______ _______ _____ _____    ______ ____
ROOT
ATOM      1  N   UNL     1       7.210  -4.343  24.709  0.00  0.00    -0.326 N 
ATOM      2  C   UNL     1       7.466  -2.983  24.915  0.00  0.00    +0.095 A 
ATOM      3  C   UNL     1       6.575  -2.629  25.924  0.00  0.00    +0.099 A 
ATOM      4  N   UNL     1       5.816  -3.694  26.312  0.00  0.00    -0.231 NA
ATOM      5  C   UNL     1       6.213  -4.728  25.602  0.00  0.00    +0.114 A 
ENDROOT
BRANCH   2   6
ATOM      6  C   UNL     1       8.393  -2.125  24.168  0.00  0.00    +0.094 A 
ATOM      7  N   UNL     1       7.966  -0.847  24.037  0.00  0.00    -0.213 NA
ATOM      8  C   UNL     1       8.738   0.028  23.391  0.00  0.00    +0.216 A 
ATOM      9  N   UNL     1       8.323   1.331  23.417  0.00  0.00    -0.311 N 
ATOM     10  H   UNL     1       7.886   1.592  24.290  0.00  0.00    +0.149 HD
ATOM     11  N   UNL     1       9.889  -0.312  22.804  0.00  0.00    -0.223 NA
ATOM     12  C   UNL     1      10.321  -1.569  22.993  0.00  0.00    +0.116 A 
ATOM     13  C   UNL     1       9.624  -2.518  23.700  0.00  0.00    +0.050 A 
BRANCH   9  14
ATOM     14  C   UNL     1       8.842   2.333  22.511  0.00  0.00    +0.073 C 
ATOM     15  C   UNL     1       9.847   3.291  23.164  0.00  0.00    +0.022 C 
ATOM     16  C   UNL     1       9.211   4.330  24.083  0.00  0.00    +0.002 C 
ATOM     17  C   UNL     1       8.080   5.080  23.392  0.00  0.00    +0.000 C 
ATOM     18  C   UNL     1       7.034   4.118  22.845  0.00  0.00    +0.002 C 
ATOM     19  C   UNL     1       7.656   3.094  21.895  0.00  0.00    +0.022 C 
ENDBRANCH   9  14
ENDBRANCH   2   6
BRANCH   3  20
ATOM     20  C   UNL     1       6.396  -1.323  26.546  0.00  0.00    +0.004 A 
ATOM     21  C   UNL     1       5.194  -0.615  26.427  0.00  0.00    +0.031 A 
ATOM     22  C   UNL     1       5.001   0.588  27.106  0.00  0.00    +0.060 A 
ATOM     23 CL   UNL     1       3.439   1.321  27.001  0.00  0.00    -0.082 Cl
ATOM     24  C   UNL     1       6.043   1.138  27.857  0.00  0.00    +0.059 A 
ATOM     25 CL   UNL     1       5.876   2.629  28.712  0.00  0.00    -0.082 Cl
ATOM     26  C   UNL     1       7.270   0.474  27.930  0.00  0.00    +0.022 A 
ATOM     27  C   UNL     1       7.442  -0.754  27.282  0.00  0.00    +0.011 A 
ENDBRANCH   3  20
BRANCH   5  28
ATOM     28  C   UNL     1       5.661  -6.128  25.796  0.00  0.00    +0.058 C 
ATOM     29  C   UNL     1       4.499  -6.430  24.831  0.00  0.00    +0.026 C 
ATOM     30  C   UNL     1       3.193  -5.735  25.220  0.00  0.00    +0.081 C 
ATOM     31  N   UNL     1       2.816  -6.010  26.610  0.00  0.00    -0.316 NA
ATOM     32  H   UNL     1       1.979  -5.466  26.824  0.00  0.00    +0.122 HD
ATOM     33  C   UNL     1       3.877  -5.610  27.535  0.00  0.00    +0.081 C 
ATOM     34  C   UNL     1       5.185  -6.346  27.240  0.00  0.00    +0.026 C 
ENDBRANCH   5  28
BRANCH   1  35
ATOM     35  C   UNL     1       7.908  -5.243  23.804  0.00  0.00    +0.123 C 
BRANCH  35  37
ATOM     36  C   UNL     1       6.632  -6.379  21.898  0.00  0.00    +0.005 C 
ATOM     37  C   UNL     1       7.502  -5.212  22.327  0.00  0.00    +0.018 C 
ENDBRANCH  35  37
ENDBRANCH   1  35
TORSDOF 6
ENDMDL
MODEL 8
REMARK VINA RESULT:      -6.3      2.940      8.703
REMARK  Name = 
REMARK  7 active torsions:
REMARK  status: ('A' for Active; 'I' for Inactive)
REMARK    1  A    between atoms: C_1  and  C_2
REMARK    2  A    between atoms: C_2  and  C_3
REMARK    3  A    between atoms: C_3  and  N_4
REMARK    4  A    between atoms: C_5  and  C_30
REMARK    5  A    between atoms: C_7  and  C_22
REMARK    6  A    between atoms: C_8  and  C_9
REMARK    7  A    between atoms: N_14  and  C_15
REMARK                            x       y       z     vdW  Elec       q    Type
REMARK                         _______ _______ _______ _____ _____    ______ ____
ROOT
ATOM      1  N   UNL     1       5.919   0.837  25.249  0.00  0.00    -0.326 N 
ATOM      2  C   UNL     1       5.799  -0.554  25.171  0.00  0.00    +0.095 A 
ATOM      3  C   UNL     1       6.611  -0.895  24.092  0.00  0.00    +0.099 A 
ATOM      4  N   UNL     1       7.189   0.210  23.539  0.00  0.00    -0.231 NA
ATOM      5  C   UNL     1       6.795   1.246  24.247  0.00  0.00    +0.114 A 
ENDROOT
BRANCH   2   6
ATOM      6  C   UNL     1       4.940  -1.425  25.981  0.00  0.00    +0.094 A 
ATOM      7  N   UNL     1       4.174  -2.268  25.249  0.00  0.00    -0.213 NA
ATOM      8  C   UNL     1       3.366  -3.119  25.883  0.00  0.00    +0.216 A 
ATOM      9  N   UNL     1       2.729  -4.041  25.099  0.00  0.00    -0.311 N 
ATOM     10  H   UNL     1       3.291  -4.362  24.324  0.00  0.00    +0.149 HD
ATOM     11  N   UNL     1       3.225  -3.136  27.211  0.00  0.00    -0.223 NA
ATOM     12  C   UNL     1       4.033  -2.333  27.921  0.00  0.00    +0.116 A 
ATOM     13  C   UNL     1       4.942  -1.471  27.355  0.00  0.00    +0.050 A 
BRANCH   9  14
ATOM     14  C   UNL     1       1.588  -4.804  25.562  0.00  0.00    +0.073 C 
ATOM     15  C   UNL     1       1.900  -6.284  25.814  0.00  0.00    +0.022 C 
ATOM     16  C   UNL     1       2.047  -7.115  24.542  0.00  0.00    +0.002 C 
ATOM     17  C   UNL     1       0.855  -6.938  23.609  0.00  0.00    +0.000 C 
ATOM     18  C   UNL     1       0.627  -5.468  23.280  0.00  0.00    +0.002 C 
ATOM     19  C   UNL     1       0.444  -4.632  24.547  0.00  0.00    +0.022 C 
ENDBRANCH   9  14
ENDBRANCH   2   6
BRANCH   3  20
ATOM     20  C   UNL     1       6.870  -2.221  23.547  0.00  0.00    +0.004 A 
ATOM     21  C   UNL     1       7.714  -3.128  24.199  0.00  0.00    +0.031 A 
ATOM     22  C   UNL     1       7.877  -4.429  23.719  0.00  0.00    +0.060 A 
ATOM     23 CL   UNL     1       8.835  -5.513  24.664  0.00  0.00    -0.082 Cl
ATOM     24  C   UNL     1       7.251  -4.815  22.531  0.00  0.00    +0.059 A 
ATOM     25 CL   UNL     1       7.419  -6.403  21.875  0.00  0.00    -0.082 Cl
ATOM     26  C   UNL     1       6.458  -3.898  21.836  0.00  0.00    +0.022 A 
ATOM     27  C   UNL     1       6.264  -2.610  22.346  0.00  0.00    +0.011 A 
ENDBRANCH   3  20
BRANCH   5  28
ATOM     28  C   UNL     1       7.286   2.659  23.993  0.00  0.00    +0.058 C 
ATOM     29  C   UNL     1       7.445   2.955  22.490  0.00  0.00    +0.026 C 
ATOM     30  C   UNL     1       8.676   2.291  21.869  0.00  0.00    +0.081 C 
ATOM     31  N   UNL     1       9.902   2.607  22.607  0.00  0.00    -0.316 NA
ATOM     32  H   UNL     1      10.669   2.082  22.184  0.00  0.00    +0.122 HD
ATOM     33  C   UNL     1       9.792   2.215  24.012  0.00  0.00    +0.081 C 
ATOM     34  C   UNL     1       8.623   2.922  24.701  0.00  0.00    +0.026 C 
ENDBRANCH   5  28
BRANCH   1  35
ATOM     35  C   UNL     1       5.328   1.716  26.246  0.00  0.00    +0.123 C 
BRANCH  35  37
ATOM     36  C   UNL     1       6.795   3.214  27.715  0.00  0.00    +0.005 C 
ATOM     37  C   UNL     1       6.079   1.884  27.572  0.00  0.00    +0.018 C 
ENDBRANCH  35  37
ENDBRANCH   1  35
TORSDOF 6
ENDMDL
MODEL 9
REMARK VINA RESULT:      -6.2      3.876      6.053
REMARK  Name = 
REMARK  7 active torsions:
REMARK  status: ('A' for Active; 'I' for Inactive)
REMARK    1  A    between atoms: C_1  and  C_2
REMARK    2  A    between atoms: C_2  and  C_3
REMARK    3  A    between atoms: C_3  and  N_4
REMARK    4  A    between atoms: C_5  and  C_30
REMARK    5  A    between atoms: C_7  and  C_22
REMARK    6  A    between atoms: C_8  and  C_9
REMARK    7  A    between atoms: N_14  and  C_15
REMARK                            x       y       z     vdW  Elec       q    Type
REMARK                         _______ _______ _______ _____ _____    ______ ____
ROOT
ATOM      1  N   UNL     1       7.293  -1.726  23.963  0.00  0.00    -0.326 N 
ATOM      2  C   UNL     1       6.919  -0.573  24.661  0.00  0.00    +0.095 A 
ATOM      3  C   UNL     1       6.542  -1.053  25.913  0.00  0.00    +0.099 A 
ATOM      4  N   UNL     1       6.668  -2.410  25.981  0.00  0.00    -0.231 NA
ATOM      5  C   UNL     1       7.141  -2.811  24.821  0.00  0.00    +0.114 A 
ENDROOT
BRANCH   2   6
ATOM      6  C   UNL     1       6.855   0.801  24.151  0.00  0.00    +0.094 A 
ATOM      7  N   UNL     1       5.602   1.207  23.835  0.00  0.00    -0.213 NA
ATOM      8  C   UNL     1       5.423   2.447  23.378  0.00  0.00    +0.216 A 
ATOM      9  N   UNL     1       4.124   2.847  23.215  0.00  0.00    -0.311 N 
ATOM     10  H   UNL     1       3.502   2.473  23.918  0.00  0.00    +0.149 HD
ATOM     11  N   UNL     1       6.432   3.292  23.151  0.00  0.00    -0.223 NA
ATOM     12  C   UNL     1       7.659   2.891  23.522  0.00  0.00    +0.116 A 
ATOM     13  C   UNL     1       7.927   1.657  24.063  0.00  0.00    +0.050 A 
BRANCH   9  14
ATOM     14  C   UNL     1       3.758   4.007  22.432  0.00  0.00    +0.073 C 
ATOM     15  C   UNL     1       3.355   5.220  23.280  0.00  0.00    +0.022 C 
ATOM     16  C   UNL     1       1.972   5.105  23.914  0.00  0.00    +0.002 C 
ATOM     17  C   UNL     1       0.905   4.755  22.884  0.00  0.00    +0.000 C 
ATOM     18  C   UNL     1       1.267   3.485  22.126  0.00  0.00    +0.002 C 
ATOM     19  C   UNL     1       2.638   3.603  21.458  0.00  0.00    +0.022 C 
ENDBRANCH   9  14
ENDBRANCH   2   6
BRANCH   3  20
ATOM     20  C   UNL     1       6.059  -0.293  27.058  0.00  0.00    +0.004 A 
ATOM     21  C   UNL     1       6.759   0.816  27.548  0.00  0.00    +0.031 A 
ATOM     22  C   UNL     1       6.238   1.594  28.582  0.00  0.00    +0.060 A 
ATOM     23 CL   UNL     1       7.112   3.016  29.029  0.00  0.00    -0.082 Cl
ATOM     24  C   UNL     1       5.036   1.224  29.192  0.00  0.00    +0.059 A 
ATOM     25 CL   UNL     1       4.341   2.134  30.484  0.00  0.00    -0.082 Cl
ATOM     26  C   UNL     1       4.360   0.082  28.756  0.00  0.00    +0.022 A 
ATOM     27  C   UNL     1       4.867  -0.669  27.689  0.00  0.00    +0.011 A 
ENDBRANCH   3  20
BRANCH   5  28
ATOM     28  C   UNL     1       7.495  -4.257  24.526  0.00  0.00    +0.058 C 
ATOM     29  C   UNL     1       6.594  -5.242  25.293  0.00  0.00    +0.026 C 
ATOM     30  C   UNL     1       6.936  -5.341  26.782  0.00  0.00    +0.081 C 
ATOM     31  N   UNL     1       8.355  -5.635  27.001  0.00  0.00    -0.316 NA
ATOM     32  H   UNL     1       8.528  -5.620  28.007  0.00  0.00    +0.122 HD
ATOM     33  C   UNL     1       9.209  -4.629  26.369  0.00  0.00    +0.081 C 
ATOM     34  C   UNL     1       8.964  -4.553  24.861  0.00  0.00    +0.026 C 
ENDBRANCH   5  28
BRANCH   1  35
ATOM     35  C   UNL     1       7.838  -1.800  22.615  0.00  0.00    +0.123 C 
BRANCH  35  37
ATOM     36  C   UNL     1       9.792  -0.389  21.755  0.00  0.00    +0.005 C 
ATOM     37  C   UNL     1       9.356  -1.659  22.461  0.00  0.00    +0.018 C 
ENDBRANCH  35  37
ENDBRANCH   1  35
TORSDOF 6
ENDMDL
