MODEL 1
REMARK VINA RESULT:      -4.5      0.000      0.000
REMARK  Name = 
REMARK  19 active torsions:
REMARK  status: ('A' for Active; 'I' for Inactive)
REMARK    1  A    between atoms: CA_2  and  N_3
REMARK    2  A    between atoms: CA_2  and  C_4
REMARK    3  A    between atoms: CA_2  and  C_6
REMARK    4  A    between atoms: C_4  and  O_5
REMARK    5  A    between atoms: C_6  and  O_8
REMARK    6  A    between atoms: C_6  and  C_9
REMARK    7  A    between atoms: C_10  and  C_11
REMARK    8  A    between atoms: C_11  and  C_12
REMARK    9  A    between atoms: C_12  and  C_13
REMARK   10  A    between atoms: C_13  and  C_14
REMARK   11  A    between atoms: C_14  and  C_15
REMARK   12  A    between atoms: C_15  and  C_16
REMARK   13  A    between atoms: C_16  and  C_17
REMARK   14  A    between atoms: C_17  and  C_18
REMARK   15  A    between atoms: C_18  and  C_19
REMARK   16  A    between atoms: C_19  and  C_20
REMARK   17  A    between atoms: C_20  and  C_21
REMARK   18  A    between atoms: C_21  and  C_22
REMARK   19  A    between atoms: C_22  and  C_23
REMARK                            x       y       z     vdW  Elec       q    Type
REMARK                         _______ _______ _______ _____ _____    ______ ____
ROOT
ATOM      1  C   UNL     1       8.801   0.232  25.206  0.00  0.00    +0.027 C 
ENDROOT
BRANCH   1   3
ATOM      2  C   UNL     1      10.461   0.066  23.297  0.00  0.00    +0.001 C 
ATOM      3  C   UNL     1      10.177   0.204  24.599  0.00  0.00    -0.029 C 
BRANCH   2   4
ATOM      4  C   UNL     1       9.453  -0.021  22.195  0.00  0.00    +0.156 C 
BRANCH   4   5
ATOM      5  O   UNL     1       9.913  -0.981  21.250  0.00  0.00    -0.386 OA
ATOM      6  H   UNL     1       9.103  -1.323  20.826  0.00  0.00    +0.210 HD
ENDBRANCH   4   5
BRANCH   4   7
ATOM      7  CA  UNL     1       9.208   1.353  21.518  0.00  0.00    +0.109 C 
BRANCH   7   8
ATOM      8  N   UNL     1      10.352   2.272  21.763  0.00  0.00    -0.323 NA
ATOM      9  H1  UNL     1      10.450   2.894  20.957  0.00  0.00    +0.119 HD
ATOM     10  H2  UNL     1      10.080   2.896  22.528  0.00  0.00    +0.119 HD
ENDBRANCH   7   8
BRANCH   7  11
ATOM     11  C   UNL     1       7.893   2.012  21.983  0.00  0.00    +0.177 C 
BRANCH  11  12
ATOM     12  O   UNL     1       8.041   3.434  22.018  0.00  0.00    -0.393 OA
ATOM     13  H   UNL     1       7.588   3.755  21.215  0.00  0.00    +0.209 HD
ENDBRANCH  11  12
ENDBRANCH   7  11
ENDBRANCH   4   7
ENDBRANCH   2   4
ENDBRANCH   1   3
BRANCH   1  14
ATOM     14  C   UNL     1       8.690  -0.691  26.423  0.00  0.00    +0.004 C 
BRANCH  14  15
ATOM     15  C   UNL     1       7.276  -1.216  26.688  0.00  0.00    +0.000 C 
BRANCH  15  16
ATOM     16  C   UNL     1       6.357  -0.976  25.495  0.00  0.00    +0.000 C 
BRANCH  16  17
ATOM     17  C   UNL     1       5.320  -2.077  25.357  0.00  0.00    +0.000 C 
BRANCH  17  18
ATOM     18  C   UNL     1       5.449  -2.718  23.980  0.00  0.00    +0.000 C 
BRANCH  18  19
ATOM     19  C   UNL     1       6.609  -2.111  23.212  0.00  0.00    -0.000 C 
BRANCH  19  20
ATOM     20  C   UNL     1       7.599  -3.191  22.804  0.00  0.00    -0.000 C 
BRANCH  20  21
ATOM     21  C   UNL     1       8.686  -3.334  23.858  0.00  0.00    -0.000 C 
BRANCH  21  22
ATOM     22  C   UNL     1       8.600  -4.692  24.544  0.00  0.00    -0.000 C 
BRANCH  22  23
ATOM     23  C   UNL     1       8.921  -4.560  26.029  0.00  0.00    -0.000 C 
BRANCH  23  24
ATOM     24  C   UNL     1       7.683  -4.813  26.881  0.00  0.00    -0.003 C 
ATOM     25  C   UNL     1       6.619  -5.550  26.088  0.00  0.00    +0.004 C 
ENDBRANCH  23  24
ENDBRANCH  22  23
ENDBRANCH  21  22
ENDBRANCH  20  21
ENDBRANCH  19  20
ENDBRANCH  18  19
ENDBRANCH  17  18
ENDBRANCH  16  17
ENDBRANCH  15  16
ENDBRANCH  14  15
ENDBRANCH   1  14
TORSDOF 18
ENDMDL
MODEL 2
REMARK VINA RESULT:      -4.4      3.286      6.522
REMARK  Name = 
REMARK  19 active torsions:
REMARK  status: ('A' for Active; 'I' for Inactive)
REMARK    1  A    between atoms: CA_2  and  N_3
REMARK    2  A    between atoms: CA_2  and  C_4
REMARK    3  A    between atoms: CA_2  and  C_6
REMARK    4  A    between atoms: C_4  and  O_5
REMARK    5  A    between atoms: C_6  and  O_8
REMARK    6  A    between atoms: C_6  and  C_9
REMARK    7  A    between atoms: C_10  and  C_11
REMARK    8  A    between atoms: C_11  and  C_12
REMARK    9  A    between atoms: C_12  and  C_13
REMARK   10  A    between atoms: C_13  and  C_14
REMARK   11  A    between atoms: C_14  and  C_15
REMARK   12  A    between atoms: C_15  and  C_16
REMARK   13  A    between atoms: C_16  and  C_17
REMARK   14  A    between atoms: C_17  and  C_18
REMARK   15  A    between atoms: C_18  and  C_19
REMARK   16  A    between atoms: C_19  and  C_20
REMARK   17  A    between atoms: C_20  and  C_21
REMARK   18  A    between atoms: C_21  and  C_22
REMARK   19  A    between atoms: C_22  and  C_23
REMARK                            x       y       z     vdW  Elec       q    Type
REMARK                         _______ _______ _______ _____ _____    ______ ____
ROOT
ATOM      1  C   UNL     1       7.298  -2.409  23.012  0.00  0.00    +0.027 C 
ENDROOT
BRANCH   1   3
ATOM      2  C   UNL     1       7.485  -4.804  23.823  0.00  0.00    +0.001 C 
ATOM      3  C   UNL     1       6.843  -3.836  23.156  0.00  0.00    -0.029 C 
BRANCH   2   4
ATOM      4  C   UNL     1       8.746  -4.626  24.607  0.00  0.00    +0.156 C 
BRANCH   4   5
ATOM      5  O   UNL     1       9.531  -5.804  24.456  0.00  0.00    -0.386 OA
ATOM      6  H   UNL     1      10.096  -5.630  23.680  0.00  0.00    +0.210 HD
ENDBRANCH   4   5
BRANCH   4   7
ATOM      7  CA  UNL     1       8.467  -4.331  26.105  0.00  0.00    +0.109 C 
BRANCH   7   8
ATOM      8  N   UNL     1       9.637  -4.709  26.942  0.00  0.00    -0.323 NA
ATOM      9  H1  UNL     1      10.302  -3.931  26.943  0.00  0.00    +0.119 HD
ATOM     10  H2  UNL     1       9.310  -4.758  27.911  0.00  0.00    +0.119 HD
ENDBRANCH   7   8
BRANCH   7  11
ATOM     11  C   UNL     1       7.199  -5.042  26.617  0.00  0.00    +0.177 C 
BRANCH  11  12
ATOM     12  O   UNL     1       7.557  -6.164  27.428  0.00  0.00    -0.393 OA
ATOM     13  H   UNL     1       8.067  -5.787  28.171  0.00  0.00    +0.209 HD
ENDBRANCH  11  12
ENDBRANCH   7  11
ENDBRANCH   4   7
ENDBRANCH   2   4
ENDBRANCH   1   3
BRANCH   1  14
ATOM     14  C   UNL     1       6.529  -1.464  23.940  0.00  0.00    +0.004 C 
BRANCH  14  15
ATOM     15  C   UNL     1       7.414  -0.475  24.704  0.00  0.00    +0.000 C 
BRANCH  15  16
ATOM     16  C   UNL     1       8.835  -1.004  24.866  0.00  0.00    +0.000 C 
BRANCH  16  17
ATOM     17  C   UNL     1       9.820   0.116  25.149  0.00  0.00    +0.000 C 
BRANCH  17  18
ATOM     18  C   UNL     1      10.619   0.414  23.887  0.00  0.00    +0.000 C 
BRANCH  18  19
ATOM     19  C   UNL     1      10.396  -0.664  22.842  0.00  0.00    -0.000 C 
BRANCH  19  20
ATOM     20  C   UNL     1       9.767  -0.071  21.591  0.00  0.00    -0.000 C 
BRANCH  20  21
ATOM     21  C   UNL     1       9.561   1.426  21.765  0.00  0.00    -0.000 C 
BRANCH  21  22
ATOM     22  C   UNL     1       8.085   1.786  21.650  0.00  0.00    -0.000 C 
BRANCH  22  23
ATOM     23  C   UNL     1       7.809   3.122  22.330  0.00  0.00    -0.000 C 
BRANCH  23  24
ATOM     24  C   UNL     1       7.725   2.960  23.843  0.00  0.00    -0.003 C 
ATOM     25  C   UNL     1       8.826   3.744  24.536  0.00  0.00    +0.004 C 
ENDBRANCH  23  24
ENDBRANCH  22  23
ENDBRANCH  21  22
ENDBRANCH  20  21
ENDBRANCH  19  20
ENDBRANCH  18  19
ENDBRANCH  17  18
ENDBRANCH  16  17
ENDBRANCH  15  16
ENDBRANCH  14  15
ENDBRANCH   1  14
TORSDOF 18
ENDMDL
MODEL 3
REMARK VINA RESULT:      -4.3      1.948      2.783
REMARK  Name = 
REMARK  19 active torsions:
REMARK  status: ('A' for Active; 'I' for Inactive)
REMARK    1  A    between atoms: CA_2  and  N_3
REMARK    2  A    between atoms: CA_2  and  C_4
REMARK    3  A    between atoms: CA_2  and  C_6
REMARK    4  A    between atoms: C_4  and  O_5
REMARK    5  A    between atoms: C_6  and  O_8
REMARK    6  A    between atoms: C_6  and  C_9
REMARK    7  A    between atoms: C_10  and  C_11
REMARK    8  A    between atoms: C_11  and  C_12
REMARK    9  A    between atoms: C_12  and  C_13
REMARK   10  A    between atoms: C_13  and  C_14
REMARK   11  A    between atoms: C_14  and  C_15
REMARK   12  A    between atoms: C_15  and  C_16
REMARK   13  A    between atoms: C_16  and  C_17
REMARK   14  A    between atoms: C_17  and  C_18
REMARK   15  A    between atoms: C_18  and  C_19
REMARK   16  A    between atoms: C_19  and  C_20
REMARK   17  A    between atoms: C_20  and  C_21
REMARK   18  A    between atoms: C_21  and  C_22
REMARK   19  A    between atoms: C_22  and  C_23
REMARK                            x       y       z     vdW  Elec       q    Type
REMARK                         _______ _______ _______ _____ _____    ______ ____
ROOT
ATOM      1  C   UNL     1       9.601  -0.766  24.548  0.00  0.00    +0.027 C 
ENDROOT
BRANCH   1   3
ATOM      2  C   UNL     1      10.619   1.463  23.894  0.00  0.00    +0.001 C 
ATOM      3  C   UNL     1      10.600   0.355  24.647  0.00  0.00    -0.029 C 
BRANCH   2   4
ATOM      4  C   UNL     1       9.604   1.819  22.853  0.00  0.00    +0.156 C 
BRANCH   4   5
ATOM      5  O   UNL     1      10.299   2.185  21.666  0.00  0.00    -0.386 OA
ATOM      6  H   UNL     1      11.118   1.656  21.682  0.00  0.00    +0.210 HD
ENDBRANCH   4   5
BRANCH   4   7
ATOM      7  CA  UNL     1       8.663   2.961  23.322  0.00  0.00    +0.109 C 
BRANCH   7   8
ATOM      8  N   UNL     1       7.944   3.558  22.164  0.00  0.00    -0.323 NA
ATOM      9  H1  UNL     1       6.953   3.645  22.406  0.00  0.00    +0.119 HD
ATOM     10  H2  UNL     1       8.266   4.526  22.077  0.00  0.00    +0.119 HD
ENDBRANCH   7   8
BRANCH   7  11
ATOM     11  C   UNL     1       9.413   4.059  24.101  0.00  0.00    +0.177 C 
BRANCH  11  12
ATOM     12  O   UNL     1      10.196   4.851  23.204  0.00  0.00    -0.393 OA
ATOM     13  H   UNL     1      10.658   4.207  22.635  0.00  0.00    +0.209 HD
ENDBRANCH  11  12
ENDBRANCH   7  11
ENDBRANCH   4   7
ENDBRANCH   2   4
ENDBRANCH   1   3
BRANCH   1  14
ATOM     14  C   UNL     1       9.974  -1.774  23.457  0.00  0.00    +0.004 C 
BRANCH  14  15
ATOM     15  C   UNL     1       8.855  -2.054  22.450  0.00  0.00    +0.000 C 
BRANCH  15  16
ATOM     16  C   UNL     1       7.479  -1.837  23.068  0.00  0.00    +0.000 C 
BRANCH  16  17
ATOM     17  C   UNL     1       6.442  -2.770  22.467  0.00  0.00    +0.000 C 
BRANCH  17  18
ATOM     18  C   UNL     1       7.090  -4.116  22.167  0.00  0.00    +0.000 C 
BRANCH  18  19
ATOM     19  C   UNL     1       6.808  -5.108  23.281  0.00  0.00    -0.000 C 
BRANCH  19  20
ATOM     20  C   UNL     1       5.439  -4.848  23.891  0.00  0.00    -0.000 C 
BRANCH  20  21
ATOM     21  C   UNL     1       5.539  -4.806  25.409  0.00  0.00    -0.000 C 
BRANCH  21  22
ATOM     22  C   UNL     1       6.789  -5.534  25.889  0.00  0.00    -0.000 C 
BRANCH  22  23
ATOM     23  C   UNL     1       7.527  -4.695  26.927  0.00  0.00    -0.000 C 
BRANCH  23  24
ATOM     24  C   UNL     1       8.710  -3.965  26.301  0.00  0.00    -0.003 C 
ATOM     25  C   UNL     1       9.602  -4.929  25.540  0.00  0.00    +0.004 C 
ENDBRANCH  23  24
ENDBRANCH  22  23
ENDBRANCH  21  22
ENDBRANCH  20  21
ENDBRANCH  19  20
ENDBRANCH  18  19
ENDBRANCH  17  18
ENDBRANCH  16  17
ENDBRANCH  15  16
ENDBRANCH  14  15
ENDBRANCH   1  14
TORSDOF 18
ENDMDL
MODEL 4
REMARK VINA RESULT:      -4.3      1.781      3.443
REMARK  Name = 
REMARK  19 active torsions:
REMARK  status: ('A' for Active; 'I' for Inactive)
REMARK    1  A    between atoms: CA_2  and  N_3
REMARK    2  A    between atoms: CA_2  and  C_4
REMARK    3  A    between atoms: CA_2  and  C_6
REMARK    4  A    between atoms: C_4  and  O_5
REMARK    5  A    between atoms: C_6  and  O_8
REMARK    6  A    between atoms: C_6  and  C_9
REMARK    7  A    between atoms: C_10  and  C_11
REMARK    8  A    between atoms: C_11  and  C_12
REMARK    9  A    between atoms: C_12  and  C_13
REMARK   10  A    between atoms: C_13  and  C_14
REMARK   11  A    between atoms: C_14  and  C_15
REMARK   12  A    between atoms: C_15  and  C_16
REMARK   13  A    between atoms: C_16  and  C_17
REMARK   14  A    between atoms: C_17  and  C_18
REMARK   15  A    between atoms: C_18  and  C_19
REMARK   16  A    between atoms: C_19  and  C_20
REMARK   17  A    between atoms: C_20  and  C_21
REMARK   18  A    between atoms: C_21  and  C_22
REMARK   19  A    between atoms: C_22  and  C_23
REMARK                            x       y       z     vdW  Elec       q    Type
REMARK                         _______ _______ _______ _____ _____    ______ ____
ROOT
ATOM      1  C   UNL     1       9.459  -3.015  24.266  0.00  0.00    +0.027 C 
ENDROOT
BRANCH   1   3
ATOM      2  C   UNL     1       9.458  -0.551  24.867  0.00  0.00    +0.001 C 
ATOM      3  C   UNL     1       9.028  -1.807  25.053  0.00  0.00    -0.029 C 
BRANCH   2   4
ATOM      4  C   UNL     1      10.402  -0.109  23.794  0.00  0.00    +0.156 C 
BRANCH   4   5
ATOM      5  O   UNL     1      11.162   0.985  24.298  0.00  0.00    -0.386 OA
ATOM      6  H   UNL     1      11.292   1.573  23.531  0.00  0.00    +0.210 HD
ENDBRANCH   4   5
BRANCH   4   7
ATOM      7  CA  UNL     1       9.660   0.282  22.489  0.00  0.00    +0.109 C 
BRANCH   7   8
ATOM      8  N   UNL     1       9.897  -0.733  21.426  0.00  0.00    -0.323 NA
ATOM      9  H1  UNL     1       9.956  -1.656  21.863  0.00  0.00    +0.119 HD
ATOM     10  H2  UNL     1       9.046  -0.779  20.859  0.00  0.00    +0.119 HD
ENDBRANCH   7   8
BRANCH   7  11
ATOM     11  C   UNL     1      10.060   1.681  21.981  0.00  0.00    +0.177 C 
BRANCH  11  12
ATOM     12  O   UNL     1       8.895   2.413  21.587  0.00  0.00    -0.393 OA
ATOM     13  H   UNL     1       8.881   2.359  20.613  0.00  0.00    +0.209 HD
ENDBRANCH  11  12
ENDBRANCH   7  11
ENDBRANCH   4   7
ENDBRANCH   2   4
ENDBRANCH   1   3
BRANCH   1  14
ATOM     14  C   UNL     1       8.791  -4.298  24.769  0.00  0.00    +0.004 C 
BRANCH  14  15
ATOM     15  C   UNL     1       9.010  -4.579  26.258  0.00  0.00    +0.000 C 
BRANCH  15  16
ATOM     16  C   UNL     1       7.799  -5.262  26.884  0.00  0.00    +0.000 C 
BRANCH  16  17
ATOM     17  C   UNL     1       6.507  -4.839  26.207  0.00  0.00    +0.000 C 
BRANCH  17  18
ATOM     18  C   UNL     1       5.846  -3.739  27.030  0.00  0.00    +0.000 C 
BRANCH  18  19
ATOM     19  C   UNL     1       5.649  -2.487  26.194  0.00  0.00    -0.000 C 
BRANCH  19  20
ATOM     20  C   UNL     1       5.035  -2.839  24.848  0.00  0.00    -0.000 C 
BRANCH  20  21
ATOM     21  C   UNL     1       5.792  -2.144  23.726  0.00  0.00    -0.000 C 
BRANCH  21  22
ATOM     22  C   UNL     1       5.878  -3.039  22.496  0.00  0.00    -0.000 C 
BRANCH  22  23
ATOM     23  C   UNL     1       5.245  -4.397  22.780  0.00  0.00    -0.000 C 
BRANCH  23  24
ATOM     24  C   UNL     1       6.204  -5.531  22.440  0.00  0.00    -0.003 C 
ATOM     25  C   UNL     1       6.241  -5.782  20.943  0.00  0.00    +0.004 C 
ENDBRANCH  23  24
ENDBRANCH  22  23
ENDBRANCH  21  22
ENDBRANCH  20  21
ENDBRANCH  19  20
ENDBRANCH  18  19
ENDBRANCH  17  18
ENDBRANCH  16  17
ENDBRANCH  15  16
ENDBRANCH  14  15
ENDBRANCH   1  14
TORSDOF 18
ENDMDL
MODEL 5
REMARK VINA RESULT:      -4.3      3.072      6.261
REMARK  Name = 
REMARK  19 active torsions:
REMARK  status: ('A' for Active; 'I' for Inactive)
REMARK    1  A    between atoms: CA_2  and  N_3
REMARK    2  A    between atoms: CA_2  and  C_4
REMARK    3  A    between atoms: CA_2  and  C_6
REMARK    4  A    between atoms: C_4  and  O_5
REMARK    5  A    between atoms: C_6  and  O_8
REMARK    6  A    between atoms: C_6  and  C_9
REMARK    7  A    between atoms: C_10  and  C_11
REMARK    8  A    between atoms: C_11  and  C_12
REMARK    9  A    between atoms: C_12  and  C_13
REMARK   10  A    between atoms: C_13  and  C_14
REMARK   11  A    between atoms: C_14  and  C_15
REMARK   12  A    between atoms: C_15  and  C_16
REMARK   13  A    between atoms: C_16  and  C_17
REMARK   14  A    between atoms: C_17  and  C_18
REMARK   15  A    between atoms: C_18  and  C_19
REMARK   16  A    between atoms: C_19  and  C_20
REMARK   17  A    between atoms: C_20  and  C_21
REMARK   18  A    between atoms: C_21  and  C_22
REMARK   19  A    between atoms: C_22  and  C_23
REMARK                            x       y       z     vdW  Elec       q    Type
REMARK                         _______ _______ _______ _____ _____    ______ ____
ROOT
ATOM      1  C   UNL     1       6.793  -0.958  24.249  0.00  0.00    +0.027 C 
ENDROOT
BRANCH   1   3
ATOM      2  C   UNL     1       5.405  -2.969  23.568  0.00  0.00    +0.001 C 
ATOM      3  C   UNL     1       5.605  -1.880  24.323  0.00  0.00    -0.029 C 
BRANCH   2   4
ATOM      4  C   UNL     1       6.364  -3.507  22.553  0.00  0.00    +0.156 C 
BRANCH   4   5
ATOM      5  O   UNL     1       5.687  -3.581  21.303  0.00  0.00    -0.386 OA
ATOM      6  H   UNL     1       5.752  -4.518  21.038  0.00  0.00    +0.210 HD
ENDBRANCH   4   5
BRANCH   4   7
ATOM      7  CA  UNL     1       6.932  -4.892  22.963  0.00  0.00    +0.109 C 
BRANCH   7   8
ATOM      8  N   UNL     1       8.256  -4.742  23.625  0.00  0.00    -0.323 NA
ATOM      9  H1  UNL     1       8.118  -4.766  24.639  0.00  0.00    +0.119 HD
ATOM     10  H2  UNL     1       8.789  -5.592  23.426  0.00  0.00    +0.119 HD
ENDBRANCH   7   8
BRANCH   7  11
ATOM     11  C   UNL     1       7.045  -5.858  21.767  0.00  0.00    +0.177 C 
BRANCH  11  12
ATOM     12  O   UNL     1       5.798  -6.524  21.553  0.00  0.00    -0.393 OA
ATOM     13  H   UNL     1       6.010  -7.476  21.596  0.00  0.00    +0.209 HD
ENDBRANCH  11  12
ENDBRANCH   7  11
ENDBRANCH   4   7
ENDBRANCH   2   4
ENDBRANCH   1   3
BRANCH   1  14
ATOM     14  C   UNL     1       7.808  -1.239  25.361  0.00  0.00    +0.004 C 
BRANCH  14  15
ATOM     15  C   UNL     1       9.246  -1.421  24.867  0.00  0.00    +0.000 C 
BRANCH  15  16
ATOM     16  C   UNL     1      10.027  -0.113  24.919  0.00  0.00    +0.000 C 
BRANCH  16  17
ATOM     17  C   UNL     1      10.665   0.212  23.579  0.00  0.00    +0.000 C 
BRANCH  17  18
ATOM     18  C   UNL     1      10.176  -0.785  22.535  0.00  0.00    +0.000 C 
BRANCH  18  19
ATOM     19  C   UNL     1       9.476  -0.068  21.395  0.00  0.00    -0.000 C 
BRANCH  19  20
ATOM     20  C   UNL     1       9.350   1.417  21.698  0.00  0.00    -0.000 C 
BRANCH  20  21
ATOM     21  C   UNL     1       7.885   1.825  21.730  0.00  0.00    -0.000 C 
BRANCH  21  22
ATOM     22  C   UNL     1       7.693   3.090  22.558  0.00  0.00    -0.000 C 
BRANCH  22  23
ATOM     23  C   UNL     1       8.908   3.334  23.447  0.00  0.00    -0.000 C 
BRANCH  23  24
ATOM     24  C   UNL     1       8.485   3.661  24.874  0.00  0.00    -0.003 C 
ATOM     25  C   UNL     1       7.639   2.545  25.459  0.00  0.00    +0.004 C 
ENDBRANCH  23  24
ENDBRANCH  22  23
ENDBRANCH  21  22
ENDBRANCH  20  21
ENDBRANCH  19  20
ENDBRANCH  18  19
ENDBRANCH  17  18
ENDBRANCH  16  17
ENDBRANCH  15  16
ENDBRANCH  14  15
ENDBRANCH   1  14
TORSDOF 18
ENDMDL
MODEL 6
REMARK VINA RESULT:      -4.3      1.972      2.938
REMARK  Name = 
REMARK  19 active torsions:
REMARK  status: ('A' for Active; 'I' for Inactive)
REMARK    1  A    between atoms: CA_2  and  N_3
REMARK    2  A    between atoms: CA_2  and  C_4
REMARK    3  A    between atoms: CA_2  and  C_6
REMARK    4  A    between atoms: C_4  and  O_5
REMARK    5  A    between atoms: C_6  and  O_8
REMARK    6  A    between atoms: C_6  and  C_9
REMARK    7  A    between atoms: C_10  and  C_11
REMARK    8  A    between atoms: C_11  and  C_12
REMARK    9  A    between atoms: C_12  and  C_13
REMARK   10  A    between atoms: C_13  and  C_14
REMARK   11  A    between atoms: C_14  and  C_15
REMARK   12  A    between atoms: C_15  and  C_16
REMARK   13  A    between atoms: C_16  and  C_17
REMARK   14  A    between atoms: C_17  and  C_18
REMARK   15  A    between atoms: C_18  and  C_19
REMARK   16  A    between atoms: C_19  and  C_20
REMARK   17  A    between atoms: C_20  and  C_21
REMARK   18  A    between atoms: C_21  and  C_22
REMARK   19  A    between atoms: C_22  and  C_23
REMARK                            x       y       z     vdW  Elec       q    Type
REMARK                         _______ _______ _______ _____ _____    ______ ____
ROOT
ATOM      1  C   UNL     1       9.565  -0.351  24.880  0.00  0.00    +0.027 C 
ENDROOT
BRANCH   1   3
ATOM      2  C   UNL     1      10.724   1.665  23.869  0.00  0.00    +0.001 C 
ATOM      3  C   UNL     1      10.667   0.666  24.761  0.00  0.00    -0.029 C 
BRANCH   2   4
ATOM      4  C   UNL     1       9.664   1.992  22.866  0.00  0.00    +0.156 C 
BRANCH   4   5
ATOM      5  O   UNL     1      10.305   2.337  21.643  0.00  0.00    -0.386 OA
ATOM      6  H   UNL     1      10.682   3.223  21.799  0.00  0.00    +0.210 HD
ENDBRANCH   4   5
BRANCH   4   7
ATOM      7  CA  UNL     1       8.735   3.136  23.350  0.00  0.00    +0.109 C 
BRANCH   7   8
ATOM      8  N   UNL     1       7.952   3.694  22.214  0.00  0.00    -0.323 NA
ATOM      9  H1  UNL     1       7.673   2.924  21.600  0.00  0.00    +0.119 HD
ATOM     10  H2  UNL     1       7.068   4.039  22.598  0.00  0.00    +0.119 HD
ENDBRANCH   7   8
BRANCH   7  11
ATOM     11  C   UNL     1       9.509   4.262  24.062  0.00  0.00    +0.177 C 
BRANCH  11  12
ATOM     12  O   UNL     1      10.204   5.064  23.102  0.00  0.00    -0.393 OA
ATOM     13  H   UNL     1      10.925   4.495  22.772  0.00  0.00    +0.209 HD
ENDBRANCH  11  12
ENDBRANCH   7  11
ENDBRANCH   4   7
ENDBRANCH   2   4
ENDBRANCH   1   3
BRANCH   1  14
ATOM     14  C   UNL     1       9.680  -1.450  23.819  0.00  0.00    +0.004 C 
BRANCH  14  15
ATOM     15  C   UNL     1       8.437  -1.606  22.938  0.00  0.00    +0.000 C 
BRANCH  15  16
ATOM     16  C   UNL     1       7.251  -0.832  23.501  0.00  0.00    +0.000 C 
BRANCH  16  17
ATOM     17  C   UNL     1       6.173  -1.764  24.027  0.00  0.00    +0.000 C 
BRANCH  17  18
ATOM     18  C   UNL     1       6.071  -1.611  25.540  0.00  0.00    +0.000 C 
BRANCH  18  19
ATOM     19  C   UNL     1       6.188  -2.960  26.225  0.00  0.00    -0.000 C 
BRANCH  19  20
ATOM     20  C   UNL     1       7.631  -3.440  26.213  0.00  0.00    -0.000 C 
BRANCH  20  21
ATOM     21  C   UNL     1       7.700  -4.892  25.765  0.00  0.00    -0.000 C 
BRANCH  21  22
ATOM     22  C   UNL     1       8.087  -4.987  24.294  0.00  0.00    -0.000 C 
BRANCH  22  23
ATOM     23  C   UNL     1       6.868  -5.330  23.444  0.00  0.00    -0.000 C 
BRANCH  23  24
ATOM     24  C   UNL     1       7.069  -4.894  21.998  0.00  0.00    -0.003 C 
ATOM     25  C   UNL     1       6.266  -5.768  21.050  0.00  0.00    +0.004 C 
ENDBRANCH  23  24
ENDBRANCH  22  23
ENDBRANCH  21  22
ENDBRANCH  20  21
ENDBRANCH  19  20
ENDBRANCH  18  19
ENDBRANCH  17  18
ENDBRANCH  16  17
ENDBRANCH  15  16
ENDBRANCH  14  15
ENDBRANCH   1  14
TORSDOF 18
ENDMDL
MODEL 7
REMARK VINA RESULT:      -4.2      1.797      3.370
REMARK  Name = 
REMARK  19 active torsions:
REMARK  status: ('A' for Active; 'I' for Inactive)
REMARK    1  A    between atoms: CA_2  and  N_3
REMARK    2  A    between atoms: CA_2  and  C_4
REMARK    3  A    between atoms: CA_2  and  C_6
REMARK    4  A    between atoms: C_4  and  O_5
REMARK    5  A    between atoms: C_6  and  O_8
REMARK    6  A    between atoms: C_6  and  C_9
REMARK    7  A    between atoms: C_10  and  C_11
REMARK    8  A    between atoms: C_11  and  C_12
REMARK    9  A    between atoms: C_12  and  C_13
REMARK   10  A    between atoms: C_13  and  C_14
REMARK   11  A    between atoms: C_14  and  C_15
REMARK   12  A    between atoms: C_15  and  C_16
REMARK   13  A    between atoms: C_16  and  C_17
REMARK   14  A    between atoms: C_17  and  C_18
REMARK   15  A    between atoms: C_18  and  C_19
REMARK   16  A    between atoms: C_19  and  C_20
REMARK   17  A    between atoms: C_20  and  C_21
REMARK   18  A    between atoms: C_21  and  C_22
REMARK   19  A    between atoms: C_22  and  C_23
REMARK                            x       y       z     vdW  Elec       q    Type
REMARK                         _______ _______ _______ _____ _____    ______ ____
ROOT
ATOM      1  C   UNL     1      10.155  -0.535  24.449  0.00  0.00    +0.027 C 
ENDROOT
BRANCH   1   3
ATOM      2  C   UNL     1       9.804   1.874  23.738  0.00  0.00    +0.001 C 
ATOM      3  C   UNL     1      10.327   0.956  24.562  0.00  0.00    -0.029 C 
BRANCH   2   4
ATOM      4  C   UNL     1       8.894   1.585  22.586  0.00  0.00    +0.156 C 
BRANCH   4   5
ATOM      5  O   UNL     1       9.444   2.198  21.424  0.00  0.00    -0.386 OA
ATOM      6  H   UNL     1       9.941   2.968  21.759  0.00  0.00    +0.210 HD
ENDBRANCH   4   5
BRANCH   4   7
ATOM      7  CA  UNL     1       7.447   2.082  22.846  0.00  0.00    +0.109 C 
BRANCH   7   8
ATOM      8  N   UNL     1       6.475   0.964  22.709  0.00  0.00    -0.323 NA
ATOM      9  H1  UNL     1       5.572   1.349  22.421  0.00  0.00    +0.119 HD
ATOM     10  H2  UNL     1       6.773   0.401  21.908  0.00  0.00    +0.119 HD
ENDBRANCH   7   8
BRANCH   7  11
ATOM     11  C   UNL     1       7.048   3.245  21.916  0.00  0.00    +0.177 C 
BRANCH  11  12
ATOM     12  O   UNL     1       7.875   4.384  22.170  0.00  0.00    -0.393 OA
ATOM     13  H   UNL     1       8.776   4.024  22.272  0.00  0.00    +0.209 HD
ENDBRANCH  11  12
ENDBRANCH   7  11
ENDBRANCH   4   7
ENDBRANCH   2   4
ENDBRANCH   1   3
BRANCH   1  14
ATOM     14  C   UNL     1       8.909  -1.028  25.190  0.00  0.00    +0.004 C 
BRANCH  14  15
ATOM     15  C   UNL     1       7.989  -1.920  24.351  0.00  0.00    +0.000 C 
BRANCH  15  16
ATOM     16  C   UNL     1       8.749  -3.094  23.745  0.00  0.00    +0.000 C 
BRANCH  16  17
ATOM     17  C   UNL     1       9.377  -3.968  24.816  0.00  0.00    +0.000 C 
BRANCH  17  18
ATOM     18  C   UNL     1       8.554  -5.242  24.970  0.00  0.00    +0.000 C 
BRANCH  18  19
ATOM     19  C   UNL     1       7.900  -5.296  26.339  0.00  0.00    -0.000 C 
BRANCH  19  20
ATOM     20  C   UNL     1       6.474  -4.770  26.268  0.00  0.00    -0.000 C 
BRANCH  20  21
ATOM     21  C   UNL     1       5.742  -5.391  25.087  0.00  0.00    -0.000 C 
BRANCH  21  22
ATOM     22  C   UNL     1       4.993  -4.327  24.295  0.00  0.00    -0.000 C 
BRANCH  22  23
ATOM     23  C   UNL     1       5.373  -4.396  22.820  0.00  0.00    -0.000 C 
BRANCH  23  24
ATOM     24  C   UNL     1       5.830  -5.799  22.437  0.00  0.00    -0.003 C 
ATOM     25  C   UNL     1       7.077  -5.747  21.572  0.00  0.00    +0.004 C 
ENDBRANCH  23  24
ENDBRANCH  22  23
ENDBRANCH  21  22
ENDBRANCH  20  21
ENDBRANCH  19  20
ENDBRANCH  18  19
ENDBRANCH  17  18
ENDBRANCH  16  17
ENDBRANCH  15  16
ENDBRANCH  14  15
ENDBRANCH   1  14
TORSDOF 18
ENDMDL
MODEL 8
REMARK VINA RESULT:      -4.2      1.897      3.814
REMARK  Name = 
REMARK  19 active torsions:
REMARK  status: ('A' for Active; 'I' for Inactive)
REMARK    1  A    between atoms: CA_2  and  N_3
REMARK    2  A    between atoms: CA_2  and  C_4
REMARK    3  A    between atoms: CA_2  and  C_6
REMARK    4  A    between atoms: C_4  and  O_5
REMARK    5  A    between atoms: C_6  and  O_8
REMARK    6  A    between atoms: C_6  and  C_9
REMARK    7  A    between atoms: C_10  and  C_11
REMARK    8  A    between atoms: C_11  and  C_12
REMARK    9  A    between atoms: C_12  and  C_13
REMARK   10  A    between atoms: C_13  and  C_14
REMARK   11  A    between atoms: C_14  and  C_15
REMARK   12  A    between atoms: C_15  and  C_16
REMARK   13  A    between atoms: C_16  and  C_17
REMARK   14  A    between atoms: C_17  and  C_18
REMARK   15  A    between atoms: C_18  and  C_19
REMARK   16  A    between atoms: C_19  and  C_20
REMARK   17  A    between atoms: C_20  and  C_21
REMARK   18  A    between atoms: C_21  and  C_22
REMARK   19  A    between atoms: C_22  and  C_23
REMARK                            x       y       z     vdW  Elec       q    Type
REMARK                         _______ _______ _______ _____ _____    ______ ____
ROOT
ATOM      1  C   UNL     1       8.156  -1.753  22.419  0.00  0.00    +0.027 C 
ENDROOT
BRANCH   1   3
ATOM      2  C   UNL     1       9.998  -0.076  21.943  0.00  0.00    +0.001 C 
ATOM      3  C   UNL     1       9.539  -1.334  21.998  0.00  0.00    -0.029 C 
BRANCH   2   4
ATOM      4  C   UNL     1       9.236   1.143  22.357  0.00  0.00    +0.156 C 
BRANCH   4   5
ATOM      5  O   UNL     1       9.076   1.974  21.211  0.00  0.00    -0.386 OA
ATOM      6  H   UNL     1       9.844   2.575  21.230  0.00  0.00    +0.210 HD
ENDBRANCH   4   5
BRANCH   4   7
ATOM      7  CA  UNL     1       9.940   1.910  23.507  0.00  0.00    +0.109 C 
BRANCH   7   8
ATOM      8  N   UNL     1      10.687   3.083  22.978  0.00  0.00    -0.323 NA
ATOM      9  H1  UNL     1      11.004   3.651  23.767  0.00  0.00    +0.119 HD
ATOM     10  H2  UNL     1      11.552   2.726  22.564  0.00  0.00    +0.119 HD
ENDBRANCH   7   8
BRANCH   7  11
ATOM     11  C   UNL     1      10.885   1.007  24.324  0.00  0.00    +0.177 C 
BRANCH  11  12
ATOM     12  O   UNL     1      10.213   0.518  25.489  0.00  0.00    -0.393 OA
ATOM     13  H   UNL     1       9.560   1.207  25.712  0.00  0.00    +0.209 HD
ENDBRANCH  11  12
ENDBRANCH   7  11
ENDBRANCH   4   7
ENDBRANCH   2   4
ENDBRANCH   1   3
BRANCH   1  14
ATOM     14  C   UNL     1       8.026  -1.862  23.941  0.00  0.00    +0.004 C 
BRANCH  14  15
ATOM     15  C   UNL     1       9.084  -2.752  24.600  0.00  0.00    +0.000 C 
BRANCH  15  16
ATOM     16  C   UNL     1       8.929  -4.209  24.180  0.00  0.00    +0.000 C 
BRANCH  16  17
ATOM     17  C   UNL     1       9.217  -5.157  25.332  0.00  0.00    +0.000 C 
BRANCH  17  18
ATOM     18  C   UNL     1       8.677  -4.555  26.624  0.00  0.00    +0.000 C 
BRANCH  18  19
ATOM     19  C   UNL     1       7.379  -5.231  27.030  0.00  0.00    -0.000 C 
BRANCH  19  20
ATOM     20  C   UNL     1       6.186  -4.391  26.603  0.00  0.00    -0.000 C 
BRANCH  20  21
ATOM     21  C   UNL     1       5.334  -5.157  25.602  0.00  0.00    -0.000 C 
BRANCH  21  22
ATOM     22  C   UNL     1       5.317  -4.451  24.252  0.00  0.00    -0.000 C 
BRANCH  22  23
ATOM     23  C   UNL     1       4.906  -5.420  23.150  0.00  0.00    -0.000 C 
BRANCH  23  24
ATOM     24  C   UNL     1       6.121  -6.125  22.559  0.00  0.00    -0.003 C 
ATOM     25  C   UNL     1       6.746  -5.295  21.452  0.00  0.00    +0.004 C 
ENDBRANCH  23  24
ENDBRANCH  22  23
ENDBRANCH  21  22
ENDBRANCH  20  21
ENDBRANCH  19  20
ENDBRANCH  18  19
ENDBRANCH  17  18
ENDBRANCH  16  17
ENDBRANCH  15  16
ENDBRANCH  14  15
ENDBRANCH   1  14
TORSDOF 18
ENDMDL
MODEL 9
REMARK VINA RESULT:      -4.2      3.298      6.485
REMARK  Name = 
REMARK  19 active torsions:
REMARK  status: ('A' for Active; 'I' for Inactive)
REMARK    1  A    between atoms: CA_2  and  N_3
REMARK    2  A    between atoms: CA_2  and  C_4
REMARK    3  A    between atoms: CA_2  and  C_6
REMARK    4  A    between atoms: C_4  and  O_5
REMARK    5  A    between atoms: C_6  and  O_8
REMARK    6  A    between atoms: C_6  and  C_9
REMARK    7  A    between atoms: C_10  and  C_11
REMARK    8  A    between atoms: C_11  and  C_12
REMARK    9  A    between atoms: C_12  and  C_13
REMARK   10  A    between atoms: C_13  and  C_14
REMARK   11  A    between atoms: C_14  and  C_15
REMARK   12  A    between atoms: C_15  and  C_16
REMARK   13  A    between atoms: C_16  and  C_17
REMARK   14  A    between atoms: C_17  and  C_18
REMARK   15  A    between atoms: C_18  and  C_19
REMARK   16  A    between atoms: C_19  and  C_20
REMARK   17  A    between atoms: C_20  and  C_21
REMARK   18  A    between atoms: C_21  and  C_22
REMARK   19  A    between atoms: C_22  and  C_23
REMARK                            x       y       z     vdW  Elec       q    Type
REMARK                         _______ _______ _______ _____ _____    ______ ____
ROOT
ATOM      1  C   UNL     1       8.106  -1.248  24.849  0.00  0.00    +0.027 C 
ENDROOT
BRANCH   1   3
ATOM      2  C   UNL     1       8.481  -3.172  23.240  0.00  0.00    +0.001 C 
ATOM      3  C   UNL     1       8.492  -1.864  23.531  0.00  0.00    -0.029 C 
BRANCH   2   4
ATOM      4  C   UNL     1       8.019  -4.259  24.157  0.00  0.00    +0.156 C 
BRANCH   4   5
ATOM      5  O   UNL     1       6.700  -3.942  24.588  0.00  0.00    -0.386 OA
ATOM      6  H   UNL     1       6.419  -3.205  24.015  0.00  0.00    +0.210 HD
ENDBRANCH   4   5
BRANCH   4   7
ATOM      7  CA  UNL     1       8.971  -4.446  25.368  0.00  0.00    +0.109 C 
BRANCH   7   8
ATOM      8  N   UNL     1       9.807  -5.665  25.197  0.00  0.00    -0.323 NA
ATOM      9  H1  UNL     1      10.474  -5.715  25.971  0.00  0.00    +0.119 HD
ATOM     10  H2  UNL     1       9.195  -6.473  25.343  0.00  0.00    +0.119 HD
ENDBRANCH   7   8
BRANCH   7  11
ATOM     11  C   UNL     1       8.213  -4.510  26.708  0.00  0.00    +0.177 C 
BRANCH  11  12
ATOM     12  O   UNL     1       8.267  -5.836  27.242  0.00  0.00    -0.393 OA
ATOM     13  H   UNL     1       8.421  -5.717  28.198  0.00  0.00    +0.209 HD
ENDBRANCH  11  12
ENDBRANCH   7  11
ENDBRANCH   4   7
ENDBRANCH   2   4
ENDBRANCH   1   3
BRANCH   1  14
ATOM     14  C   UNL     1       9.179  -0.288  25.371  0.00  0.00    +0.004 C 
BRANCH  14  15
ATOM     15  C   UNL     1      10.290   0.022  24.364  0.00  0.00    +0.000 C 
BRANCH  15  16
ATOM     16  C   UNL     1      10.591   1.515  24.304  0.00  0.00    +0.000 C 
BRANCH  16  17
ATOM     17  C   UNL     1      10.210   2.110  22.960  0.00  0.00    +0.000 C 
BRANCH  17  18
ATOM     18  C   UNL     1      10.030   0.985  21.947  0.00  0.00    +0.000 C 
BRANCH  18  19
ATOM     19  C   UNL     1       8.714   1.137  21.205  0.00  0.00    -0.000 C 
BRANCH  19  20
ATOM     20  C   UNL     1       7.794   2.097  21.944  0.00  0.00    -0.000 C 
BRANCH  20  21
ATOM     21  C   UNL     1       6.650   1.334  22.594  0.00  0.00    -0.000 C 
BRANCH  21  22
ATOM     22  C   UNL     1       6.403   1.834  24.012  0.00  0.00    -0.000 C 
BRANCH  22  23
ATOM     23  C   UNL     1       6.854   3.284  24.151  0.00  0.00    -0.000 C 
BRANCH  23  24
ATOM     24  C   UNL     1       7.709   3.473  25.399  0.00  0.00    -0.003 C 
ATOM     25  C   UNL     1       8.610   4.688  25.260  0.00  0.00    +0.004 C 
ENDBRANCH  23  24
ENDBRANCH  22  23
ENDBRANCH  21  22
ENDBRANCH  20  21
ENDBRANCH  19  20
ENDBRANCH  18  19
ENDBRANCH  17  18
ENDBRANCH  16  17
ENDBRANCH  15  16
ENDBRANCH  14  15
ENDBRANCH   1  14
TORSDOF 18
ENDMDL
