MODEL 1
REMARK VINA RESULT:      -7.7      0.000      0.000
REMARK  Name = 
REMARK  8 active torsions:
REMARK  status: ('A' for Active; 'I' for Inactive)
REMARK    1  A    between atoms: O_1  and  C_2
REMARK    2  A    between atoms: C_2  and  C_4
REMARK    3  A    between atoms: C_4  and  C_5
REMARK    4  A    between atoms: C_5  and  C_6
REMARK    5  A    between atoms: C_8  and  N_9
REMARK    6  A    between atoms: N_9  and  C_10
REMARK    7  A    between atoms: C_18  and  N_19
REMARK    8  A    between atoms: N_19  and  C_20
REMARK                            x       y       z     vdW  Elec       q    Type
REMARK                         _______ _______ _______ _____ _____    ______ ____
ROOT
ATOM      1  C   UNL     1       9.268   3.213  23.684  0.00  0.00    -0.045 A 
ATOM      2  C   UNL     1       8.062   3.282  22.992  0.00  0.00    +0.005 A 
ATOM      3  C   UNL     1       7.227   2.166  22.913  0.00  0.00    +0.025 A 
ATOM      4  C   UNL     1       7.568   0.940  23.509  0.00  0.00    +0.052 A 
ATOM      5  C   UNL     1       8.802   0.845  24.207  0.00  0.00    +0.053 A 
ATOM      6  C   UNL     1       9.618   1.993  24.288  0.00  0.00    +0.028 A 
ENDROOT
BRANCH   4   7
ATOM      7  N   UNL     1       6.755  -0.199  23.317  0.00  0.00    -0.318 N 
ATOM      8  H   UNL     1       5.809  -0.163  23.705  0.00  0.00    +0.152 HD
BRANCH   7   9
ATOM      9  C   UNL     1       7.032  -1.322  22.570  0.00  0.00    +0.083 C 
ATOM     10  C   UNL     1       6.535  -2.564  22.700  0.00  0.00    +0.035 C 
ATOM     11  C   UNL     1       5.509  -2.851  23.759  0.00  0.00    +0.187 C 
ATOM     12  O   UNL     1       5.056  -2.001  24.518  0.00  0.00    -0.287 OA
ATOM     13  C   UNL     1       5.029  -4.256  23.843  0.00  0.00    +0.051 C 
ATOM     14  C   UNL     1       5.485  -5.190  22.997  0.00  0.00    +0.004 C 
ATOM     15  C   UNL     1       6.464  -4.889  21.979  0.00  0.00    +0.001 C 
ATOM     16  C   UNL     1       6.963  -3.655  21.835  0.00  0.00    +0.013 C 
ENDBRANCH   7   9
ENDBRANCH   4   7
BRANCH   5  17
ATOM     17  N   UNL     1       9.184  -0.378  24.808  0.00  0.00    -0.318 N 
ATOM     18  H   UNL     1      10.152  -0.669  24.645  0.00  0.00    +0.152 HD
BRANCH  17  19
ATOM     19  C   UNL     1       8.494  -1.188  25.677  0.00  0.00    +0.083 C 
ATOM     20  C   UNL     1       8.473  -2.535  25.729  0.00  0.00    +0.035 C 
ATOM     21  C   UNL     1       9.272  -3.332  24.737  0.00  0.00    +0.187 C 
ATOM     22  O   UNL     1       9.994  -2.829  23.882  0.00  0.00    -0.287 OA
ATOM     23  C   UNL     1       9.158  -4.811  24.838  0.00  0.00    +0.051 C 
ATOM     24  C   UNL     1       8.403  -5.376  25.789  0.00  0.00    +0.004 C 
ATOM     25  C   UNL     1       7.660  -4.592  26.746  0.00  0.00    +0.001 C 
ATOM     26  C   UNL     1       7.688  -3.251  26.722  0.00  0.00    +0.013 C 
ENDBRANCH  17  19
ENDBRANCH   5  17
BRANCH   1  27
ATOM     27  C   UNL     1      10.252   4.362  23.727  0.00  0.00    +0.046 C 
BRANCH  27  28
ATOM     28  C   UNL     1      11.676   3.999  23.309  0.00  0.00    +0.125 C 
BRANCH  28  29
ATOM     29  C   UNL     1      12.633   5.143  23.531  0.00  0.00    +0.305 C 
ATOM     30  O   UNL     1      12.346   6.223  24.021  0.00  0.00    -0.251 OA
BRANCH  29  31
ATOM     31  O   UNL     1      13.890   4.839  23.131  0.00  0.00    -0.481 OA
ATOM     32  H   UNL     1      13.922   4.241  22.359  0.00  0.00    +0.295 HD
ENDBRANCH  29  31
ENDBRANCH  28  29
ENDBRANCH  27  28
ENDBRANCH   1  27
TORSDOF 8
ENDMDL
MODEL 2
REMARK VINA RESULT:      -7.6      1.284      2.050
REMARK  Name = 
REMARK  8 active torsions:
REMARK  status: ('A' for Active; 'I' for Inactive)
REMARK    1  A    between atoms: O_1  and  C_2
REMARK    2  A    between atoms: C_2  and  C_4
REMARK    3  A    between atoms: C_4  and  C_5
REMARK    4  A    between atoms: C_5  and  C_6
REMARK    5  A    between atoms: C_8  and  N_9
REMARK    6  A    between atoms: N_9  and  C_10
REMARK    7  A    between atoms: C_18  and  N_19
REMARK    8  A    between atoms: N_19  and  C_20
REMARK                            x       y       z     vdW  Elec       q    Type
REMARK                         _______ _______ _______ _____ _____    ______ ____
ROOT
ATOM      1  C   UNL     1      10.034   2.562  23.434  0.00  0.00    -0.045 A 
ATOM      2  C   UNL     1       9.948   2.053  22.141  0.00  0.00    +0.005 A 
ATOM      3  C   UNL     1       9.383   0.798  21.910  0.00  0.00    +0.025 A 
ATOM      4  C   UNL     1       8.894   0.000  22.958  0.00  0.00    +0.052 A 
ATOM      5  C   UNL     1       8.987   0.495  24.288  0.00  0.00    +0.053 A 
ATOM      6  C   UNL     1       9.545   1.774  24.490  0.00  0.00    +0.028 A 
ENDROOT
BRANCH   4   7
ATOM      7  N   UNL     1       8.430  -1.309  22.704  0.00  0.00    -0.318 N 
ATOM      8  H   UNL     1       9.138  -2.043  22.619  0.00  0.00    +0.152 HD
BRANCH   7   9
ATOM      9  C   UNL     1       7.128  -1.755  22.667  0.00  0.00    +0.083 C 
ATOM     10  C   UNL     1       6.662  -3.009  22.803  0.00  0.00    +0.035 C 
ATOM     11  C   UNL     1       7.619  -4.137  23.062  0.00  0.00    +0.187 C 
ATOM     12  O   UNL     1       8.830  -3.989  23.193  0.00  0.00    -0.287 OA
ATOM     13  C   UNL     1       7.019  -5.493  23.179  0.00  0.00    +0.051 C 
ATOM     14  C   UNL     1       5.694  -5.668  23.075  0.00  0.00    +0.004 C 
ATOM     15  C   UNL     1       4.792  -4.567  22.836  0.00  0.00    +0.001 C 
ATOM     16  C   UNL     1       5.241  -3.313  22.705  0.00  0.00    +0.013 C 
ENDBRANCH   7   9
ENDBRANCH   4   7
BRANCH   5  17
ATOM     17  N   UNL     1       8.518  -0.288  25.369  0.00  0.00    -0.318 N 
ATOM     18  H   UNL     1       7.726   0.102  25.887  0.00  0.00    +0.152 HD
BRANCH  17  19
ATOM     19  C   UNL     1       8.879  -1.553  25.767  0.00  0.00    +0.083 C 
ATOM     20  C   UNL     1       8.084  -2.560  26.178  0.00  0.00    +0.035 C 
ATOM     21  C   UNL     1       6.597  -2.355  26.250  0.00  0.00    +0.187 C 
ATOM     22  O   UNL     1       6.035  -1.317  25.915  0.00  0.00    -0.287 OA
ATOM     23  C   UNL     1       5.799  -3.503  26.756  0.00  0.00    +0.051 C 
ATOM     24  C   UNL     1       6.394  -4.655  27.092  0.00  0.00    +0.004 C 
ATOM     25  C   UNL     1       7.822  -4.839  26.995  0.00  0.00    +0.001 C 
ATOM     26  C   UNL     1       8.625  -3.853  26.566  0.00  0.00    +0.013 C 
ENDBRANCH  17  19
ENDBRANCH   5  17
BRANCH   1  27
ATOM     27  C   UNL     1      10.717   3.875  23.751  0.00  0.00    +0.046 C 
BRANCH  27  28
ATOM     28  C   UNL     1      11.962   4.165  22.915  0.00  0.00    +0.125 C 
BRANCH  28  29
ATOM     29  C   UNL     1      12.807   5.251  23.530  0.00  0.00    +0.305 C 
ATOM     30  O   UNL     1      12.401   6.140  24.260  0.00  0.00    -0.251 OA
BRANCH  29  31
ATOM     31  O   UNL     1      14.113   5.132  23.190  0.00  0.00    -0.481 OA
ATOM     32  H   UNL     1      14.711   5.042  23.956  0.00  0.00    +0.295 HD
ENDBRANCH  29  31
ENDBRANCH  28  29
ENDBRANCH  27  28
ENDBRANCH   1  27
TORSDOF 8
ENDMDL
MODEL 3
REMARK VINA RESULT:      -7.1      1.798      4.076
REMARK  Name = 
REMARK  8 active torsions:
REMARK  status: ('A' for Active; 'I' for Inactive)
REMARK    1  A    between atoms: O_1  and  C_2
REMARK    2  A    between atoms: C_2  and  C_4
REMARK    3  A    between atoms: C_4  and  C_5
REMARK    4  A    between atoms: C_5  and  C_6
REMARK    5  A    between atoms: C_8  and  N_9
REMARK    6  A    between atoms: N_9  and  C_10
REMARK    7  A    between atoms: C_18  and  N_19
REMARK    8  A    between atoms: N_19  and  C_20
REMARK                            x       y       z     vdW  Elec       q    Type
REMARK                         _______ _______ _______ _____ _____    ______ ____
ROOT
ATOM      1  C   UNL     1       7.956   2.610  22.582  0.00  0.00    -0.045 A 
ATOM      2  C   UNL     1       9.108   2.650  23.364  0.00  0.00    +0.005 A 
ATOM      3  C   UNL     1       9.544   1.510  24.041  0.00  0.00    +0.025 A 
ATOM      4  C   UNL     1       8.843   0.294  23.974  0.00  0.00    +0.052 A 
ATOM      5  C   UNL     1       7.656   0.236  23.194  0.00  0.00    +0.053 A 
ATOM      6  C   UNL     1       7.249   1.398  22.505  0.00  0.00    +0.028 A 
ENDROOT
BRANCH   4   7
ATOM      7  N   UNL     1       9.248  -0.809  24.757  0.00  0.00    -0.318 N 
ATOM      8  H   UNL     1      10.240  -1.061  24.725  0.00  0.00    +0.152 HD
BRANCH   7   9
ATOM      9  C   UNL     1       8.498  -1.531  25.658  0.00  0.00    +0.083 C 
ATOM     10  C   UNL     1       8.410  -2.864  25.805  0.00  0.00    +0.035 C 
ATOM     11  C   UNL     1       9.230  -3.767  24.929  0.00  0.00    +0.187 C 
ATOM     12  O   UNL     1      10.022  -3.364  24.083  0.00  0.00    -0.287 OA
ATOM     13  C   UNL     1       9.055  -5.228  25.148  0.00  0.00    +0.051 C 
ATOM     14  C   UNL     1       8.223  -5.686  26.092  0.00  0.00    +0.004 C 
ATOM     15  C   UNL     1       7.452  -4.799  26.930  0.00  0.00    +0.001 C 
ATOM     16  C   UNL     1       7.534  -3.469  26.799  0.00  0.00    +0.013 C 
ENDBRANCH   7   9
ENDBRANCH   4   7
BRANCH   5  17
ATOM     17  N   UNL     1       6.918  -0.968  23.116  0.00  0.00    -0.318 N 
ATOM     18  H   UNL     1       5.991  -0.949  23.548  0.00  0.00    +0.152 HD
BRANCH  17  19
ATOM     19  C   UNL     1       7.199  -2.135  22.446  0.00  0.00    +0.083 C 
ATOM     20  C   UNL     1       6.647  -3.352  22.616  0.00  0.00    +0.035 C 
ATOM     21  C   UNL     1       5.584  -3.549  23.661  0.00  0.00    +0.187 C 
ATOM     22  O   UNL     1       5.144  -2.645  24.364  0.00  0.00    -0.287 OA
ATOM     23  C   UNL     1       5.061  -4.932  23.812  0.00  0.00    +0.051 C 
ATOM     24  C   UNL     1       5.505  -5.922  23.027  0.00  0.00    +0.004 C 
ATOM     25  C   UNL     1       6.510  -5.708  22.015  0.00  0.00    +0.001 C 
ATOM     26  C   UNL     1       7.054  -4.497  21.818  0.00  0.00    +0.013 C 
ENDBRANCH  17  19
ENDBRANCH   5  17
BRANCH   1  27
ATOM     27  C   UNL     1       7.389   3.836  21.901  0.00  0.00    +0.046 C 
BRANCH  27  28
ATOM     28  C   UNL     1       6.973   4.959  22.849  0.00  0.00    +0.125 C 
BRANCH  28  29
ATOM     29  C   UNL     1       7.557   6.286  22.435  0.00  0.00    +0.305 C 
ATOM     30  O   UNL     1       8.361   6.940  23.080  0.00  0.00    -0.251 OA
BRANCH  29  31
ATOM     31  O   UNL     1       7.095   6.690  21.228  0.00  0.00    -0.481 OA
ATOM     32  H   UNL     1       7.756   6.621  20.512  0.00  0.00    +0.295 HD
ENDBRANCH  29  31
ENDBRANCH  28  29
ENDBRANCH  27  28
ENDBRANCH   1  27
TORSDOF 8
ENDMDL
MODEL 4
REMARK VINA RESULT:      -7.0      1.688      3.800
REMARK  Name = 
REMARK  8 active torsions:
REMARK  status: ('A' for Active; 'I' for Inactive)
REMARK    1  A    between atoms: O_1  and  C_2
REMARK    2  A    between atoms: C_2  and  C_4
REMARK    3  A    between atoms: C_4  and  C_5
REMARK    4  A    between atoms: C_5  and  C_6
REMARK    5  A    between atoms: C_8  and  N_9
REMARK    6  A    between atoms: N_9  and  C_10
REMARK    7  A    between atoms: C_18  and  N_19
REMARK    8  A    between atoms: N_19  and  C_20
REMARK                            x       y       z     vdW  Elec       q    Type
REMARK                         _______ _______ _______ _____ _____    ______ ____
ROOT
ATOM      1  C   UNL     1      10.140   1.354  23.256  0.00  0.00    -0.045 A 
ATOM      2  C   UNL     1      10.621   1.034  24.523  0.00  0.00    +0.005 A 
ATOM      3  C   UNL     1      10.191  -0.124  25.173  0.00  0.00    +0.025 A 
ATOM      4  C   UNL     1       9.259  -0.998  24.590  0.00  0.00    +0.052 A 
ATOM      5  C   UNL     1       8.743  -0.682  23.304  0.00  0.00    +0.053 A 
ATOM      6  C   UNL     1       9.209   0.485  22.662  0.00  0.00    +0.028 A 
ENDROOT
BRANCH   4   7
ATOM      7  N   UNL     1       8.761  -2.102  25.318  0.00  0.00    -0.318 N 
ATOM      8  H   UNL     1       9.366  -2.924  25.384  0.00  0.00    +0.152 HD
BRANCH   7   9
ATOM      9  C   UNL     1       7.600  -2.178  26.054  0.00  0.00    +0.083 C 
ATOM     10  C   UNL     1       6.893  -3.266  26.404  0.00  0.00    +0.035 C 
ATOM     11  C   UNL     1       7.377  -4.631  26.004  0.00  0.00    +0.187 C 
ATOM     12  O   UNL     1       8.419  -4.833  25.389  0.00  0.00    -0.287 OA
ATOM     13  C   UNL     1       6.523  -5.776  26.416  0.00  0.00    +0.051 C 
ATOM     14  C   UNL     1       5.401  -5.578  27.122  0.00  0.00    +0.004 C 
ATOM     15  C   UNL     1       4.960  -4.257  27.504  0.00  0.00    +0.001 C 
ATOM     16  C   UNL     1       5.657  -3.164  27.168  0.00  0.00    +0.013 C 
ENDBRANCH   7   9
ENDBRANCH   4   7
BRANCH   5  17
ATOM     17  N   UNL     1       7.791  -1.533  22.693  0.00  0.00    -0.318 N 
ATOM     18  H   UNL     1       6.928  -1.081  22.380  0.00  0.00    +0.152 HD
BRANCH  17  19
ATOM     19  C   UNL     1       7.887  -2.859  22.344  0.00  0.00    +0.083 C 
ATOM     20  C   UNL     1       6.961  -3.829  22.477  0.00  0.00    +0.035 C 
ATOM     21  C   UNL     1       5.625  -3.506  23.085  0.00  0.00    +0.187 C 
ATOM     22  O   UNL     1       5.294  -2.380  23.446  0.00  0.00    -0.287 OA
ATOM     23  C   UNL     1       4.679  -4.643  23.234  0.00  0.00    +0.051 C 
ATOM     24  C   UNL     1       5.012  -5.870  22.813  0.00  0.00    +0.004 C 
ATOM     25  C   UNL     1       6.291  -6.155  22.211  0.00  0.00    +0.001 C 
ATOM     26  C   UNL     1       7.216  -5.195  22.051  0.00  0.00    +0.013 C 
ENDBRANCH  17  19
ENDBRANCH   5  17
BRANCH   1  27
ATOM     27  C   UNL     1      10.502   2.639  22.545  0.00  0.00    +0.046 C 
BRANCH  27  28
ATOM     28  C   UNL     1      11.275   3.645  23.398  0.00  0.00    +0.125 C 
BRANCH  28  29
ATOM     29  C   UNL     1      10.510   4.932  23.575  0.00  0.00    +0.305 C 
ATOM     30  O   UNL     1      10.987   5.999  23.926  0.00  0.00    -0.251 OA
BRANCH  29  31
ATOM     31  O   UNL     1       9.195   4.786  23.284  0.00  0.00    -0.481 OA
ATOM     32  H   UNL     1       8.627   4.690  24.072  0.00  0.00    +0.295 HD
ENDBRANCH  29  31
ENDBRANCH  28  29
ENDBRANCH  27  28
ENDBRANCH   1  27
TORSDOF 8
ENDMDL
MODEL 5
REMARK VINA RESULT:      -7.0      2.940      8.421
REMARK  Name = 
REMARK  8 active torsions:
REMARK  status: ('A' for Active; 'I' for Inactive)
REMARK    1  A    between atoms: O_1  and  C_2
REMARK    2  A    between atoms: C_2  and  C_4
REMARK    3  A    between atoms: C_4  and  C_5
REMARK    4  A    between atoms: C_5  and  C_6
REMARK    5  A    between atoms: C_8  and  N_9
REMARK    6  A    between atoms: N_9  and  C_10
REMARK    7  A    between atoms: C_18  and  N_19
REMARK    8  A    between atoms: N_19  and  C_20
REMARK                            x       y       z     vdW  Elec       q    Type
REMARK                         _______ _______ _______ _____ _____    ______ ____
ROOT
ATOM      1  C   UNL     1       5.060  -5.098  23.109  0.00  0.00    -0.045 A 
ATOM      2  C   UNL     1       6.303  -5.664  22.838  0.00  0.00    +0.005 A 
ATOM      3  C   UNL     1       7.457  -4.879  22.857  0.00  0.00    +0.025 A 
ATOM      4  C   UNL     1       7.413  -3.502  23.134  0.00  0.00    +0.052 A 
ATOM      5  C   UNL     1       6.152  -2.902  23.398  0.00  0.00    +0.053 A 
ATOM      6  C   UNL     1       5.004  -3.723  23.391  0.00  0.00    +0.028 A 
ENDROOT
BRANCH   4   7
ATOM      7  N   UNL     1       8.582  -2.715  23.037  0.00  0.00    -0.318 N 
ATOM      8  H   UNL     1       9.397  -3.029  23.569  0.00  0.00    +0.152 HD
BRANCH   7   9
ATOM      9  C   UNL     1       8.807  -1.629  22.222  0.00  0.00    +0.083 C 
ATOM     10  C   UNL     1       9.376  -0.449  22.526  0.00  0.00    +0.035 C 
ATOM     11  C   UNL     1       9.893  -0.207  23.916  0.00  0.00    +0.187 C 
ATOM     12  O   UNL     1       9.859  -1.043  24.813  0.00  0.00    -0.287 OA
ATOM     13  C   UNL     1      10.488   1.132  24.170  0.00  0.00    +0.051 C 
ATOM     14  C   UNL     1      10.567   2.045  23.192  0.00  0.00    +0.004 C 
ATOM     15  C   UNL     1      10.074   1.786  21.860  0.00  0.00    +0.001 C 
ATOM     16  C   UNL     1       9.510   0.614  21.541  0.00  0.00    +0.013 C 
ENDBRANCH   7   9
ENDBRANCH   4   7
BRANCH   5  17
ATOM     17  N   UNL     1       6.069  -1.515  23.667  0.00  0.00    -0.318 N 
ATOM     18  H   UNL     1       5.643  -0.945  22.931  0.00  0.00    +0.152 HD
BRANCH  17  19
ATOM     19  C   UNL     1       6.364  -0.819  24.815  0.00  0.00    +0.083 C 
ATOM     20  C   UNL     1       6.622   0.496  24.952  0.00  0.00    +0.035 C 
ATOM     21  C   UNL     1       6.618   1.388  23.742  0.00  0.00    +0.187 C 
ATOM     22  O   UNL     1       6.350   0.999  22.610  0.00  0.00    -0.287 OA
ATOM     23  C   UNL     1       6.955   2.817  23.978  0.00  0.00    +0.051 C 
ATOM     24  C   UNL     1       7.215   3.264  25.214  0.00  0.00    +0.004 C 
ATOM     25  C   UNL     1       7.192   2.396  26.365  0.00  0.00    +0.001 C 
ATOM     26  C   UNL     1       6.915   1.088  26.248  0.00  0.00    +0.013 C 
ENDBRANCH  17  19
ENDBRANCH   5  17
BRANCH   1  27
ATOM     27  C   UNL     1       3.768  -5.881  23.015  0.00  0.00    +0.046 C 
BRANCH  27  28
ATOM     28  C   UNL     1       3.033  -6.061  24.342  0.00  0.00    +0.125 C 
BRANCH  28  29
ATOM     29  C   UNL     1       3.166  -7.468  24.868  0.00  0.00    +0.305 C 
ATOM     30  O   UNL     1       2.693  -8.467  24.352  0.00  0.00    -0.251 OA
BRANCH  29  31
ATOM     31  O   UNL     1       3.898  -7.517  26.006  0.00  0.00    -0.481 OA
ATOM     32  H   UNL     1       3.368  -7.408  26.819  0.00  0.00    +0.295 HD
ENDBRANCH  29  31
ENDBRANCH  28  29
ENDBRANCH  27  28
ENDBRANCH   1  27
TORSDOF 8
ENDMDL
MODEL 6
REMARK VINA RESULT:      -6.9      2.692      8.124
REMARK  Name = 
REMARK  8 active torsions:
REMARK  status: ('A' for Active; 'I' for Inactive)
REMARK    1  A    between atoms: O_1  and  C_2
REMARK    2  A    between atoms: C_2  and  C_4
REMARK    3  A    between atoms: C_4  and  C_5
REMARK    4  A    between atoms: C_5  and  C_6
REMARK    5  A    between atoms: C_8  and  N_9
REMARK    6  A    between atoms: N_9  and  C_10
REMARK    7  A    between atoms: C_18  and  N_19
REMARK    8  A    between atoms: N_19  and  C_20
REMARK                            x       y       z     vdW  Elec       q    Type
REMARK                         _______ _______ _______ _____ _____    ______ ____
ROOT
ATOM      1  C   UNL     1       6.717  -5.092  25.662  0.00  0.00    -0.045 A 
ATOM      2  C   UNL     1       8.030  -5.510  25.457  0.00  0.00    +0.005 A 
ATOM      3  C   UNL     1       9.009  -4.598  25.059  0.00  0.00    +0.025 A 
ATOM      4  C   UNL     1       8.714  -3.242  24.838  0.00  0.00    +0.052 A 
ATOM      5  C   UNL     1       7.377  -2.799  25.026  0.00  0.00    +0.053 A 
ATOM      6  C   UNL     1       6.412  -3.738  25.448  0.00  0.00    +0.028 A 
ENDROOT
BRANCH   4   7
ATOM      7  N   UNL     1       9.701  -2.369  24.329  0.00  0.00    -0.318 N 
ATOM      8  H   UNL     1      10.612  -2.379  24.794  0.00  0.00    +0.152 HD
BRANCH   7   9
ATOM      9  C   UNL     1       9.634  -1.578  23.205  0.00  0.00    +0.083 C 
ATOM     10  C   UNL     1       9.893  -0.265  23.081  0.00  0.00    +0.035 C 
ATOM     11  C   UNL     1      10.353   0.521  24.276  0.00  0.00    +0.187 C 
ATOM     12  O   UNL     1      10.544   0.030  25.384  0.00  0.00    -0.287 OA
ATOM     13  C   UNL     1      10.598   1.971  24.053  0.00  0.00    +0.051 C 
ATOM     14  C   UNL     1      10.431   2.517  22.841  0.00  0.00    +0.004 C 
ATOM     15  C   UNL     1       9.998   1.741  21.704  0.00  0.00    +0.001 C 
ATOM     16  C   UNL     1       9.741   0.431  21.810  0.00  0.00    +0.013 C 
ENDBRANCH   7   9
ENDBRANCH   4   7
BRANCH   5  17
ATOM     17  N   UNL     1       7.042  -1.443  24.800  0.00  0.00    -0.318 N 
ATOM     18  H   UNL     1       6.537  -1.250  23.930  0.00  0.00    +0.152 HD
BRANCH  17  19
ATOM     19  C   UNL     1       7.182  -0.349  25.620  0.00  0.00    +0.083 C 
ATOM     20  C   UNL     1       7.071   0.956  25.301  0.00  0.00    +0.035 C 
ATOM     21  C   UNL     1       6.765   1.354  23.884  0.00  0.00    +0.187 C 
ATOM     22  O   UNL     1       6.566   0.551  22.978  0.00  0.00    -0.287 OA
ATOM     23  C   UNL     1       6.703   2.814  23.612  0.00  0.00    +0.051 C 
ATOM     24  C   UNL     1       6.883   3.703  24.597  0.00  0.00    +0.004 C 
ATOM     25  C   UNL     1       7.154   3.300  25.955  0.00  0.00    +0.001 C 
ATOM     26  C   UNL     1       7.245   2.004  26.293  0.00  0.00    +0.013 C 
ENDBRANCH  17  19
ENDBRANCH   5  17
BRANCH   1  27
ATOM     27  C   UNL     1       5.600  -6.052  26.007  0.00  0.00    +0.046 C 
BRANCH  27  28
ATOM     28  C   UNL     1       4.928  -5.792  27.354  0.00  0.00    +0.125 C 
BRANCH  28  29
ATOM     29  C   UNL     1       5.745  -6.331  28.501  0.00  0.00    +0.305 C 
ATOM     30  O   UNL     1       6.394  -5.660  29.287  0.00  0.00    -0.251 OA
BRANCH  29  31
ATOM     31  O   UNL     1       5.677  -7.681  28.582  0.00  0.00    -0.481 OA
ATOM     32  H   UNL     1       5.116  -8.087  27.894  0.00  0.00    +0.295 HD
ENDBRANCH  29  31
ENDBRANCH  28  29
ENDBRANCH  27  28
ENDBRANCH   1  27
TORSDOF 8
ENDMDL
MODEL 7
REMARK VINA RESULT:      -6.6      3.566      5.726
REMARK  Name = 
REMARK  8 active torsions:
REMARK  status: ('A' for Active; 'I' for Inactive)
REMARK    1  A    between atoms: O_1  and  C_2
REMARK    2  A    between atoms: C_2  and  C_4
REMARK    3  A    between atoms: C_4  and  C_5
REMARK    4  A    between atoms: C_5  and  C_6
REMARK    5  A    between atoms: C_8  and  N_9
REMARK    6  A    between atoms: N_9  and  C_10
REMARK    7  A    between atoms: C_18  and  N_19
REMARK    8  A    between atoms: N_19  and  C_20
REMARK                            x       y       z     vdW  Elec       q    Type
REMARK                         _______ _______ _______ _____ _____    ______ ____
ROOT
ATOM      1  C   UNL     1       9.749   5.848  24.038  0.00  0.00    -0.045 A 
ATOM      2  C   UNL     1       8.845   6.881  24.276  0.00  0.00    +0.005 A 
ATOM      3  C   UNL     1       7.480   6.614  24.395  0.00  0.00    +0.025 A 
ATOM      4  C   UNL     1       6.965   5.313  24.269  0.00  0.00    +0.052 A 
ATOM      5  C   UNL     1       7.869   4.247  24.010  0.00  0.00    +0.053 A 
ATOM      6  C   UNL     1       9.245   4.542  23.914  0.00  0.00    +0.028 A 
ENDROOT
BRANCH   4   7
ATOM      7  N   UNL     1       5.570   5.091  24.284  0.00  0.00    -0.318 N 
ATOM      8  H   UNL     1       5.215   4.422  24.971  0.00  0.00    +0.152 HD
BRANCH   7   9
ATOM      9  C   UNL     1       4.600   5.749  23.562  0.00  0.00    +0.083 C 
ATOM     10  C   UNL     1       3.702   5.242  22.699  0.00  0.00    +0.035 C 
ATOM     11  C   UNL     1       3.661   3.762  22.449  0.00  0.00    +0.187 C 
ATOM     12  O   UNL     1       4.388   2.953  23.015  0.00  0.00    -0.287 OA
ATOM     13  C   UNL     1       2.649   3.291  21.465  0.00  0.00    +0.051 C 
ATOM     14  C   UNL     1       1.820   4.156  20.865  0.00  0.00    +0.004 C 
ATOM     15  C   UNL     1       1.871   5.575  21.129  0.00  0.00    +0.001 C 
ATOM     16  C   UNL     1       2.756   6.093  21.990  0.00  0.00    +0.013 C 
ENDBRANCH   7   9
ENDBRANCH   4   7
BRANCH   5  17
ATOM     17  N   UNL     1       7.383   2.926  23.864  0.00  0.00    -0.318 N 
ATOM     18  H   UNL     1       6.575   2.817  23.245  0.00  0.00    +0.152 HD
BRANCH  17  19
ATOM     19  C   UNL     1       7.895   1.739  24.331  0.00  0.00    +0.083 C 
ATOM     20  C   UNL     1       8.565   0.790  23.648  0.00  0.00    +0.035 C 
ATOM     21  C   UNL     1       8.820   0.970  22.177  0.00  0.00    +0.187 C 
ATOM     22  O   UNL     1       8.484   1.966  21.544  0.00  0.00    -0.287 OA
ATOM     23  C   UNL     1       9.527  -0.144  21.493  0.00  0.00    +0.051 C 
ATOM     24  C   UNL     1       9.931  -1.222  22.177  0.00  0.00    +0.004 C 
ATOM     25  C   UNL     1       9.696  -1.365  23.593  0.00  0.00    +0.001 C 
ATOM     26  C   UNL     1       9.050  -0.419  24.292  0.00  0.00    +0.013 C 
ENDBRANCH  17  19
ENDBRANCH   5  17
BRANCH   1  27
ATOM     27  C   UNL     1      11.225   6.090  23.812  0.00  0.00    +0.046 C 
BRANCH  27  28
ATOM     28  C   UNL     1      12.020   4.851  23.404  0.00  0.00    +0.125 C 
BRANCH  28  29
ATOM     29  C   UNL     1      13.256   5.213  22.620  0.00  0.00    +0.305 C 
ATOM     30  O   UNL     1      13.271   5.649  21.480  0.00  0.00    -0.251 OA
BRANCH  29  31
ATOM     31  O   UNL     1      14.388   5.011  23.334  0.00  0.00    -0.481 OA
ATOM     32  H   UNL     1      14.293   4.343  24.040  0.00  0.00    +0.295 HD
ENDBRANCH  29  31
ENDBRANCH  28  29
ENDBRANCH  27  28
ENDBRANCH   1  27
TORSDOF 8
ENDMDL
MODEL 8
REMARK VINA RESULT:      -6.6      2.786      8.187
REMARK  Name = 
REMARK  8 active torsions:
REMARK  status: ('A' for Active; 'I' for Inactive)
REMARK    1  A    between atoms: O_1  and  C_2
REMARK    2  A    between atoms: C_2  and  C_4
REMARK    3  A    between atoms: C_4  and  C_5
REMARK    4  A    between atoms: C_5  and  C_6
REMARK    5  A    between atoms: C_8  and  N_9
REMARK    6  A    between atoms: N_9  and  C_10
REMARK    7  A    between atoms: C_18  and  N_19
REMARK    8  A    between atoms: N_19  and  C_20
REMARK                            x       y       z     vdW  Elec       q    Type
REMARK                         _______ _______ _______ _____ _____    ______ ____
ROOT
ATOM      1  C   UNL     1       6.753  -5.122  25.928  0.00  0.00    -0.045 A 
ATOM      2  C   UNL     1       7.970  -5.568  25.418  0.00  0.00    +0.005 A 
ATOM      3  C   UNL     1       8.932  -4.654  24.981  0.00  0.00    +0.025 A 
ATOM      4  C   UNL     1       8.711  -3.267  25.026  0.00  0.00    +0.052 A 
ATOM      5  C   UNL     1       7.469  -2.793  25.528  0.00  0.00    +0.053 A 
ATOM      6  C   UNL     1       6.524  -3.737  25.980  0.00  0.00    +0.028 A 
ENDROOT
BRANCH   4   7
ATOM      7  N   UNL     1       9.657  -2.375  24.475  0.00  0.00    -0.318 N 
ATOM      8  H   UNL     1      10.566  -2.318  24.941  0.00  0.00    +0.152 HD
BRANCH   7   9
ATOM      9  C   UNL     1       9.557  -1.644  23.312  0.00  0.00    +0.083 C 
ATOM     10  C   UNL     1       9.780  -0.333  23.119  0.00  0.00    +0.035 C 
ATOM     11  C   UNL     1      10.234   0.524  24.266  0.00  0.00    +0.187 C 
ATOM     12  O   UNL     1      10.450   0.096  25.394  0.00  0.00    -0.287 OA
ATOM     13  C   UNL     1      10.438   1.967  23.966  0.00  0.00    +0.051 C 
ATOM     14  C   UNL     1      10.242   2.445  22.730  0.00  0.00    +0.004 C 
ATOM     15  C   UNL     1       9.816   1.601  21.639  0.00  0.00    +0.001 C 
ATOM     16  C   UNL     1       9.596   0.292  21.816  0.00  0.00    +0.013 C 
ENDBRANCH   7   9
ENDBRANCH   4   7
BRANCH   5  17
ATOM     17  N   UNL     1       7.208  -1.403  25.574  0.00  0.00    -0.318 N 
ATOM     18  H   UNL     1       7.501  -0.925  26.430  0.00  0.00    +0.152 HD
BRANCH  17  19
ATOM     19  C   UNL     1       6.727  -0.561  24.600  0.00  0.00    +0.083 C 
ATOM     20  C   UNL     1       6.657   0.784  24.616  0.00  0.00    +0.035 C 
ATOM     21  C   UNL     1       7.137   1.542  25.823  0.00  0.00    +0.187 C 
ATOM     22  O   UNL     1       7.639   1.008  26.807  0.00  0.00    -0.287 OA
ATOM     23  C   UNL     1       6.984   3.020  25.774  0.00  0.00    +0.051 C 
ATOM     24  C   UNL     1       6.471   3.620  24.692  0.00  0.00    +0.004 C 
ATOM     25  C   UNL     1       6.036   2.876  23.535  0.00  0.00    +0.001 C 
ATOM     26  C   UNL     1       6.120   1.537  23.494  0.00  0.00    +0.013 C 
ENDBRANCH  17  19
ENDBRANCH   5  17
BRANCH   1  27
ATOM     27  C   UNL     1       5.642  -6.067  26.331  0.00  0.00    +0.046 C 
BRANCH  27  28
ATOM     28  C   UNL     1       4.382  -5.974  25.472  0.00  0.00    +0.125 C 
BRANCH  28  29
ATOM     29  C   UNL     1       4.553  -6.680  24.151  0.00  0.00    +0.305 C 
ATOM     30  O   UNL     1       5.265  -6.306  23.233  0.00  0.00    -0.251 OA
BRANCH  29  31
ATOM     31  O   UNL     1       3.822  -7.818  24.085  0.00  0.00    -0.481 OA
ATOM     32  H   UNL     1       4.138  -8.449  23.409  0.00  0.00    +0.295 HD
ENDBRANCH  29  31
ENDBRANCH  28  29
ENDBRANCH  27  28
ENDBRANCH   1  27
TORSDOF 8
ENDMDL
MODEL 9
REMARK VINA RESULT:      -6.6      2.534      3.906
REMARK  Name = 
REMARK  8 active torsions:
REMARK  status: ('A' for Active; 'I' for Inactive)
REMARK    1  A    between atoms: O_1  and  C_2
REMARK    2  A    between atoms: C_2  and  C_4
REMARK    3  A    between atoms: C_4  and  C_5
REMARK    4  A    between atoms: C_5  and  C_6
REMARK    5  A    between atoms: C_8  and  N_9
REMARK    6  A    between atoms: N_9  and  C_10
REMARK    7  A    between atoms: C_18  and  N_19
REMARK    8  A    between atoms: N_19  and  C_20
REMARK                            x       y       z     vdW  Elec       q    Type
REMARK                         _______ _______ _______ _____ _____    ______ ____
ROOT
ATOM      1  C   UNL     1      10.006   2.680  23.367  0.00  0.00    -0.045 A 
ATOM      2  C   UNL     1      10.347   1.888  22.274  0.00  0.00    +0.005 A 
ATOM      3  C   UNL     1       9.818   0.604  22.138  0.00  0.00    +0.025 A 
ATOM      4  C   UNL     1       8.939   0.059  23.090  0.00  0.00    +0.052 A 
ATOM      5  C   UNL     1       8.591   0.845  24.221  0.00  0.00    +0.053 A 
ATOM      6  C   UNL     1       9.126   2.146  24.324  0.00  0.00    +0.028 A 
ENDROOT
BRANCH   4   7
ATOM      7  N   UNL     1       8.509  -1.282  22.980  0.00  0.00    -0.318 N 
ATOM      8  H   UNL     1       7.690  -1.459  22.393  0.00  0.00    +0.152 HD
BRANCH   7   9
ATOM      9  C   UNL     1       9.119  -2.412  23.475  0.00  0.00    +0.083 C 
ATOM     10  C   UNL     1       8.632  -3.329  24.329  0.00  0.00    +0.035 C 
ATOM     11  C   UNL     1       7.226  -3.198  24.841  0.00  0.00    +0.187 C 
ATOM     12  O   UNL     1       6.456  -2.305  24.504  0.00  0.00    -0.287 OA
ATOM     13  C   UNL     1       6.776  -4.246  25.796  0.00  0.00    +0.051 C 
ATOM     14  C   UNL     1       7.591  -5.251  26.147  0.00  0.00    +0.004 C 
ATOM     15  C   UNL     1       8.936  -5.362  25.634  0.00  0.00    +0.001 C 
ATOM     16  C   UNL     1       9.432  -4.460  24.778  0.00  0.00    +0.013 C 
ENDBRANCH   7   9
ENDBRANCH   4   7
BRANCH   5  17
ATOM     17  N   UNL     1       7.720   0.322  25.206  0.00  0.00    -0.318 N 
ATOM     18  H   UNL     1       7.250  -0.553  24.962  0.00  0.00    +0.152 HD
BRANCH  17  19
ATOM     19  C   UNL     1       7.491   0.740  26.495  0.00  0.00    +0.083 C 
ATOM     20  C   UNL     1       6.321   1.089  27.066  0.00  0.00    +0.035 C 
ATOM     21  C   UNL     1       5.056   1.053  26.256  0.00  0.00    +0.187 C 
ATOM     22  O   UNL     1       5.004   0.681  25.088  0.00  0.00    -0.287 OA
ATOM     23  C   UNL     1       3.818   1.494  26.952  0.00  0.00    +0.051 C 
ATOM     24  C   UNL     1       3.851   1.869  28.237  0.00  0.00    +0.004 C 
ATOM     25  C   UNL     1       5.073   1.875  29.004  0.00  0.00    +0.001 C 
ATOM     26  C   UNL     1       6.242   1.510  28.456  0.00  0.00    +0.013 C 
ENDBRANCH  17  19
ENDBRANCH   5  17
BRANCH   1  27
ATOM     27  C   UNL     1      10.619   4.042  23.612  0.00  0.00    +0.046 C 
BRANCH  27  28
ATOM     28  C   UNL     1      11.929   4.296  22.867  0.00  0.00    +0.125 C 
BRANCH  28  29
ATOM     29  C   UNL     1      12.781   5.323  23.568  0.00  0.00    +0.305 C 
ATOM     30  O   UNL     1      12.379   6.152  24.368  0.00  0.00    -0.251 OA
BRANCH  29  31
ATOM     31  O   UNL     1      14.085   5.225  23.219  0.00  0.00    -0.481 OA
ATOM     32  H   UNL     1      14.372   4.311  23.029  0.00  0.00    +0.295 HD
ENDBRANCH  29  31
ENDBRANCH  28  29
ENDBRANCH  27  28
ENDBRANCH   1  27
TORSDOF 8
ENDMDL
