MODEL 1
REMARK VINA RESULT:      -8.1      0.000      0.000
REMARK  Name = 
REMARK  9 active torsions:
REMARK  status: ('A' for Active; 'I' for Inactive)
REMARK    1  A    between atoms: N_6  and  C_12
REMARK    2  A    between atoms: C_9  and  O_10
REMARK    3  A    between atoms: C_16  and  C_18
REMARK    4  A    between atoms: N_20  and  C_21
REMARK    5  A    between atoms: C_21  and  C_22
REMARK    6  A    between atoms: C_27  and  S_28
REMARK    7  A    between atoms: S_28  and  C_29
REMARK    8  A    between atoms: C_34  and  C_35
REMARK    9  A    between atoms: C_35  and  O_36
REMARK                            x       y       z     vdW  Elec       q    Type
REMARK                         _______ _______ _______ _____ _____    ______ ____
ROOT
ATOM      1  C   UNL     1       7.081   1.493  21.954  0.00  0.00    +0.244 C 
ATOM      2  N   UNL     1       6.022   1.870  22.769  0.00  0.00    -0.307 N 
ATOM      3  H   UNL     1       5.807   1.310  23.582  0.00  0.00    +0.149 HD
ATOM      4  O   UNL     1       7.575   2.229  21.112  0.00  0.00    -0.270 OA
ENDROOT
BRANCH   1   7
ATOM      5  C   UNL     1       7.702  -2.078  23.219  0.00  0.00    +0.087 A 
ATOM      6  C   UNL     1       7.033  -0.864  22.949  0.00  0.00    +0.042 A 
ATOM      7  C   UNL     1       7.674   0.138  22.203  0.00  0.00    +0.039 A 
ATOM      8  C   UNL     1       8.953  -0.106  21.680  0.00  0.00    +0.013 A 
ATOM      9  C   UNL     1       9.606  -1.314  21.930  0.00  0.00    +0.003 A 
ATOM     10  C   UNL     1       8.992  -2.293  22.709  0.00  0.00    +0.029 A 
BRANCH   5  20
ATOM     11  N   UNL     1       3.926  -7.257  25.966  0.00  0.00    -0.327 N 
ATOM     12  H   UNL     1       3.988  -7.669  26.888  0.00  0.00    +0.145 HD
ATOM     13  H   UNL     1       3.017  -6.940  25.655  0.00  0.00    +0.145 HD
ATOM     14  C   UNL     1       4.904  -6.297  25.789  0.00  0.00    +0.218 A 
ATOM     15  N   UNL     1       5.966  -6.406  26.631  0.00  0.00    -0.178 NA
ATOM     16  C   UNL     1       6.994  -5.545  26.497  0.00  0.00    +0.247 A 
ATOM     17  C   UNL     1       6.906  -4.592  25.488  0.00  0.00    +0.193 A 
ATOM     18  C   UNL     1       5.735  -4.537  24.669  0.00  0.00    +0.210 A 
ATOM     19  N   UNL     1       5.849  -3.552  23.784  0.00  0.00    -0.127 NA
ATOM     20  N   UNL     1       7.095  -3.075  24.036  0.00  0.00    -0.148 N 
ATOM     21  N   UNL     1       7.763  -3.638  25.081  0.00  0.00    -0.140 NA
ATOM     22  N   UNL     1       4.694  -5.390  24.813  0.00  0.00    -0.191 NA
BRANCH  16  23
ATOM     23  O   UNL     1       8.061  -5.669  27.347  0.00  0.00    -0.491 OA
ATOM     24  H   UNL     1       8.846  -5.538  26.787  0.00  0.00    +0.294 HD
ENDBRANCH  16  23
ENDBRANCH   5  20
ENDBRANCH   1   7
BRANCH   2  25
ATOM     25  C   UNL     1       5.590   3.256  22.818  0.00  0.00    +0.141 C 
BRANCH  25  26
ATOM     26  C   UNL     1       6.654   4.239  23.262  0.00  0.00    -0.017 A 
ATOM     27  C   UNL     1       7.275   4.277  24.526  0.00  0.00    +0.017 A 
ATOM     28  C   UNL     1       8.082   5.381  24.856  0.00  0.00    +0.015 A 
ATOM     29  C   UNL     1       8.443   6.331  23.903  0.00  0.00    +0.001 A 
ATOM     30  C   UNL     1       7.977   6.202  22.605  0.00  0.00    +0.000 A 
ATOM     31  C   UNL     1       7.073   5.186  22.296  0.00  0.00    +0.006 A 
BRANCH  27  32
ATOM     32  S   UNL     1       7.198   2.981  25.773  0.00  0.00    -0.089 S 
BRANCH  32  33
ATOM     33  C   UNL     1       8.567   1.926  25.255  0.00  0.00    +0.018 A 
ATOM     34  C   UNL     1       8.823   0.615  25.709  0.00  0.00    -0.008 A 
ATOM     35  C   UNL     1      10.079   0.032  25.435  0.00  0.00    +0.007 A 
ATOM     36  C   UNL     1      10.992   0.655  24.592  0.00  0.00    +0.000 A 
ATOM     37  C   UNL     1      10.651   1.859  23.990  0.00  0.00    +0.001 A 
ATOM     38  C   UNL     1       9.457   2.497  24.333  0.00  0.00    +0.015 A 
BRANCH  34  39
ATOM     39  C   UNL     1       7.814  -0.265  26.403  0.00  0.00    +0.192 C 
BRANCH  39  40
ATOM     40  O   UNL     1       8.433  -1.495  26.800  0.00  0.00    -0.390 OA
ATOM     41  H   UNL     1       9.075  -1.285  27.502  0.00  0.00    +0.210 HD
ENDBRANCH  39  40
ENDBRANCH  34  39
ENDBRANCH  32  33
ENDBRANCH  27  32
ENDBRANCH  25  26
ENDBRANCH   2  25
TORSDOF 9
ENDMDL
MODEL 2
REMARK VINA RESULT:      -8.0      2.974      5.286
REMARK  Name = 
REMARK  9 active torsions:
REMARK  status: ('A' for Active; 'I' for Inactive)
REMARK    1  A    between atoms: N_6  and  C_12
REMARK    2  A    between atoms: C_9  and  O_10
REMARK    3  A    between atoms: C_16  and  C_18
REMARK    4  A    between atoms: N_20  and  C_21
REMARK    5  A    between atoms: C_21  and  C_22
REMARK    6  A    between atoms: C_27  and  S_28
REMARK    7  A    between atoms: S_28  and  C_29
REMARK    8  A    between atoms: C_34  and  C_35
REMARK    9  A    between atoms: C_35  and  O_36
REMARK                            x       y       z     vdW  Elec       q    Type
REMARK                         _______ _______ _______ _____ _____    ______ ____
ROOT
ATOM      1  C   UNL     1       6.085  -0.992  25.541  0.00  0.00    +0.244 C 
ATOM      2  N   UNL     1       7.326  -0.473  25.885  0.00  0.00    -0.307 N 
ATOM      3  H   UNL     1       8.054  -1.105  26.186  0.00  0.00    +0.149 HD
ATOM      4  O   UNL     1       5.237  -0.357  24.931  0.00  0.00    -0.270 OA
ENDROOT
BRANCH   1   7
ATOM      5  C   UNL     1       4.712  -4.576  25.607  0.00  0.00    +0.087 A 
ATOM      6  C   UNL     1       4.960  -3.260  25.163  0.00  0.00    +0.042 A 
ATOM      7  C   UNL     1       5.840  -2.433  25.880  0.00  0.00    +0.039 A 
ATOM      8  C   UNL     1       6.513  -2.950  26.997  0.00  0.00    +0.013 A 
ATOM      9  C   UNL     1       6.283  -4.259  27.425  0.00  0.00    +0.003 A 
ATOM     10  C   UNL     1       5.375  -5.067  26.743  0.00  0.00    +0.029 A 
BRANCH   5  20
ATOM     11  N   UNL     1       0.443  -7.769  21.112  0.00  0.00    -0.327 N 
ATOM     12  H   UNL     1      -0.151  -8.575  21.262  0.00  0.00    +0.145 HD
ATOM     13  H   UNL     1       0.017  -6.940  20.719  0.00  0.00    +0.145 HD
ATOM     14  C   UNL     1       1.189  -7.491  22.241  0.00  0.00    +0.218 A 
ATOM     15  N   UNL     1       1.327  -8.534  23.103  0.00  0.00    -0.178 NA
ATOM     16  C   UNL     1       2.083  -8.370  24.207  0.00  0.00    +0.247 A 
ATOM     17  C   UNL     1       2.687  -7.132  24.393  0.00  0.00    +0.193 A 
ATOM     18  C   UNL     1       2.460  -6.085  23.446  0.00  0.00    +0.210 A 
ATOM     19  N   UNL     1       3.114  -4.990  23.818  0.00  0.00    -0.127 NA
ATOM     20  N   UNL     1       3.766  -5.403  24.934  0.00  0.00    -0.148 N 
ATOM     21  N   UNL     1       3.514  -6.676  25.352  0.00  0.00    -0.140 NA
ATOM     22  N   UNL     1       1.688  -6.242  22.346  0.00  0.00    -0.191 NA
BRANCH  16  23
ATOM     23  O   UNL     1       2.219  -9.430  25.063  0.00  0.00    -0.491 OA
ATOM     24  H   UNL     1       2.824  -9.116  25.759  0.00  0.00    +0.294 HD
ENDBRANCH  16  23
ENDBRANCH   5  20
ENDBRANCH   1   7
BRANCH   2  25
ATOM     25  C   UNL     1       7.770   0.794  25.332  0.00  0.00    +0.141 C 
BRANCH  25  26
ATOM     26  C   UNL     1       8.203   0.740  23.881  0.00  0.00    -0.017 A 
ATOM     27  C   UNL     1       9.186  -0.112  23.338  0.00  0.00    +0.017 A 
ATOM     28  C   UNL     1       9.626   0.108  22.020  0.00  0.00    +0.015 A 
ATOM     29  C   UNL     1       8.979   1.008  21.177  0.00  0.00    +0.001 A 
ATOM     30  C   UNL     1       7.892   1.724  21.652  0.00  0.00    +0.000 A 
ATOM     31  C   UNL     1       7.527   1.611  22.993  0.00  0.00    +0.006 A 
BRANCH  27  32
ATOM     32  S   UNL     1       9.906  -1.542  24.160  0.00  0.00    -0.089 S 
BRANCH  32  33
ATOM     33  C   UNL     1       8.735  -2.832  23.692  0.00  0.00    +0.018 A 
ATOM     34  C   UNL     1       8.698  -4.146  24.204  0.00  0.00    -0.008 A 
ATOM     35  C   UNL     1       7.918  -5.115  23.537  0.00  0.00    +0.007 A 
ATOM     36  C   UNL     1       7.065  -4.761  22.498  0.00  0.00    +0.000 A 
ATOM     37  C   UNL     1       6.961  -3.427  22.128  0.00  0.00    +0.001 A 
ATOM     38  C   UNL     1       7.801  -2.474  22.707  0.00  0.00    +0.015 A 
BRANCH  34  39
ATOM     39  C   UNL     1       9.367  -4.589  25.480  0.00  0.00    +0.192 C 
BRANCH  39  40
ATOM     40  O   UNL     1      10.123  -5.783  25.244  0.00  0.00    -0.390 OA
ATOM     41  H   UNL     1      10.721  -5.905  26.004  0.00  0.00    +0.210 HD
ENDBRANCH  39  40
ENDBRANCH  34  39
ENDBRANCH  32  33
ENDBRANCH  27  32
ENDBRANCH  25  26
ENDBRANCH   2  25
TORSDOF 9
ENDMDL
MODEL 3
REMARK VINA RESULT:      -7.6      2.434      3.631
REMARK  Name = 
REMARK  9 active torsions:
REMARK  status: ('A' for Active; 'I' for Inactive)
REMARK    1  A    between atoms: N_6  and  C_12
REMARK    2  A    between atoms: C_9  and  O_10
REMARK    3  A    between atoms: C_16  and  C_18
REMARK    4  A    between atoms: N_20  and  C_21
REMARK    5  A    between atoms: C_21  and  C_22
REMARK    6  A    between atoms: C_27  and  S_28
REMARK    7  A    between atoms: S_28  and  C_29
REMARK    8  A    between atoms: C_34  and  C_35
REMARK    9  A    between atoms: C_35  and  O_36
REMARK                            x       y       z     vdW  Elec       q    Type
REMARK                         _______ _______ _______ _____ _____    ______ ____
ROOT
ATOM      1  C   UNL     1       9.391  -1.733  22.375  0.00  0.00    +0.244 C 
ATOM      2  N   UNL     1       8.467  -0.787  21.951  0.00  0.00    -0.307 N 
ATOM      3  H   UNL     1       7.555  -0.766  22.385  0.00  0.00    +0.149 HD
ATOM      4  O   UNL     1      10.582  -1.677  22.102  0.00  0.00    -0.270 OA
ENDROOT
BRANCH   1   7
ATOM      5  C   UNL     1       7.162  -4.329  24.114  0.00  0.00    +0.087 A 
ATOM      6  C   UNL     1       7.600  -3.381  23.164  0.00  0.00    +0.042 A 
ATOM      7  C   UNL     1       8.881  -2.817  23.277  0.00  0.00    +0.039 A 
ATOM      8  C   UNL     1       9.737  -3.252  24.300  0.00  0.00    +0.013 A 
ATOM      9  C   UNL     1       9.310  -4.204  25.228  0.00  0.00    +0.003 A 
ATOM     10  C   UNL     1       8.023  -4.733  25.147  0.00  0.00    +0.029 A 
BRANCH   5  20
ATOM     11  N   UNL     1       0.652  -6.221  22.481  0.00  0.00    -0.327 N 
ATOM     12  H   UNL     1       0.014  -6.814  22.996  0.00  0.00    +0.145 HD
ATOM     13  H   UNL     1       0.316  -5.311  22.193  0.00  0.00    +0.145 HD
ATOM     14  C   UNL     1       1.878  -6.151  23.114  0.00  0.00    +0.218 A 
ATOM     15  N   UNL     1       2.132  -7.170  23.977  0.00  0.00    -0.178 NA
ATOM     16  C   UNL     1       3.327  -7.212  24.601  0.00  0.00    +0.247 A 
ATOM     17  C   UNL     1       4.237  -6.202  24.313  0.00  0.00    +0.193 A 
ATOM     18  C   UNL     1       3.869  -5.155  23.412  0.00  0.00    +0.210 A 
ATOM     19  N   UNL     1       4.872  -4.292  23.289  0.00  0.00    -0.127 NA
ATOM     20  N   UNL     1       5.839  -4.856  24.057  0.00  0.00    -0.148 N 
ATOM     21  N   UNL     1       5.498  -5.989  24.731  0.00  0.00    -0.140 NA
ATOM     22  N   UNL     1       2.664  -5.101  22.798  0.00  0.00    -0.191 NA
BRANCH  16  23
ATOM     23  O   UNL     1       3.572  -8.249  25.462  0.00  0.00    -0.491 OA
ATOM     24  H   UNL     1       2.844  -8.878  25.314  0.00  0.00    +0.294 HD
ENDBRANCH  16  23
ENDBRANCH   5  20
ENDBRANCH   1   7
BRANCH   2  25
ATOM     25  C   UNL     1       8.912   0.454  21.344  0.00  0.00    +0.141 C 
BRANCH  25  26
ATOM     26  C   UNL     1       9.177   1.582  22.320  0.00  0.00    -0.017 A 
ATOM     27  C   UNL     1       8.263   2.101  23.258  0.00  0.00    +0.017 A 
ATOM     28  C   UNL     1       8.586   3.288  23.941  0.00  0.00    +0.015 A 
ATOM     29  C   UNL     1       9.860   3.848  23.865  0.00  0.00    +0.001 A 
ATOM     30  C   UNL     1      10.824   3.239  23.079  0.00  0.00    +0.000 A 
ATOM     31  C   UNL     1      10.479   2.137  22.297  0.00  0.00    +0.006 A 
BRANCH  27  32
ATOM     32  S   UNL     1       6.706   1.337  23.740  0.00  0.00    -0.089 S 
BRANCH  32  33
ATOM     33  C   UNL     1       7.274   0.154  24.978  0.00  0.00    +0.018 A 
ATOM     34  C   UNL     1       6.489  -0.843  25.595  0.00  0.00    -0.008 A 
ATOM     35  C   UNL     1       6.994  -1.495  26.741  0.00  0.00    +0.007 A 
ATOM     36  C   UNL     1       8.303  -1.294  27.164  0.00  0.00    +0.000 A 
ATOM     37  C   UNL     1       9.134  -0.456  26.433  0.00  0.00    +0.001 A 
ATOM     38  C   UNL     1       8.619   0.274  25.360  0.00  0.00    +0.015 A 
BRANCH  34  39
ATOM     39  C   UNL     1       5.166  -1.340  25.072  0.00  0.00    +0.192 C 
BRANCH  39  40
ATOM     40  O   UNL     1       4.674  -2.392  25.912  0.00  0.00    -0.390 OA
ATOM     41  H   UNL     1       4.371  -1.984  26.744  0.00  0.00    +0.210 HD
ENDBRANCH  39  40
ENDBRANCH  34  39
ENDBRANCH  32  33
ENDBRANCH  27  32
ENDBRANCH  25  26
ENDBRANCH   2  25
TORSDOF 9
ENDMDL
MODEL 4
REMARK VINA RESULT:      -7.6      3.237      8.737
REMARK  Name = 
REMARK  9 active torsions:
REMARK  status: ('A' for Active; 'I' for Inactive)
REMARK    1  A    between atoms: N_6  and  C_12
REMARK    2  A    between atoms: C_9  and  O_10
REMARK    3  A    between atoms: C_16  and  C_18
REMARK    4  A    between atoms: N_20  and  C_21
REMARK    5  A    between atoms: C_21  and  C_22
REMARK    6  A    between atoms: C_27  and  S_28
REMARK    7  A    between atoms: S_28  and  C_29
REMARK    8  A    between atoms: C_34  and  C_35
REMARK    9  A    between atoms: C_35  and  O_36
REMARK                            x       y       z     vdW  Elec       q    Type
REMARK                         _______ _______ _______ _____ _____    ______ ____
ROOT
ATOM      1  C   UNL     1       6.358  -4.381  27.737  0.00  0.00    +0.244 C 
ATOM      2  N   UNL     1       5.236  -3.570  27.633  0.00  0.00    -0.307 N 
ATOM      3  H   UNL     1       5.115  -3.008  26.802  0.00  0.00    +0.149 HD
ATOM      4  O   UNL     1       6.466  -5.274  28.565  0.00  0.00    -0.270 OA
ENDROOT
BRANCH   1   7
ATOM      5  C   UNL     1       8.727  -2.825  25.148  0.00  0.00    +0.087 A 
ATOM      6  C   UNL     1       7.765  -2.919  26.177  0.00  0.00    +0.042 A 
ATOM      7  C   UNL     1       7.437  -4.174  26.716  0.00  0.00    +0.039 A 
ATOM      8  C   UNL     1       8.119  -5.315  26.267  0.00  0.00    +0.013 A 
ATOM      9  C   UNL     1       9.085  -5.219  25.263  0.00  0.00    +0.003 A 
ATOM     10  C   UNL     1       9.380  -3.981  24.694  0.00  0.00    +0.029 A 
BRANCH   5  20
ATOM     11  N   UNL     1      11.120   3.467  23.327  0.00  0.00    -0.327 N 
ATOM     12  H   UNL     1      10.897   4.020  22.510  0.00  0.00    +0.145 HD
ATOM     13  H   UNL     1      11.031   3.911  24.231  0.00  0.00    +0.145 HD
ATOM     14  C   UNL     1      10.484   2.241  23.280  0.00  0.00    +0.218 A 
ATOM     15  N   UNL     1      10.092   1.851  22.038  0.00  0.00    -0.178 NA
ATOM     16  C   UNL     1       9.510   0.644  21.889  0.00  0.00    +0.247 A 
ATOM     17  C   UNL     1       9.353  -0.138  23.028  0.00  0.00    +0.193 A 
ATOM     18  C   UNL     1       9.772   0.370  24.297  0.00  0.00    +0.210 A 
ATOM     19  N   UNL     1       9.519  -0.525  25.247  0.00  0.00    -0.127 NA
ATOM     20  N   UNL     1       9.018  -1.569  24.539  0.00  0.00    -0.148 N 
ATOM     21  N   UNL     1       8.857  -1.377  23.200  0.00  0.00    -0.140 NA
ATOM     22  N   UNL     1      10.340   1.588  24.452  0.00  0.00    -0.191 NA
BRANCH  16  23
ATOM     23  O   UNL     1       9.126   0.260  20.632  0.00  0.00    -0.491 OA
ATOM     24  H   UNL     1       9.316  -0.694  20.591  0.00  0.00    +0.294 HD
ENDBRANCH  16  23
ENDBRANCH   5  20
ENDBRANCH   1   7
BRANCH   2  25
ATOM     25  C   UNL     1       4.024  -3.895  28.364  0.00  0.00    +0.141 C 
BRANCH  25  26
ATOM     26  C   UNL     1       3.178  -4.986  27.741  0.00  0.00    -0.017 A 
ATOM     27  C   UNL     1       2.512  -4.915  26.501  0.00  0.00    +0.017 A 
ATOM     28  C   UNL     1       1.591  -5.923  26.162  0.00  0.00    +0.015 A 
ATOM     29  C   UNL     1       1.471  -7.085  26.922  0.00  0.00    +0.001 A 
ATOM     30  C   UNL     1       2.256  -7.241  28.053  0.00  0.00    +0.000 A 
ATOM     31  C   UNL     1       3.077  -6.194  28.470  0.00  0.00    +0.006 A 
BRANCH  27  32
ATOM     32  S   UNL     1       2.782  -3.665  25.234  0.00  0.00    -0.089 S 
BRANCH  32  33
ATOM     33  C   UNL     1       4.239  -4.329  24.402  0.00  0.00    +0.018 A 
ATOM     34  C   UNL     1       5.218  -3.580  23.716  0.00  0.00    -0.008 A 
ATOM     35  C   UNL     1       6.131  -4.257  22.880  0.00  0.00    +0.007 A 
ATOM     36  C   UNL     1       6.189  -5.646  22.854  0.00  0.00    +0.000 A 
ATOM     37  C   UNL     1       5.351  -6.378  23.683  0.00  0.00    +0.001 A 
ATOM     38  C   UNL     1       4.373  -5.726  24.437  0.00  0.00    +0.015 A 
BRANCH  34  39
ATOM     39  C   UNL     1       5.427  -2.096  23.872  0.00  0.00    +0.192 C 
BRANCH  39  40
ATOM     40  O   UNL     1       6.088  -1.573  22.713  0.00  0.00    -0.390 OA
ATOM     41  H   UNL     1       5.455  -0.993  22.253  0.00  0.00    +0.210 HD
ENDBRANCH  39  40
ENDBRANCH  34  39
ENDBRANCH  32  33
ENDBRANCH  27  32
ENDBRANCH  25  26
ENDBRANCH   2  25
TORSDOF 9
ENDMDL
MODEL 5
REMARK VINA RESULT:      -7.4      3.025      8.331
REMARK  Name = 
REMARK  9 active torsions:
REMARK  status: ('A' for Active; 'I' for Inactive)
REMARK    1  A    between atoms: N_6  and  C_12
REMARK    2  A    between atoms: C_9  and  O_10
REMARK    3  A    between atoms: C_16  and  C_18
REMARK    4  A    between atoms: N_20  and  C_21
REMARK    5  A    between atoms: C_21  and  C_22
REMARK    6  A    between atoms: C_27  and  S_28
REMARK    7  A    between atoms: S_28  and  C_29
REMARK    8  A    between atoms: C_34  and  C_35
REMARK    9  A    between atoms: C_35  and  O_36
REMARK                            x       y       z     vdW  Elec       q    Type
REMARK                         _______ _______ _______ _____ _____    ______ ____
ROOT
ATOM      1  C   UNL     1       6.160  -5.783  23.515  0.00  0.00    +0.244 C 
ATOM      2  N   UNL     1       5.472  -6.276  24.615  0.00  0.00    -0.307 N 
ATOM      3  H   UNL     1       5.539  -5.783  25.494  0.00  0.00    +0.149 HD
ATOM      4  O   UNL     1       5.944  -6.150  22.369  0.00  0.00    -0.270 OA
ENDROOT
BRANCH   1   7
ATOM      5  C   UNL     1       7.994  -2.411  23.573  0.00  0.00    +0.087 A 
ATOM      6  C   UNL     1       6.966  -3.358  23.375  0.00  0.00    +0.042 A 
ATOM      7  C   UNL     1       7.155  -4.691  23.775  0.00  0.00    +0.039 A 
ATOM      8  C   UNL     1       8.344  -5.052  24.427  0.00  0.00    +0.013 A 
ATOM      9  C   UNL     1       9.353  -4.111  24.640  0.00  0.00    +0.003 A 
ATOM     10  C   UNL     1       9.188  -2.798  24.203  0.00  0.00    +0.029 A 
BRANCH   5  20
ATOM     11  N   UNL     1       6.120   4.177  22.271  0.00  0.00    -0.327 N 
ATOM     12  H   UNL     1       6.559   4.855  21.660  0.00  0.00    +0.145 HD
ATOM     13  H   UNL     1       5.129   4.014  22.153  0.00  0.00    +0.145 HD
ATOM     14  C   UNL     1       6.845   3.002  22.303  0.00  0.00    +0.218 A 
ATOM     15  N   UNL     1       8.144   3.123  21.918  0.00  0.00    -0.178 NA
ATOM     16  C   UNL     1       8.941   2.037  21.969  0.00  0.00    +0.247 A 
ATOM     17  C   UNL     1       8.380   0.850  22.424  0.00  0.00    +0.193 A 
ATOM     18  C   UNL     1       6.996   0.812  22.780  0.00  0.00    +0.210 A 
ATOM     19  N   UNL     1       6.664  -0.413  23.171  0.00  0.00    -0.127 NA
ATOM     20  N   UNL     1       7.848  -1.073  23.107  0.00  0.00    -0.148 N 
ATOM     21  N   UNL     1       8.911  -0.371  22.623  0.00  0.00    -0.140 NA
ATOM     22  N   UNL     1       6.189   1.896  22.714  0.00  0.00    -0.191 NA
BRANCH  16  23
ATOM     23  O   UNL     1      10.249   2.175  21.585  0.00  0.00    -0.491 OA
ATOM     24  H   UNL     1      10.219   2.265  20.617  0.00  0.00    +0.294 HD
ENDBRANCH  16  23
ENDBRANCH   5  20
ENDBRANCH   1   7
BRANCH   2  25
ATOM     25  C   UNL     1       4.288  -7.097  24.434  0.00  0.00    +0.141 C 
BRANCH  25  26
ATOM     26  C   UNL     1       2.983  -6.330  24.384  0.00  0.00    -0.017 A 
ATOM     27  C   UNL     1       2.287  -5.800  25.489  0.00  0.00    +0.017 A 
ATOM     28  C   UNL     1       0.984  -5.305  25.301  0.00  0.00    +0.015 A 
ATOM     29  C   UNL     1       0.443  -5.141  24.028  0.00  0.00    +0.001 A 
ATOM     30  C   UNL     1       1.194  -5.497  22.920  0.00  0.00    +0.000 A 
ATOM     31  C   UNL     1       2.435  -6.108  23.097  0.00  0.00    +0.006 A 
BRANCH  27  32
ATOM     32  S   UNL     1       2.946  -5.618  27.154  0.00  0.00    -0.089 S 
BRANCH  32  33
ATOM     33  C   UNL     1       4.259  -4.413  26.874  0.00  0.00    +0.018 A 
ATOM     34  C   UNL     1       5.582  -4.499  27.355  0.00  0.00    -0.008 A 
ATOM     35  C   UNL     1       6.404  -3.353  27.299  0.00  0.00    +0.007 A 
ATOM     36  C   UNL     1       5.991  -2.205  26.631  0.00  0.00    +0.000 A 
ATOM     37  C   UNL     1       4.761  -2.196  25.988  0.00  0.00    +0.001 A 
ATOM     38  C   UNL     1       3.896  -3.284  26.124  0.00  0.00    +0.015 A 
BRANCH  34  39
ATOM     39  C   UNL     1       6.232  -5.763  27.857  0.00  0.00    +0.192 C 
BRANCH  39  40
ATOM     40  O   UNL     1       7.651  -5.688  27.673  0.00  0.00    -0.390 OA
ATOM     41  H   UNL     1       7.962  -6.579  27.430  0.00  0.00    +0.210 HD
ENDBRANCH  39  40
ENDBRANCH  34  39
ENDBRANCH  32  33
ENDBRANCH  27  32
ENDBRANCH  25  26
ENDBRANCH   2  25
TORSDOF 9
ENDMDL
MODEL 6
REMARK VINA RESULT:      -7.4      1.843      3.014
REMARK  Name = 
REMARK  9 active torsions:
REMARK  status: ('A' for Active; 'I' for Inactive)
REMARK    1  A    between atoms: N_6  and  C_12
REMARK    2  A    between atoms: C_9  and  O_10
REMARK    3  A    between atoms: C_16  and  C_18
REMARK    4  A    between atoms: N_20  and  C_21
REMARK    5  A    between atoms: C_21  and  C_22
REMARK    6  A    between atoms: C_27  and  S_28
REMARK    7  A    between atoms: S_28  and  C_29
REMARK    8  A    between atoms: C_34  and  C_35
REMARK    9  A    between atoms: C_35  and  O_36
REMARK                            x       y       z     vdW  Elec       q    Type
REMARK                         _______ _______ _______ _____ _____    ______ ____
ROOT
ATOM      1  C   UNL     1       7.028   2.061  21.967  0.00  0.00    +0.244 C 
ATOM      2  N   UNL     1       5.759   2.142  22.524  0.00  0.00    -0.307 N 
ATOM      3  H   UNL     1       5.438   1.391  23.119  0.00  0.00    +0.149 HD
ATOM      4  O   UNL     1       7.597   3.015  21.455  0.00  0.00    -0.270 OA
ENDROOT
BRANCH   1   7
ATOM      5  C   UNL     1       8.106  -1.450  23.082  0.00  0.00    +0.087 A 
ATOM      6  C   UNL     1       7.327  -0.279  22.958  0.00  0.00    +0.042 A 
ATOM      7  C   UNL     1       7.736   0.744  22.088  0.00  0.00    +0.039 A 
ATOM      8  C   UNL     1       8.885   0.562  21.303  0.00  0.00    +0.013 A 
ATOM      9  C   UNL     1       9.644  -0.604  21.412  0.00  0.00    +0.003 A 
ATOM     10  C   UNL     1       9.267  -1.603  22.308  0.00  0.00    +0.029 A 
BRANCH   5  20
ATOM     11  N   UNL     1       5.301  -6.779  26.598  0.00  0.00    -0.327 N 
ATOM     12  H   UNL     1       5.584  -7.174  27.486  0.00  0.00    +0.145 HD
ATOM     13  H   UNL     1       4.331  -6.515  26.490  0.00  0.00    +0.145 HD
ATOM     14  C   UNL     1       6.165  -5.772  26.211  0.00  0.00    +0.218 A 
ATOM     15  N   UNL     1       7.388  -5.813  26.803  0.00  0.00    -0.178 NA
ATOM     16  C   UNL     1       8.314  -4.901  26.445  0.00  0.00    +0.247 A 
ATOM     17  C   UNL     1       7.958  -3.969  25.477  0.00  0.00    +0.193 A 
ATOM     18  C   UNL     1       6.636  -3.988  24.931  0.00  0.00    +0.210 A 
ATOM     19  N   UNL     1       6.502  -3.011  24.040  0.00  0.00    -0.127 NA
ATOM     20  N   UNL     1       7.745  -2.465  24.015  0.00  0.00    -0.148 N 
ATOM     21  N   UNL     1       8.654  -2.977  24.892  0.00  0.00    -0.140 NA
ATOM     22  N   UNL     1       5.699  -4.891  25.301  0.00  0.00    -0.191 NA
BRANCH  16  23
ATOM     23  O   UNL     1       9.545  -4.957  27.045  0.00  0.00    -0.491 OA
ATOM     24  H   UNL     1       9.829  -4.029  27.123  0.00  0.00    +0.294 HD
ENDBRANCH  16  23
ENDBRANCH   5  20
ENDBRANCH   1   7
BRANCH   2  25
ATOM     25  C   UNL     1       5.129   3.433  22.733  0.00  0.00    +0.141 C 
BRANCH  25  26
ATOM     26  C   UNL     1       4.741   3.728  24.167  0.00  0.00    -0.017 A 
ATOM     27  C   UNL     1       5.489   4.483  25.092  0.00  0.00    +0.017 A 
ATOM     28  C   UNL     1       5.101   4.484  26.445  0.00  0.00    +0.015 A 
ATOM     29  C   UNL     1       3.891   3.929  26.856  0.00  0.00    +0.001 A 
ATOM     30  C   UNL     1       3.062   3.337  25.918  0.00  0.00    +0.000 A 
ATOM     31  C   UNL     1       3.494   3.214  24.597  0.00  0.00    +0.006 A 
BRANCH  27  32
ATOM     32  S   UNL     1       6.892   5.539  24.695  0.00  0.00    -0.089 S 
BRANCH  32  33
ATOM     33  C   UNL     1       8.228   4.328  24.646  0.00  0.00    +0.018 A 
ATOM     34  C   UNL     1       9.488   4.506  24.036  0.00  0.00    -0.008 A 
ATOM     35  C   UNL     1      10.311   3.378  23.831  0.00  0.00    +0.007 A 
ATOM     36  C   UNL     1       9.978   2.138  24.366  0.00  0.00    +0.000 A 
ATOM     37  C   UNL     1       8.829   2.015  25.135  0.00  0.00    +0.001 A 
ATOM     38  C   UNL     1       7.953   3.096  25.259  0.00  0.00    +0.015 A 
BRANCH  34  39
ATOM     39  C   UNL     1      10.076   5.841  23.655  0.00  0.00    +0.192 C 
BRANCH  39  40
ATOM     40  O   UNL     1      11.252   5.646  22.859  0.00  0.00    -0.390 OA
ATOM     41  H   UNL     1      10.993   5.121  22.080  0.00  0.00    +0.210 HD
ENDBRANCH  39  40
ENDBRANCH  34  39
ENDBRANCH  32  33
ENDBRANCH  27  32
ENDBRANCH  25  26
ENDBRANCH   2  25
TORSDOF 9
ENDMDL
MODEL 7
REMARK VINA RESULT:      -7.4      3.241      8.516
REMARK  Name = 
REMARK  9 active torsions:
REMARK  status: ('A' for Active; 'I' for Inactive)
REMARK    1  A    between atoms: N_6  and  C_12
REMARK    2  A    between atoms: C_9  and  O_10
REMARK    3  A    between atoms: C_16  and  C_18
REMARK    4  A    between atoms: N_20  and  C_21
REMARK    5  A    between atoms: C_21  and  C_22
REMARK    6  A    between atoms: C_27  and  S_28
REMARK    7  A    between atoms: S_28  and  C_29
REMARK    8  A    between atoms: C_34  and  C_35
REMARK    9  A    between atoms: C_35  and  O_36
REMARK                            x       y       z     vdW  Elec       q    Type
REMARK                         _______ _______ _______ _____ _____    ______ ____
ROOT
ATOM      1  C   UNL     1       7.184  -4.630  27.208  0.00  0.00    +0.244 C 
ATOM      2  N   UNL     1       5.946  -4.044  27.434  0.00  0.00    -0.307 N 
ATOM      3  H   UNL     1       5.645  -3.290  26.833  0.00  0.00    +0.149 HD
ATOM      4  O   UNL     1       7.522  -5.695  27.704  0.00  0.00    -0.270 OA
ENDROOT
BRANCH   1   7
ATOM      5  C   UNL     1       8.885  -1.987  25.005  0.00  0.00    +0.087 A 
ATOM      6  C   UNL     1       8.062  -2.549  26.004  0.00  0.00    +0.042 A 
ATOM      7  C   UNL     1       8.093  -3.933  26.239  0.00  0.00    +0.039 A 
ATOM      8  C   UNL     1       8.992  -4.734  25.519  0.00  0.00    +0.013 A 
ATOM      9  C   UNL     1       9.820  -4.174  24.544  0.00  0.00    +0.003 A 
ATOM     10  C   UNL     1       9.759  -2.808  24.275  0.00  0.00    +0.029 A 
BRANCH   5  20
ATOM     11  N   UNL     1       8.484   4.974  25.035  0.00  0.00    -0.327 N 
ATOM     12  H   UNL     1       8.513   5.617  24.253  0.00  0.00    +0.145 HD
ATOM     13  H   UNL     1       7.714   5.062  25.684  0.00  0.00    +0.145 HD
ATOM     14  C   UNL     1       8.666   3.673  24.609  0.00  0.00    +0.218 A 
ATOM     15  N   UNL     1       9.267   3.550  23.396  0.00  0.00    -0.178 NA
ATOM     16  C   UNL     1       9.533   2.316  22.924  0.00  0.00    +0.247 A 
ATOM     17  C   UNL     1       9.179   1.233  23.721  0.00  0.00    +0.193 A 
ATOM     18  C   UNL     1       8.525   1.461  24.972  0.00  0.00    +0.210 A 
ATOM     19  N   UNL     1       8.264   0.300  25.563  0.00  0.00    -0.127 NA
ATOM     20  N   UNL     1       8.812  -0.596  24.702  0.00  0.00    -0.148 N 
ATOM     21  N   UNL     1       9.342  -0.092  23.553  0.00  0.00    -0.140 NA
ATOM     22  N   UNL     1       8.241   2.699  25.440  0.00  0.00    -0.191 NA
BRANCH  16  23
ATOM     23  O   UNL     1      10.145   2.206  21.703  0.00  0.00    -0.491 OA
ATOM     24  H   UNL     1       9.428   1.991  21.081  0.00  0.00    +0.294 HD
ENDBRANCH  16  23
ENDBRANCH   5  20
ENDBRANCH   1   7
BRANCH   2  25
ATOM     25  C   UNL     1       4.891  -4.788  28.099  0.00  0.00    +0.141 C 
BRANCH  25  26
ATOM     26  C   UNL     1       3.609  -4.924  27.304  0.00  0.00    -0.017 A 
ATOM     27  C   UNL     1       3.499  -5.392  25.978  0.00  0.00    +0.017 A 
ATOM     28  C   UNL     1       2.270  -5.255  25.307  0.00  0.00    +0.015 A 
ATOM     29  C   UNL     1       1.114  -4.859  25.976  0.00  0.00    +0.001 A 
ATOM     30  C   UNL     1       1.179  -4.567  27.329  0.00  0.00    +0.000 A 
ATOM     31  C   UNL     1       2.414  -4.574  27.976  0.00  0.00    +0.006 A 
BRANCH  27  32
ATOM     32  S   UNL     1       4.790  -6.238  25.053  0.00  0.00    -0.089 S 
BRANCH  32  33
ATOM     33  C   UNL     1       5.343  -4.921  23.952  0.00  0.00    +0.018 A 
ATOM     34  C   UNL     1       6.187  -5.074  22.832  0.00  0.00    -0.008 A 
ATOM     35  C   UNL     1       6.759  -3.923  22.248  0.00  0.00    +0.007 A 
ATOM     36  C   UNL     1       6.374  -2.647  22.647  0.00  0.00    +0.000 A 
ATOM     37  C   UNL     1       5.394  -2.505  23.619  0.00  0.00    +0.001 A 
ATOM     38  C   UNL     1       4.896  -3.631  24.278  0.00  0.00    +0.015 A 
BRANCH  34  39
ATOM     39  C   UNL     1       6.467  -6.383  22.141  0.00  0.00    +0.192 C 
BRANCH  39  40
ATOM     40  O   UNL     1       5.857  -6.390  20.844  0.00  0.00    -0.390 OA
ATOM     41  H   UNL     1       6.000  -5.510  20.450  0.00  0.00    +0.210 HD
ENDBRANCH  39  40
ENDBRANCH  34  39
ENDBRANCH  32  33
ENDBRANCH  27  32
ENDBRANCH  25  26
ENDBRANCH   2  25
TORSDOF 9
ENDMDL
MODEL 8
REMARK VINA RESULT:      -7.4      2.818      8.221
REMARK  Name = 
REMARK  9 active torsions:
REMARK  status: ('A' for Active; 'I' for Inactive)
REMARK    1  A    between atoms: N_6  and  C_12
REMARK    2  A    between atoms: C_9  and  O_10
REMARK    3  A    between atoms: C_16  and  C_18
REMARK    4  A    between atoms: N_20  and  C_21
REMARK    5  A    between atoms: C_21  and  C_22
REMARK    6  A    between atoms: C_27  and  S_28
REMARK    7  A    between atoms: S_28  and  C_29
REMARK    8  A    between atoms: C_34  and  C_35
REMARK    9  A    between atoms: C_35  and  O_36
REMARK                            x       y       z     vdW  Elec       q    Type
REMARK                         _______ _______ _______ _____ _____    ______ ____
ROOT
ATOM      1  C   UNL     1       6.654  -3.552  22.258  0.00  0.00    +0.244 C 
ATOM      2  N   UNL     1       6.808  -4.758  22.929  0.00  0.00    -0.307 N 
ATOM      3  H   UNL     1       7.449  -4.805  23.708  0.00  0.00    +0.149 HD
ATOM      4  O   UNL     1       5.733  -3.327  21.485  0.00  0.00    -0.270 OA
ENDROOT
BRANCH   1   7
ATOM      5  C   UNL     1       8.292  -0.145  22.921  0.00  0.00    +0.087 A 
ATOM      6  C   UNL     1       7.289  -1.114  22.709  0.00  0.00    +0.042 A 
ATOM      7  C   UNL     1       7.639  -2.468  22.583  0.00  0.00    +0.039 A 
ATOM      8  C   UNL     1       8.981  -2.849  22.733  0.00  0.00    +0.013 A 
ATOM      9  C   UNL     1       9.971  -1.892  22.961  0.00  0.00    +0.003 A 
ATOM     10  C   UNL     1       9.634  -0.542  23.041  0.00  0.00    +0.029 A 
BRANCH   5  20
ATOM     11  N   UNL     1       8.183   6.825  23.082  0.00  0.00    -0.327 N 
ATOM     12  H   UNL     1       7.386   7.449  23.111  0.00  0.00    +0.145 HD
ATOM     13  H   UNL     1       8.904   6.955  23.780  0.00  0.00    +0.145 HD
ATOM     14  C   UNL     1       7.775   5.509  22.988  0.00  0.00    +0.218 A 
ATOM     15  N   UNL     1       6.511   5.338  22.517  0.00  0.00    -0.178 NA
ATOM     16  C   UNL     1       6.047   4.084  22.341  0.00  0.00    +0.247 A 
ATOM     17  C   UNL     1       6.903   3.033  22.650  0.00  0.00    +0.193 A 
ATOM     18  C   UNL     1       8.207   3.312  23.166  0.00  0.00    +0.210 A 
ATOM     19  N   UNL     1       8.850   2.174  23.406  0.00  0.00    -0.127 NA
ATOM     20  N   UNL     1       7.963   1.241  22.977  0.00  0.00    -0.148 N 
ATOM     21  N   UNL     1       6.754   1.700  22.548  0.00  0.00    -0.140 NA
ATOM     22  N   UNL     1       8.669   4.569  23.360  0.00  0.00    -0.191 NA
BRANCH  16  23
ATOM     23  O   UNL     1       4.774   3.925  21.860  0.00  0.00    -0.491 OA
ATOM     24  H   UNL     1       4.598   4.731  21.343  0.00  0.00    +0.294 HD
ENDBRANCH  16  23
ENDBRANCH   5  20
ENDBRANCH   1   7
BRANCH   2  25
ATOM     25  C   UNL     1       5.743  -5.745  22.920  0.00  0.00    +0.141 C 
BRANCH  25  26
ATOM     26  C   UNL     1       4.623  -5.483  23.906  0.00  0.00    -0.017 A 
ATOM     27  C   UNL     1       4.694  -5.640  25.305  0.00  0.00    +0.017 A 
ATOM     28  C   UNL     1       3.509  -5.567  26.060  0.00  0.00    +0.015 A 
ATOM     29  C   UNL     1       2.308  -5.147  25.492  0.00  0.00    +0.001 A 
ATOM     30  C   UNL     1       2.271  -4.817  24.147  0.00  0.00    +0.000 A 
ATOM     31  C   UNL     1       3.406  -5.009  23.360  0.00  0.00    +0.006 A 
BRANCH  27  32
ATOM     32  S   UNL     1       6.202  -5.859  26.262  0.00  0.00    -0.089 S 
BRANCH  32  33
ATOM     33  C   UNL     1       6.923  -4.209  26.148  0.00  0.00    +0.018 A 
ATOM     34  C   UNL     1       8.299  -3.901  26.171  0.00  0.00    -0.008 A 
ATOM     35  C   UNL     1       8.693  -2.559  26.363  0.00  0.00    +0.007 A 
ATOM     36  C   UNL     1       7.760  -1.528  26.360  0.00  0.00    +0.000 A 
ATOM     37  C   UNL     1       6.421  -1.822  26.140  0.00  0.00    +0.001 A 
ATOM     38  C   UNL     1       6.004  -3.152  26.053  0.00  0.00    +0.015 A 
BRANCH  34  39
ATOM     39  C   UNL     1       9.405  -4.892  25.916  0.00  0.00    +0.192 C 
BRANCH  39  40
ATOM     40  O   UNL     1       9.260  -5.459  24.608  0.00  0.00    -0.390 OA
ATOM     41  H   UNL     1       8.714  -4.846  24.083  0.00  0.00    +0.210 HD
ENDBRANCH  39  40
ENDBRANCH  34  39
ENDBRANCH  32  33
ENDBRANCH  27  32
ENDBRANCH  25  26
ENDBRANCH   2  25
TORSDOF 9
ENDMDL
MODEL 9
REMARK VINA RESULT:      -7.3      3.031      5.484
REMARK  Name = 
REMARK  9 active torsions:
REMARK  status: ('A' for Active; 'I' for Inactive)
REMARK    1  A    between atoms: N_6  and  C_12
REMARK    2  A    between atoms: C_9  and  O_10
REMARK    3  A    between atoms: C_16  and  C_18
REMARK    4  A    between atoms: N_20  and  C_21
REMARK    5  A    between atoms: C_21  and  C_22
REMARK    6  A    between atoms: C_27  and  S_28
REMARK    7  A    between atoms: S_28  and  C_29
REMARK    8  A    between atoms: C_34  and  C_35
REMARK    9  A    between atoms: C_35  and  O_36
REMARK                            x       y       z     vdW  Elec       q    Type
REMARK                         _______ _______ _______ _____ _____    ______ ____
ROOT
ATOM      1  C   UNL     1       6.055  -1.423  26.322  0.00  0.00    +0.244 C 
ATOM      2  N   UNL     1       7.319  -0.893  26.101  0.00  0.00    -0.307 N 
ATOM      3  H   UNL     1       8.065  -1.512  25.814  0.00  0.00    +0.149 HD
ATOM      4  O   UNL     1       5.047  -0.737  26.419  0.00  0.00    -0.270 OA
ENDROOT
BRANCH   1   7
ATOM      5  C   UNL     1       4.906  -5.046  25.783  0.00  0.00    +0.087 A 
ATOM      6  C   UNL     1       5.004  -3.648  25.617  0.00  0.00    +0.042 A 
ATOM      7  C   UNL     1       5.947  -2.919  26.359  0.00  0.00    +0.039 A 
ATOM      8  C   UNL     1       6.827  -3.602  27.213  0.00  0.00    +0.013 A 
ATOM      9  C   UNL     1       6.742  -4.987  27.363  0.00  0.00    +0.003 A 
ATOM     10  C   UNL     1       5.777  -5.709  26.662  0.00  0.00    +0.029 A 
BRANCH   5  20
ATOM     11  N   UNL     1       0.443  -7.849  21.216  0.00  0.00    -0.327 N 
ATOM     12  H   UNL     1      -0.212  -8.609  21.352  0.00  0.00    +0.145 HD
ATOM     13  H   UNL     1       0.085  -6.985  20.831  0.00  0.00    +0.145 HD
ATOM     14  C   UNL     1       1.198  -7.642  22.355  0.00  0.00    +0.218 A 
ATOM     15  N   UNL     1       1.249  -8.703  23.204  0.00  0.00    -0.178 NA
ATOM     16  C   UNL     1       2.006  -8.610  24.316  0.00  0.00    +0.247 A 
ATOM     17  C   UNL     1       2.701  -7.424  24.522  0.00  0.00    +0.193 A 
ATOM     18  C   UNL     1       2.563  -6.352  23.586  0.00  0.00    +0.210 A 
ATOM     19  N   UNL     1       3.296  -5.314  23.977  0.00  0.00    -0.127 NA
ATOM     20  N   UNL     1       3.905  -5.790  25.093  0.00  0.00    -0.148 N 
ATOM     21  N   UNL     1       3.553  -7.044  25.492  0.00  0.00    -0.140 NA
ATOM     22  N   UNL     1       1.790  -6.436  22.478  0.00  0.00    -0.191 NA
BRANCH  16  23
ATOM     23  O   UNL     1       2.053  -9.688  25.160  0.00  0.00    -0.491 OA
ATOM     24  H   UNL     1       2.750  -9.472  25.805  0.00  0.00    +0.294 HD
ENDBRANCH  16  23
ENDBRANCH   5  20
ENDBRANCH   1   7
BRANCH   2  25
ATOM     25  C   UNL     1       7.477   0.505  25.743  0.00  0.00    +0.141 C 
BRANCH  25  26
ATOM     26  C   UNL     1       8.372   0.759  24.548  0.00  0.00    -0.017 A 
ATOM     27  C   UNL     1       8.325   0.079  23.315  0.00  0.00    +0.017 A 
ATOM     28  C   UNL     1       9.362   0.280  22.385  0.00  0.00    +0.015 A 
ATOM     29  C   UNL     1      10.318   1.277  22.564  0.00  0.00    +0.001 A 
ATOM     30  C   UNL     1      10.265   2.073  23.697  0.00  0.00    +0.000 A 
ATOM     31  C   UNL     1       9.322   1.799  24.687  0.00  0.00    +0.006 A 
BRANCH  27  32
ATOM     32  S   UNL     1       6.995  -1.000  22.760  0.00  0.00    -0.089 S 
BRANCH  32  33
ATOM     33  C   UNL     1       7.680  -2.621  23.156  0.00  0.00    +0.018 A 
ATOM     34  C   UNL     1       7.158  -3.866  22.746  0.00  0.00    -0.008 A 
ATOM     35  C   UNL     1       7.632  -5.041  23.368  0.00  0.00    +0.007 A 
ATOM     36  C   UNL     1       8.711  -5.006  24.245  0.00  0.00    +0.000 A 
ATOM     37  C   UNL     1       9.347  -3.797  24.492  0.00  0.00    +0.001 A 
ATOM     38  C   UNL     1       8.826  -2.613  23.967  0.00  0.00    +0.015 A 
BRANCH  34  39
ATOM     39  C   UNL     1       6.178  -4.056  21.617  0.00  0.00    +0.192 C 
BRANCH  39  40
ATOM     40  O   UNL     1       5.348  -5.194  21.879  0.00  0.00    -0.390 OA
ATOM     41  H   UNL     1       4.421  -4.898  21.828  0.00  0.00    +0.210 HD
ENDBRANCH  39  40
ENDBRANCH  34  39
ENDBRANCH  32  33
ENDBRANCH  27  32
ENDBRANCH  25  26
ENDBRANCH   2  25
TORSDOF 9
ENDMDL
