MODEL 1
REMARK VINA RESULT:      -6.1      0.000      0.000
REMARK  Name = 
REMARK  8 active torsions:
REMARK  status: ('A' for Active; 'I' for Inactive)
REMARK    1  A    between atoms: C_2  and  N_3
REMARK    2  A    between atoms: C_2  and  C_4
REMARK    3  A    between atoms: C_2  and  C_12
REMARK    4  A    between atoms: C_4  and  C_5
REMARK    5  A    between atoms: C_5  and  C_6
REMARK    6  A    between atoms: C_12  and  C_13
REMARK    7  A    between atoms: C_13  and  S_14
REMARK    8  A    between atoms: S_14  and  C_17
REMARK                            x       y       z     vdW  Elec       q    Type
REMARK                         _______ _______ _______ _____ _____    ______ ____
ROOT
ATOM      1  C   UNL     1       8.615  -4.552  24.727  0.00  0.00    +0.052 C 
ENDROOT
BRANCH   1   2
ATOM      2  N   UNL     1       9.767  -5.431  24.916  0.00  0.00    -0.327 NA
ATOM      3  H   UNL     1       9.656  -6.313  24.421  0.00  0.00    +0.118 HD
ATOM      4  H   UNL     1      10.614  -4.990  24.554  0.00  0.00    +0.118 HD
ENDBRANCH   1   2
BRANCH   1   5
ATOM      5  C   UNL     1       7.946  -4.794  23.359  0.00  0.00    +0.041 C 
BRANCH   5   6
ATOM      6  C   UNL     1       6.491  -5.252  23.459  0.00  0.00    +0.173 C 
BRANCH   6   7
ATOM      7  S   UNL     1       5.396  -4.113  22.627  0.00  0.00    -0.003 S 
ATOM      8  O   UNL     1       4.031  -4.532  22.878  0.00  0.00    -0.169 OA
ATOM      9  O   UNL     1       5.879  -3.920  21.272  0.00  0.00    -0.169 OA
BRANCH   7  10
ATOM     10  C   UNL     1       5.657  -2.587  23.503  0.00  0.00    +0.088 A 
ATOM     11  C   UNL     1       6.343  -1.538  22.882  0.00  0.00    +0.027 A 
ATOM     12  C   UNL     1       6.556  -0.351  23.583  0.00  0.00    +0.002 A 
ATOM     13  C   UNL     1       6.098  -0.219  24.896  0.00  0.00    +0.000 A 
ATOM     14  C   UNL     1       5.429  -1.277  25.515  0.00  0.00    +0.002 A 
ATOM     15  C   UNL     1       5.212  -2.468  24.822  0.00  0.00    +0.027 A 
ENDBRANCH   7  10
ENDBRANCH   6   7
ENDBRANCH   5   6
ENDBRANCH   1   5
BRANCH   1  16
ATOM     16  C   UNL     1       9.064  -3.080  24.842  0.00  0.00    +0.023 C 
BRANCH  16  17
ATOM     17  C   UNL     1      10.041  -2.648  23.738  0.00  0.00    +0.036 C 
BRANCH  17  18
ATOM     18  C   UNL     1      10.015  -1.152  23.530  0.00  0.00    -0.047 A 
ATOM     19  C   UNL     1      10.101  -0.284  24.628  0.00  0.00    +0.003 A 
ATOM     20  C   UNL     1      10.106   1.099  24.441  0.00  0.00    +0.000 A 
ATOM     21  C   UNL     1      10.029   1.629  23.155  0.00  0.00    +0.000 A 
ATOM     22  C   UNL     1       9.942   0.775  22.055  0.00  0.00    +0.000 A 
ATOM     23  C   UNL     1       9.937  -0.609  22.240  0.00  0.00    +0.003 A 
ENDBRANCH  17  18
ENDBRANCH  16  17
ENDBRANCH   1  16
TORSDOF 8
ENDMDL
MODEL 2
REMARK VINA RESULT:      -5.9      2.171      3.072
REMARK  Name = 
REMARK  8 active torsions:
REMARK  status: ('A' for Active; 'I' for Inactive)
REMARK    1  A    between atoms: C_2  and  N_3
REMARK    2  A    between atoms: C_2  and  C_4
REMARK    3  A    between atoms: C_2  and  C_12
REMARK    4  A    between atoms: C_4  and  C_5
REMARK    5  A    between atoms: C_5  and  C_6
REMARK    6  A    between atoms: C_12  and  C_13
REMARK    7  A    between atoms: C_13  and  S_14
REMARK    8  A    between atoms: S_14  and  C_17
REMARK                            x       y       z     vdW  Elec       q    Type
REMARK                         _______ _______ _______ _____ _____    ______ ____
ROOT
ATOM      1  C   UNL     1       9.388  -4.498  25.928  0.00  0.00    +0.052 C 
ENDROOT
BRANCH   1   2
ATOM      2  N   UNL     1       9.768  -5.456  24.892  0.00  0.00    -0.327 NA
ATOM      3  H   UNL     1       9.845  -5.016  23.979  0.00  0.00    +0.118 HD
ATOM      4  H   UNL     1      10.678  -5.866  25.105  0.00  0.00    +0.118 HD
ENDBRANCH   1   2
BRANCH   1   5
ATOM      5  C   UNL     1       8.222  -5.032  26.783  0.00  0.00    +0.041 C 
BRANCH   5   6
ATOM      6  C   UNL     1       6.975  -4.149  26.744  0.00  0.00    +0.173 C 
BRANCH   6   7
ATOM      7  S   UNL     1       5.605  -4.997  25.974  0.00  0.00    -0.003 S 
ATOM      8  O   UNL     1       4.376  -4.370  26.420  0.00  0.00    -0.169 OA
ATOM      9  O   UNL     1       5.809  -6.426  26.123  0.00  0.00    -0.169 OA
BRANCH   7  10
ATOM     10  C   UNL     1       5.807  -4.612  24.250  0.00  0.00    +0.088 A 
ATOM     11  C   UNL     1       6.379  -5.555  23.389  0.00  0.00    +0.027 A 
ATOM     12  C   UNL     1       6.547  -5.236  22.042  0.00  0.00    +0.002 A 
ATOM     13  C   UNL     1       6.159  -3.984  21.562  0.00  0.00    +0.000 A 
ATOM     14  C   UNL     1       5.605  -3.041  22.430  0.00  0.00    +0.002 A 
ATOM     15  C   UNL     1       5.433  -3.350  23.779  0.00  0.00    +0.027 A 
ENDBRANCH   7  10
ENDBRANCH   6   7
ENDBRANCH   5   6
ENDBRANCH   1   5
BRANCH   1  16
ATOM     16  C   UNL     1       8.993  -3.158  25.274  0.00  0.00    +0.023 C 
BRANCH  16  17
ATOM     17  C   UNL     1       9.136  -3.156  23.745  0.00  0.00    +0.036 C 
BRANCH  17  18
ATOM     18  C   UNL     1       9.456  -1.776  23.220  0.00  0.00    -0.047 A 
ATOM     19  C   UNL     1       9.153  -1.437  21.894  0.00  0.00    +0.003 A 
ATOM     20  C   UNL     1       9.420  -0.155  21.410  0.00  0.00    +0.000 A 
ATOM     21  C   UNL     1       9.989   0.801  22.247  0.00  0.00    +0.000 A 
ATOM     22  C   UNL     1      10.296   0.475  23.568  0.00  0.00    +0.000 A 
ATOM     23  C   UNL     1      10.029  -0.807  24.054  0.00  0.00    +0.003 A 
ENDBRANCH  17  18
ENDBRANCH  16  17
ENDBRANCH   1  16
TORSDOF 8
ENDMDL
MODEL 3
REMARK VINA RESULT:      -5.8      3.538      5.069
REMARK  Name = 
REMARK  8 active torsions:
REMARK  status: ('A' for Active; 'I' for Inactive)
REMARK    1  A    between atoms: C_2  and  N_3
REMARK    2  A    between atoms: C_2  and  C_4
REMARK    3  A    between atoms: C_2  and  C_12
REMARK    4  A    between atoms: C_4  and  C_5
REMARK    5  A    between atoms: C_5  and  C_6
REMARK    6  A    between atoms: C_12  and  C_13
REMARK    7  A    between atoms: C_13  and  S_14
REMARK    8  A    between atoms: S_14  and  C_17
REMARK                            x       y       z     vdW  Elec       q    Type
REMARK                         _______ _______ _______ _____ _____    ______ ____
ROOT
ATOM      1  C   UNL     1       9.431  -4.204  25.852  0.00  0.00    +0.052 C 
ENDROOT
BRANCH   1   2
ATOM      2  N   UNL     1      10.001  -5.538  25.668  0.00  0.00    -0.327 NA
ATOM      3  H   UNL     1      10.099  -6.033  26.551  0.00  0.00    +0.118 HD
ATOM      4  H   UNL     1       9.393  -6.104  25.073  0.00  0.00    +0.118 HD
ENDBRANCH   1   2
BRANCH   1   5
ATOM      5  C   UNL     1       8.076  -4.272  26.583  0.00  0.00    +0.041 C 
BRANCH   5   6
ATOM      6  C   UNL     1       7.566  -5.695  26.804  0.00  0.00    +0.173 C 
BRANCH   6   7
ATOM      7  S   UNL     1       5.880  -5.694  27.396  0.00  0.00    -0.003 S 
ATOM      8  O   UNL     1       5.681  -4.498  28.191  0.00  0.00    -0.169 OA
ATOM      9  O   UNL     1       5.584  -7.008  27.937  0.00  0.00    -0.169 OA
BRANCH   7  10
ATOM     10  C   UNL     1       4.928  -5.510  25.904  0.00  0.00    +0.088 A 
ATOM     11  C   UNL     1       4.695  -6.621  25.088  0.00  0.00    +0.027 A 
ATOM     12  C   UNL     1       3.959  -6.463  23.913  0.00  0.00    +0.002 A 
ATOM     13  C   UNL     1       3.474  -5.205  23.552  0.00  0.00    +0.000 A 
ATOM     14  C   UNL     1       3.726  -4.097  24.364  0.00  0.00    +0.002 A 
ATOM     15  C   UNL     1       4.460  -4.245  25.541  0.00  0.00    +0.027 A 
ENDBRANCH   7  10
ENDBRANCH   6   7
ENDBRANCH   5   6
ENDBRANCH   1   5
BRANCH   1  16
ATOM     16  C   UNL     1       9.257  -3.522  24.479  0.00  0.00    +0.023 C 
BRANCH  16  17
ATOM     17  C   UNL     1       7.800  -3.166  24.150  0.00  0.00    +0.036 C 
BRANCH  17  18
ATOM     18  C   UNL     1       7.260  -4.021  23.026  0.00  0.00    -0.047 A 
ATOM     19  C   UNL     1       7.523  -5.397  22.998  0.00  0.00    +0.003 A 
ATOM     20  C   UNL     1       7.004  -6.198  21.978  0.00  0.00    +0.000 A 
ATOM     21  C   UNL     1       6.217  -5.630  20.979  0.00  0.00    +0.000 A 
ATOM     22  C   UNL     1       5.950  -4.262  20.997  0.00  0.00    +0.000 A 
ATOM     23  C   UNL     1       6.467  -3.459  22.017  0.00  0.00    +0.003 A 
ENDBRANCH  17  18
ENDBRANCH  16  17
ENDBRANCH   1  16
TORSDOF 8
ENDMDL
MODEL 4
REMARK VINA RESULT:      -5.7      2.858      4.779
REMARK  Name = 
REMARK  8 active torsions:
REMARK  status: ('A' for Active; 'I' for Inactive)
REMARK    1  A    between atoms: C_2  and  N_3
REMARK    2  A    between atoms: C_2  and  C_4
REMARK    3  A    between atoms: C_2  and  C_12
REMARK    4  A    between atoms: C_4  and  C_5
REMARK    5  A    between atoms: C_5  and  C_6
REMARK    6  A    between atoms: C_12  and  C_13
REMARK    7  A    between atoms: C_13  and  S_14
REMARK    8  A    between atoms: S_14  and  C_17
REMARK                            x       y       z     vdW  Elec       q    Type
REMARK                         _______ _______ _______ _____ _____    ______ ____
ROOT
ATOM      1  C   UNL     1       7.863  -1.070  26.830  0.00  0.00    +0.052 C 
ENDROOT
BRANCH   1   2
ATOM      2  N   UNL     1       8.984  -0.383  27.468  0.00  0.00    -0.327 NA
ATOM      3  H   UNL     1       8.675   0.407  28.029  0.00  0.00    +0.118 HD
ATOM      4  H   UNL     1       9.479  -1.020  28.094  0.00  0.00    +0.118 HD
ENDBRANCH   1   2
BRANCH   1   5
ATOM      5  C   UNL     1       8.355  -2.163  25.861  0.00  0.00    +0.041 C 
BRANCH   5   6
ATOM      6  C   UNL     1       7.833  -2.002  24.434  0.00  0.00    +0.173 C 
BRANCH   6   7
ATOM      7  S   UNL     1       9.160  -2.105  23.244  0.00  0.00    -0.003 S 
ATOM      8  O   UNL     1       8.591  -2.472  21.962  0.00  0.00    -0.169 OA
ATOM      9  O   UNL     1      10.241  -2.878  23.829  0.00  0.00    -0.169 OA
BRANCH   7  10
ATOM     10  C   UNL     1       9.722  -0.422  23.117  0.00  0.00    +0.088 A 
ATOM     11  C   UNL     1      10.396   0.168  24.192  0.00  0.00    +0.027 A 
ATOM     12  C   UNL     1      10.819   1.493  24.088  0.00  0.00    +0.002 A 
ATOM     13  C   UNL     1      10.560   2.224  22.927  0.00  0.00    +0.000 A 
ATOM     14  C   UNL     1       9.872   1.633  21.865  0.00  0.00    +0.002 A 
ATOM     15  C   UNL     1       9.445   0.309  21.959  0.00  0.00    +0.027 A 
ENDBRANCH   7  10
ENDBRANCH   6   7
ENDBRANCH   5   6
ENDBRANCH   1   5
BRANCH   1  16
ATOM     16  C   UNL     1       6.993  -0.045  26.072  0.00  0.00    +0.023 C 
BRANCH  16  17
ATOM     17  C   UNL     1       7.540   1.389  26.133  0.00  0.00    +0.036 C 
BRANCH  17  18
ATOM     18  C   UNL     1       7.261   2.144  24.854  0.00  0.00    -0.047 A 
ATOM     19  C   UNL     1       6.564   1.526  23.807  0.00  0.00    +0.003 A 
ATOM     20  C   UNL     1       6.278   2.226  22.634  0.00  0.00    +0.000 A 
ATOM     21  C   UNL     1       6.683   3.552  22.497  0.00  0.00    +0.000 A 
ATOM     22  C   UNL     1       7.377   4.177  23.533  0.00  0.00    +0.000 A 
ATOM     23  C   UNL     1       7.664   3.478  24.708  0.00  0.00    +0.003 A 
ENDBRANCH  17  18
ENDBRANCH  16  17
ENDBRANCH   1  16
TORSDOF 8
ENDMDL
MODEL 5
REMARK VINA RESULT:      -5.7      2.154      3.102
REMARK  Name = 
REMARK  8 active torsions:
REMARK  status: ('A' for Active; 'I' for Inactive)
REMARK    1  A    between atoms: C_2  and  N_3
REMARK    2  A    between atoms: C_2  and  C_4
REMARK    3  A    between atoms: C_2  and  C_12
REMARK    4  A    between atoms: C_4  and  C_5
REMARK    5  A    between atoms: C_5  and  C_6
REMARK    6  A    between atoms: C_12  and  C_13
REMARK    7  A    between atoms: C_13  and  S_14
REMARK    8  A    between atoms: S_14  and  C_17
REMARK                            x       y       z     vdW  Elec       q    Type
REMARK                         _______ _______ _______ _____ _____    ______ ____
ROOT
ATOM      1  C   UNL     1       7.747  -4.548  26.670  0.00  0.00    +0.052 C 
ENDROOT
BRANCH   1   2
ATOM      2  N   UNL     1       8.290  -5.901  26.775  0.00  0.00    -0.327 NA
ATOM      3  H   UNL     1       7.878  -6.529  26.089  0.00  0.00    +0.118 HD
ATOM      4  H   UNL     1       9.297  -5.893  26.605  0.00  0.00    +0.118 HD
ENDBRANCH   1   2
BRANCH   1   5
ATOM      5  C   UNL     1       6.218  -4.574  26.475  0.00  0.00    +0.041 C 
BRANCH   5   6
ATOM      6  C   UNL     1       5.645  -5.979  26.289  0.00  0.00    +0.173 C 
BRANCH   6   7
ATOM      7  S   UNL     1       4.537  -6.045  24.890  0.00  0.00    -0.003 S 
ATOM      8  O   UNL     1       3.321  -5.337  25.241  0.00  0.00    -0.169 OA
ATOM      9  O   UNL     1       4.490  -7.413  24.407  0.00  0.00    -0.169 OA
BRANCH   7  10
ATOM     10  C   UNL     1       5.382  -5.079  23.658  0.00  0.00    +0.088 A 
ATOM     11  C   UNL     1       4.890  -3.817  23.308  0.00  0.00    +0.027 A 
ATOM     12  C   UNL     1       5.551  -3.074  22.330  0.00  0.00    +0.002 A 
ATOM     13  C   UNL     1       6.684  -3.592  21.700  0.00  0.00    +0.000 A 
ATOM     14  C   UNL     1       7.159  -4.860  22.042  0.00  0.00    +0.002 A 
ATOM     15  C   UNL     1       6.505  -5.611  23.019  0.00  0.00    +0.027 A 
ENDBRANCH   7  10
ENDBRANCH   6   7
ENDBRANCH   5   6
ENDBRANCH   1   5
BRANCH   1  16
ATOM     16  C   UNL     1       8.418  -3.811  25.493  0.00  0.00    +0.023 C 
BRANCH  16  17
ATOM     17  C   UNL     1       8.072  -2.316  25.429  0.00  0.00    +0.036 C 
BRANCH  17  18
ATOM     18  C   UNL     1       8.583  -1.683  24.155  0.00  0.00    -0.047 A 
ATOM     19  C   UNL     1       7.922  -0.579  23.600  0.00  0.00    +0.003 A 
ATOM     20  C   UNL     1       8.404   0.028  22.439  0.00  0.00    +0.000 A 
ATOM     21  C   UNL     1       9.553  -0.461  21.823  0.00  0.00    +0.000 A 
ATOM     22  C   UNL     1      10.219  -1.560  22.366  0.00  0.00    +0.000 A 
ATOM     23  C   UNL     1       9.738  -2.168  23.527  0.00  0.00    +0.003 A 
ENDBRANCH  17  18
ENDBRANCH  16  17
ENDBRANCH   1  16
TORSDOF 8
ENDMDL
MODEL 6
REMARK VINA RESULT:      -5.6      2.589      3.163
REMARK  Name = 
REMARK  8 active torsions:
REMARK  status: ('A' for Active; 'I' for Inactive)
REMARK    1  A    between atoms: C_2  and  N_3
REMARK    2  A    between atoms: C_2  and  C_4
REMARK    3  A    between atoms: C_2  and  C_12
REMARK    4  A    between atoms: C_4  and  C_5
REMARK    5  A    between atoms: C_5  and  C_6
REMARK    6  A    between atoms: C_12  and  C_13
REMARK    7  A    between atoms: C_13  and  S_14
REMARK    8  A    between atoms: S_14  and  C_17
REMARK                            x       y       z     vdW  Elec       q    Type
REMARK                         _______ _______ _______ _____ _____    ______ ____
ROOT
ATOM      1  C   UNL     1       6.409  -3.812  21.933  0.00  0.00    +0.052 C 
ENDROOT
BRANCH   1   2
ATOM      2  N   UNL     1       4.997  -3.967  22.275  0.00  0.00    -0.327 NA
ATOM      3  H   UNL     1       4.394  -3.833  21.466  0.00  0.00    +0.118 HD
ATOM      4  H   UNL     1       4.819  -4.909  22.628  0.00  0.00    +0.118 HD
ENDBRANCH   1   2
BRANCH   1   5
ATOM      5  C   UNL     1       7.277  -4.862  22.654  0.00  0.00    +0.041 C 
BRANCH   5   6
ATOM      6  C   UNL     1       6.778  -5.217  24.054  0.00  0.00    +0.173 C 
BRANCH   6   7
ATOM      7  S   UNL     1       8.026  -4.890  25.289  0.00  0.00    -0.003 S 
ATOM      8  O   UNL     1       9.312  -4.815  24.623  0.00  0.00    -0.169 OA
ATOM      9  O   UNL     1       7.816  -5.794  26.404  0.00  0.00    -0.169 OA
BRANCH   7  10
ATOM     10  C   UNL     1       7.620  -3.253  25.853  0.00  0.00    +0.088 A 
ATOM     11  C   UNL     1       8.617  -2.439  26.400  0.00  0.00    +0.027 A 
ATOM     12  C   UNL     1       8.285  -1.162  26.854  0.00  0.00    +0.002 A 
ATOM     13  C   UNL     1       6.968  -0.709  26.771  0.00  0.00    +0.000 A 
ATOM     14  C   UNL     1       5.974  -1.533  26.239  0.00  0.00    +0.002 A 
ATOM     15  C   UNL     1       6.296  -2.811  25.783  0.00  0.00    +0.027 A 
ENDBRANCH   7  10
ENDBRANCH   6   7
ENDBRANCH   5   6
ENDBRANCH   1   5
BRANCH   1  16
ATOM     16  C   UNL     1       6.879  -2.391  22.306  0.00  0.00    +0.023 C 
BRANCH  16  17
ATOM     17  C   UNL     1       8.407  -2.237  22.331  0.00  0.00    +0.036 C 
BRANCH  17  18
ATOM     18  C   UNL     1       8.826  -0.989  23.075  0.00  0.00    -0.047 A 
ATOM     19  C   UNL     1      10.138  -0.857  23.548  0.00  0.00    +0.003 A 
ATOM     20  C   UNL     1      10.540   0.304  24.212  0.00  0.00    +0.000 A 
ATOM     21  C   UNL     1       9.635   1.345  24.405  0.00  0.00    +0.000 A 
ATOM     22  C   UNL     1       8.326   1.224  23.938  0.00  0.00    +0.000 A 
ATOM     23  C   UNL     1       7.922   0.063  23.274  0.00  0.00    +0.003 A 
ENDBRANCH  17  18
ENDBRANCH  16  17
ENDBRANCH   1  16
TORSDOF 8
ENDMDL
MODEL 7
REMARK VINA RESULT:      -5.5      2.596      3.565
REMARK  Name = 
REMARK  8 active torsions:
REMARK  status: ('A' for Active; 'I' for Inactive)
REMARK    1  A    between atoms: C_2  and  N_3
REMARK    2  A    between atoms: C_2  and  C_4
REMARK    3  A    between atoms: C_2  and  C_12
REMARK    4  A    between atoms: C_4  and  C_5
REMARK    5  A    between atoms: C_5  and  C_6
REMARK    6  A    between atoms: C_12  and  C_13
REMARK    7  A    between atoms: C_13  and  S_14
REMARK    8  A    between atoms: S_14  and  C_17
REMARK                            x       y       z     vdW  Elec       q    Type
REMARK                         _______ _______ _______ _____ _____    ______ ____
ROOT
ATOM      1  C   UNL     1       8.765  -1.599  25.452  0.00  0.00    +0.052 C 
ENDROOT
BRANCH   1   2
ATOM      2  N   UNL     1       9.393  -0.394  25.991  0.00  0.00    -0.327 NA
ATOM      3  H   UNL     1       8.716   0.217  26.441  0.00  0.00    +0.118 HD
ATOM      4  H   UNL     1      10.088  -0.642  26.697  0.00  0.00    +0.118 HD
ENDBRANCH   1   2
BRANCH   1   5
ATOM      5  C   UNL     1       8.658  -2.701  26.524  0.00  0.00    +0.041 C 
BRANCH   5   6
ATOM      6  C   UNL     1       7.326  -3.450  26.507  0.00  0.00    +0.173 C 
BRANCH   6   7
ATOM      7  S   UNL     1       7.492  -5.049  25.730  0.00  0.00    -0.003 S 
ATOM      8  O   UNL     1       6.562  -5.961  26.367  0.00  0.00    -0.169 OA
ATOM      9  O   UNL     1       8.905  -5.369  25.637  0.00  0.00    -0.169 OA
BRANCH   7  10
ATOM     10  C   UNL     1       6.907  -4.758  24.075  0.00  0.00    +0.088 A 
ATOM     11  C   UNL     1       7.454  -5.478  23.008  0.00  0.00    +0.027 A 
ATOM     12  C   UNL     1       6.999  -5.232  21.713  0.00  0.00    +0.002 A 
ATOM     13  C   UNL     1       6.016  -4.267  21.486  0.00  0.00    +0.000 A 
ATOM     14  C   UNL     1       5.487  -3.539  22.554  0.00  0.00    +0.002 A 
ATOM     15  C   UNL     1       5.936  -3.778  23.852  0.00  0.00    +0.027 A 
ENDBRANCH   7  10
ENDBRANCH   6   7
ENDBRANCH   5   6
ENDBRANCH   1   5
BRANCH   1  16
ATOM     16  C   UNL     1       9.579  -2.112  24.246  0.00  0.00    +0.023 C 
BRANCH  16  17
ATOM     17  C   UNL     1       8.862  -1.932  22.900  0.00  0.00    +0.036 C 
BRANCH  17  18
ATOM     18  C   UNL     1       8.687  -0.471  22.556  0.00  0.00    -0.047 A 
ATOM     19  C   UNL     1       9.785   0.291  22.135  0.00  0.00    +0.003 A 
ATOM     20  C   UNL     1       9.626   1.635  21.789  0.00  0.00    +0.000 A 
ATOM     21  C   UNL     1       8.367   2.227  21.857  0.00  0.00    +0.000 A 
ATOM     22  C   UNL     1       7.268   1.478  22.275  0.00  0.00    +0.000 A 
ATOM     23  C   UNL     1       7.425   0.134  22.621  0.00  0.00    +0.003 A 
ENDBRANCH  17  18
ENDBRANCH  16  17
ENDBRANCH   1  16
TORSDOF 8
ENDMDL
MODEL 8
REMARK VINA RESULT:      -5.5      2.461      3.710
REMARK  Name = 
REMARK  8 active torsions:
REMARK  status: ('A' for Active; 'I' for Inactive)
REMARK    1  A    between atoms: C_2  and  N_3
REMARK    2  A    between atoms: C_2  and  C_4
REMARK    3  A    between atoms: C_2  and  C_12
REMARK    4  A    between atoms: C_4  and  C_5
REMARK    5  A    between atoms: C_5  and  C_6
REMARK    6  A    between atoms: C_12  and  C_13
REMARK    7  A    between atoms: C_13  and  S_14
REMARK    8  A    between atoms: S_14  and  C_17
REMARK                            x       y       z     vdW  Elec       q    Type
REMARK                         _______ _______ _______ _____ _____    ______ ____
ROOT
ATOM      1  C   UNL     1       7.164  -1.269  26.636  0.00  0.00    +0.052 C 
ENDROOT
BRANCH   1   2
ATOM      2  N   UNL     1       8.576  -1.093  26.972  0.00  0.00    -0.327 NA
ATOM      3  H   UNL     1       9.153  -0.990  26.141  0.00  0.00    +0.118 HD
ATOM      4  H   UNL     1       8.704  -0.249  27.532  0.00  0.00    +0.118 HD
ENDBRANCH   1   2
BRANCH   1   5
ATOM      5  C   UNL     1       6.799  -2.762  26.521  0.00  0.00    +0.041 C 
BRANCH   5   6
ATOM      6  C   UNL     1       7.993  -3.702  26.678  0.00  0.00    +0.173 C 
BRANCH   6   7
ATOM      7  S   UNL     1       8.228  -4.701  25.216  0.00  0.00    -0.003 S 
ATOM      8  O   UNL     1       6.947  -5.272  24.849  0.00  0.00    -0.169 OA
ATOM      9  O   UNL     1       9.390  -5.545  25.420  0.00  0.00    -0.169 OA
BRANCH   7  10
ATOM     10  C   UNL     1       8.656  -3.504  23.972  0.00  0.00    +0.088 A 
ATOM     11  C   UNL     1       9.879  -2.830  24.049  0.00  0.00    +0.027 A 
ATOM     12  C   UNL     1      10.199  -1.882  23.076  0.00  0.00    +0.002 A 
ATOM     13  C   UNL     1       9.300  -1.603  22.045  0.00  0.00    +0.000 A 
ATOM     14  C   UNL     1       8.073  -2.267  21.985  0.00  0.00    +0.002 A 
ATOM     15  C   UNL     1       7.744  -3.216  22.953  0.00  0.00    +0.027 A 
ENDBRANCH   7  10
ENDBRANCH   6   7
ENDBRANCH   5   6
ENDBRANCH   1   5
BRANCH   1  16
ATOM     16  C   UNL     1       6.854  -0.545  25.310  0.00  0.00    +0.023 C 
BRANCH  16  17
ATOM     17  C   UNL     1       7.163   0.959  25.345  0.00  0.00    +0.036 C 
BRANCH  17  18
ATOM     18  C   UNL     1       8.144   1.349  24.263  0.00  0.00    -0.047 A 
ATOM     19  C   UNL     1       9.515   1.420  24.546  0.00  0.00    +0.003 A 
ATOM     20  C   UNL     1      10.430   1.753  23.545  0.00  0.00    +0.000 A 
ATOM     21  C   UNL     1       9.983   2.014  22.252  0.00  0.00    +0.000 A 
ATOM     22  C   UNL     1       8.621   1.947  21.960  0.00  0.00    +0.000 A 
ATOM     23  C   UNL     1       7.704   1.615  22.960  0.00  0.00    +0.003 A 
ENDBRANCH  17  18
ENDBRANCH  16  17
ENDBRANCH   1  16
TORSDOF 8
ENDMDL
MODEL 9
REMARK VINA RESULT:      -5.5      1.494      1.991
REMARK  Name = 
REMARK  8 active torsions:
REMARK  status: ('A' for Active; 'I' for Inactive)
REMARK    1  A    between atoms: C_2  and  N_3
REMARK    2  A    between atoms: C_2  and  C_4
REMARK    3  A    between atoms: C_2  and  C_12
REMARK    4  A    between atoms: C_4  and  C_5
REMARK    5  A    between atoms: C_5  and  C_6
REMARK    6  A    between atoms: C_12  and  C_13
REMARK    7  A    between atoms: C_13  and  S_14
REMARK    8  A    between atoms: S_14  and  C_17
REMARK                            x       y       z     vdW  Elec       q    Type
REMARK                         _______ _______ _______ _____ _____    ______ ____
ROOT
ATOM      1  C   UNL     1       8.812  -4.118  24.816  0.00  0.00    +0.052 C 
ENDROOT
BRANCH   1   2
ATOM      2  N   UNL     1       9.784  -5.209  24.803  0.00  0.00    -0.327 NA
ATOM      3  H   UNL     1       9.757  -5.731  23.930  0.00  0.00    +0.118 HD
ATOM      4  H   UNL     1      10.732  -4.841  24.902  0.00  0.00    +0.118 HD
ENDBRANCH   1   2
BRANCH   1   5
ATOM      5  C   UNL     1       7.387  -4.636  24.541  0.00  0.00    +0.041 C 
BRANCH   5   6
ATOM      6  C   UNL     1       6.315  -3.983  25.414  0.00  0.00    +0.173 C 
BRANCH   6   7
ATOM      7  S   UNL     1       5.466  -2.683  24.531  0.00  0.00    -0.003 S 
ATOM      8  O   UNL     1       4.107  -2.610  25.032  0.00  0.00    -0.169 OA
ATOM      9  O   UNL     1       5.731  -2.843  23.114  0.00  0.00    -0.169 OA
BRANCH   7  10
ATOM     10  C   UNL     1       6.312  -1.212  25.065  0.00  0.00    +0.088 A 
ATOM     11  C   UNL     1       6.999  -1.208  26.283  0.00  0.00    +0.027 A 
ATOM     12  C   UNL     1       7.646  -0.045  26.699  0.00  0.00    +0.002 A 
ATOM     13  C   UNL     1       7.596   1.107  25.911  0.00  0.00    +0.000 A 
ATOM     14  C   UNL     1       6.894   1.101  24.704  0.00  0.00    +0.002 A 
ATOM     15  C   UNL     1       6.243  -0.058  24.279  0.00  0.00    +0.027 A 
ENDBRANCH   7  10
ENDBRANCH   6   7
ENDBRANCH   5   6
ENDBRANCH   1   5
BRANCH   1  16
ATOM     16  C   UNL     1       9.204  -3.064  23.759  0.00  0.00    +0.023 C 
BRANCH  16  17
ATOM     17  C   UNL     1      10.063  -1.922  24.321  0.00  0.00    +0.036 C 
BRANCH  17  18
ATOM     18  C   UNL     1       9.939  -0.671  23.482  0.00  0.00    -0.047 A 
ATOM     19  C   UNL     1      10.472   0.542  23.939  0.00  0.00    +0.003 A 
ATOM     20  C   UNL     1      10.386   1.695  23.157  0.00  0.00    +0.000 A 
ATOM     21  C   UNL     1       9.769   1.647  21.910  0.00  0.00    +0.000 A 
ATOM     22  C   UNL     1       9.234   0.446  21.445  0.00  0.00    +0.000 A 
ATOM     23  C   UNL     1       9.320  -0.709  22.225  0.00  0.00    +0.003 A 
ENDBRANCH  17  18
ENDBRANCH  16  17
ENDBRANCH   1  16
TORSDOF 8
ENDMDL
