MODEL 1
REMARK VINA RESULT:      -7.3      0.000      0.000
REMARK  Name = 
REMARK  6 active torsions:
REMARK  status: ('A' for Active; 'I' for Inactive)
REMARK    1  A    between atoms: C_2  and  N_3
REMARK    2  A    between atoms: C_6  and  N_10
REMARK    3  A    between atoms: C_18  and  N_19
REMARK    4  A    between atoms: N_19  and  C_20
REMARK    5  A    between atoms: C_23  and  S_26
REMARK    6  A    between atoms: S_26  and  N_27
REMARK                            x       y       z     vdW  Elec       q    Type
REMARK                         _______ _______ _______ _____ _____    ______ ____
ROOT
ATOM      1  N   UNL     1       5.235  -4.572  26.821  0.00  0.00    -0.326 N 
ATOM      2  H   UNL     1       5.895  -4.373  27.565  0.00  0.00    +0.148 HD
ATOM      3  C   UNL     1       5.769  -4.701  25.555  0.00  0.00    +0.126 A 
ATOM      4  C   UNL     1       7.197  -4.267  25.388  0.00  0.00    +0.087 A 
ATOM      5  C   UNL     1       7.729  -4.234  24.152  0.00  0.00    +0.131 A 
ATOM      6  N   UNL     1       6.947  -4.756  23.107  0.00  0.00    -0.182 N 
ATOM      7  C   UNL     1       5.644  -5.213  23.329  0.00  0.00    +0.256 A 
ATOM      8  N   UNL     1       5.151  -5.659  22.194  0.00  0.00    -0.197 NA
ATOM      9  C   UNL     1       6.163  -5.467  21.306  0.00  0.00    +0.247 A 
ATOM     10  N   UNL     1       7.273  -4.911  21.793  0.00  0.00    -0.151 NA
ATOM     11  N   UNL     1       5.054  -5.155  24.560  0.00  0.00    -0.196 NA
ENDROOT
BRANCH   1  15
ATOM     12  C   UNL     1       4.701  -6.463  29.937  0.00  0.00    +0.051 C 
ATOM     13  C   UNL     1       4.421  -4.963  29.777  0.00  0.00    +0.020 C 
ATOM     14  C   UNL     1       3.500  -4.645  28.597  0.00  0.00    +0.024 C 
ATOM     15  C   UNL     1       4.008  -5.228  27.272  0.00  0.00    +0.072 C 
ATOM     16  C   UNL     1       4.266  -6.739  27.422  0.00  0.00    +0.024 C 
ATOM     17  C   UNL     1       5.170  -7.079  28.613  0.00  0.00    +0.020 C 
BRANCH  12  18
ATOM     18  N   UNL     1       3.528  -7.178  30.441  0.00  0.00    -0.327 NA
ATOM     19  H   UNL     1       3.772  -8.156  30.603  0.00  0.00    +0.118 HD
ATOM     20  H   UNL     1       3.234  -6.813  31.344  0.00  0.00    +0.118 HD
ENDBRANCH  12  18
ENDBRANCH   1  15
BRANCH   5  21
ATOM     21  N   UNL     1       9.000  -3.730  23.854  0.00  0.00    -0.299 N 
ATOM     22  H   UNL     1       9.499  -4.308  23.169  0.00  0.00    +0.154 HD
BRANCH  21  23
ATOM     23  C   UNL     1       9.300  -2.351  23.706  0.00  0.00    +0.032 A 
ATOM     24  C   UNL     1       9.325  -1.519  24.836  0.00  0.00    +0.025 A 
ATOM     25  C   UNL     1       9.514  -0.134  24.706  0.00  0.00    +0.030 A 
ATOM     26  C   UNL     1       9.660   0.428  23.435  0.00  0.00    +0.105 A 
ATOM     27  C   UNL     1       9.685  -0.383  22.306  0.00  0.00    +0.030 A 
ATOM     28  C   UNL     1       9.509  -1.757  22.450  0.00  0.00    +0.025 A 
BRANCH  26  29
ATOM     29  S   UNL     1       9.857   2.179  23.237  0.00  0.00    +0.056 S 
ATOM     30  O   UNL     1      11.143   2.551  23.780  0.00  0.00    -0.153 OA
ATOM     31  O   UNL     1       8.627   2.824  23.625  0.00  0.00    -0.153 OA
BRANCH  29  32
ATOM     32  N   UNL     1       9.963   2.314  21.569  0.00  0.00    -0.204 NA
ATOM     33  H   UNL     1       9.499   3.125  21.168  0.00  0.00    +0.144 HD
ATOM     34  H   UNL     1      10.905   2.118  21.231  0.00  0.00    +0.144 HD
ENDBRANCH  29  32
ENDBRANCH  26  29
ENDBRANCH  21  23
ENDBRANCH   5  21
TORSDOF 6
ENDMDL
MODEL 2
REMARK VINA RESULT:      -7.2      2.671      3.865
REMARK  Name = 
REMARK  6 active torsions:
REMARK  status: ('A' for Active; 'I' for Inactive)
REMARK    1  A    between atoms: C_2  and  N_3
REMARK    2  A    between atoms: C_6  and  N_10
REMARK    3  A    between atoms: C_18  and  N_19
REMARK    4  A    between atoms: N_19  and  C_20
REMARK    5  A    between atoms: C_23  and  S_26
REMARK    6  A    between atoms: S_26  and  N_27
REMARK                            x       y       z     vdW  Elec       q    Type
REMARK                         _______ _______ _______ _____ _____    ______ ____
ROOT
ATOM      1  N   UNL     1       5.946  -4.193  24.891  0.00  0.00    -0.326 N 
ATOM      2  H   UNL     1       5.148  -3.850  25.415  0.00  0.00    +0.148 HD
ATOM      3  C   UNL     1       6.713  -3.234  24.260  0.00  0.00    +0.126 A 
ATOM      4  C   UNL     1       6.131  -1.852  24.197  0.00  0.00    +0.087 A 
ATOM      5  C   UNL     1       6.764  -0.910  23.472  0.00  0.00    +0.131 A 
ATOM      6  N   UNL     1       8.020  -1.250  22.941  0.00  0.00    -0.182 N 
ATOM      7  C   UNL     1       8.550  -2.536  23.090  0.00  0.00    +0.256 A 
ATOM      8  N   UNL     1       9.733  -2.576  22.516  0.00  0.00    -0.197 NA
ATOM      9  C   UNL     1       9.900  -1.315  22.033  0.00  0.00    +0.247 A 
ATOM     10  N   UNL     1       8.892  -0.468  22.246  0.00  0.00    -0.151 NA
ATOM     11  N   UNL     1       7.871  -3.532  23.732  0.00  0.00    -0.196 NA
ENDROOT
BRANCH   1  15
ATOM     12  C   UNL     1       4.896  -6.098  27.864  0.00  0.00    +0.051 C 
ATOM     13  C   UNL     1       4.295  -6.279  26.464  0.00  0.00    +0.020 C 
ATOM     14  C   UNL     1       5.347  -6.551  25.387  0.00  0.00    +0.024 C 
ATOM     15  C   UNL     1       6.451  -5.486  25.350  0.00  0.00    +0.072 C 
ATOM     16  C   UNL     1       7.074  -5.320  26.748  0.00  0.00    +0.024 C 
ATOM     17  C   UNL     1       6.032  -5.067  27.845  0.00  0.00    +0.020 C 
BRANCH  12  18
ATOM     18  N   UNL     1       5.373  -7.368  28.412  0.00  0.00    -0.327 NA
ATOM     19  H   UNL     1       4.633  -7.794  28.972  0.00  0.00    +0.118 HD
ATOM     20  H   UNL     1       5.578  -8.035  27.672  0.00  0.00    +0.118 HD
ENDBRANCH  12  18
ENDBRANCH   1  15
BRANCH   5  21
ATOM     21  N   UNL     1       6.257   0.373  23.234  0.00  0.00    -0.299 N 
ATOM     22  H   UNL     1       5.265   0.455  23.483  0.00  0.00    +0.154 HD
BRANCH  21  23
ATOM     23  C   UNL     1       6.970   1.575  23.487  0.00  0.00    +0.032 A 
ATOM     24  C   UNL     1       7.039   2.565  22.494  0.00  0.00    +0.025 A 
ATOM     25  C   UNL     1       7.823   3.714  22.677  0.00  0.00    +0.030 A 
ATOM     26  C   UNL     1       8.561   3.868  23.853  0.00  0.00    +0.105 A 
ATOM     27  C   UNL     1       8.471   2.922  24.869  0.00  0.00    +0.030 A 
ATOM     28  C   UNL     1       7.679   1.792  24.680  0.00  0.00    +0.025 A 
BRANCH  26  29
ATOM     29  S   UNL     1       9.594   5.288  24.094  0.00  0.00    +0.056 S 
ATOM     30  O   UNL     1      10.949   4.922  23.752  0.00  0.00    -0.153 OA
ATOM     31  O   UNL     1       9.242   5.902  25.351  0.00  0.00    -0.153 OA
BRANCH  29  32
ATOM     32  N   UNL     1       9.037   6.312  22.888  0.00  0.00    -0.204 NA
ATOM     33  H   UNL     1       8.196   6.835  23.117  0.00  0.00    +0.144 HD
ATOM     34  H   UNL     1       9.795   6.839  22.457  0.00  0.00    +0.144 HD
ENDBRANCH  29  32
ENDBRANCH  26  29
ENDBRANCH  21  23
ENDBRANCH   5  21
TORSDOF 6
ENDMDL
MODEL 3
REMARK VINA RESULT:      -7.2      5.062      8.967
REMARK  Name = 
REMARK  6 active torsions:
REMARK  status: ('A' for Active; 'I' for Inactive)
REMARK    1  A    between atoms: C_2  and  N_3
REMARK    2  A    between atoms: C_6  and  N_10
REMARK    3  A    between atoms: C_18  and  N_19
REMARK    4  A    between atoms: N_19  and  C_20
REMARK    5  A    between atoms: C_23  and  S_26
REMARK    6  A    between atoms: S_26  and  N_27
REMARK                            x       y       z     vdW  Elec       q    Type
REMARK                         _______ _______ _______ _____ _____    ______ ____
ROOT
ATOM      1  N   UNL     1       8.207  -0.405  23.478  0.00  0.00    -0.326 N 
ATOM      2  H   UNL     1       7.308   0.046  23.352  0.00  0.00    +0.148 HD
ATOM      3  C   UNL     1       8.178  -1.672  24.026  0.00  0.00    +0.126 A 
ATOM      4  C   UNL     1       6.867  -2.113  24.612  0.00  0.00    +0.087 A 
ATOM      5  C   UNL     1       6.813  -3.278  25.286  0.00  0.00    +0.131 A 
ATOM      6  N   UNL     1       7.965  -4.081  25.266  0.00  0.00    -0.182 N 
ATOM      7  C   UNL     1       9.142  -3.652  24.643  0.00  0.00    +0.256 A 
ATOM      8  N   UNL     1      10.052  -4.596  24.758  0.00  0.00    -0.197 NA
ATOM      9  C   UNL     1       9.410  -5.579  25.445  0.00  0.00    +0.247 A 
ATOM     10  N   UNL     1       8.149  -5.324  25.793  0.00  0.00    -0.151 NA
ATOM     11  N   UNL     1       9.243  -2.428  24.046  0.00  0.00    -0.196 NA
ENDROOT
BRANCH   1  15
ATOM     12  C   UNL     1       9.925   2.852  23.575  0.00  0.00    +0.051 C 
ATOM     13  C   UNL     1      10.435   1.584  24.272  0.00  0.00    +0.020 C 
ATOM     14  C   UNL     1      10.556   0.385  23.328  0.00  0.00    +0.024 C 
ATOM     15  C   UNL     1       9.252   0.083  22.579  0.00  0.00    +0.072 C 
ATOM     16  C   UNL     1       8.750   1.347  21.858  0.00  0.00    +0.024 C 
ATOM     17  C   UNL     1       8.643   2.565  22.783  0.00  0.00    +0.020 C 
BRANCH  12  18
ATOM     18  N   UNL     1      10.944   3.430  22.698  0.00  0.00    -0.327 NA
ATOM     19  H   UNL     1      11.869   3.249  23.090  0.00  0.00    +0.118 HD
ATOM     20  H   UNL     1      10.939   2.985  21.783  0.00  0.00    +0.118 HD
ENDBRANCH  12  18
ENDBRANCH   1  15
BRANCH   5  21
ATOM     21  N   UNL     1       5.687  -3.733  25.981  0.00  0.00    -0.299 N 
ATOM     22  H   UNL     1       5.161  -2.968  26.418  0.00  0.00    +0.154 HD
BRANCH  21  23
ATOM     23  C   UNL     1       4.834  -4.775  25.530  0.00  0.00    +0.032 A 
ATOM     24  C   UNL     1       4.150  -4.635  24.312  0.00  0.00    +0.025 A 
ATOM     25  C   UNL     1       3.221  -5.601  23.894  0.00  0.00    +0.030 A 
ATOM     26  C   UNL     1       2.957  -6.705  24.709  0.00  0.00    +0.105 A 
ATOM     27  C   UNL     1       3.657  -6.887  25.897  0.00  0.00    +0.030 A 
ATOM     28  C   UNL     1       4.586  -5.928  26.294  0.00  0.00    +0.025 A 
BRANCH  26  29
ATOM     29  S   UNL     1       1.757  -7.919  24.227  0.00  0.00    +0.056 S 
ATOM     30  O   UNL     1       0.446  -7.410  24.559  0.00  0.00    -0.153 OA
ATOM     31  O   UNL     1       2.225  -9.216  24.649  0.00  0.00    -0.153 OA
BRANCH  29  32
ATOM     32  N   UNL     1       1.898  -7.879  22.556  0.00  0.00    -0.204 NA
ATOM     33  H   UNL     1       1.668  -6.989  22.122  0.00  0.00    +0.144 HD
ATOM     34  H   UNL     1       2.753  -8.332  22.236  0.00  0.00    +0.144 HD
ENDBRANCH  29  32
ENDBRANCH  26  29
ENDBRANCH  21  23
ENDBRANCH   5  21
TORSDOF 6
ENDMDL
MODEL 4
REMARK VINA RESULT:      -7.1      4.470      8.485
REMARK  Name = 
REMARK  6 active torsions:
REMARK  status: ('A' for Active; 'I' for Inactive)
REMARK    1  A    between atoms: C_2  and  N_3
REMARK    2  A    between atoms: C_6  and  N_10
REMARK    3  A    between atoms: C_18  and  N_19
REMARK    4  A    between atoms: N_19  and  C_20
REMARK    5  A    between atoms: C_23  and  S_26
REMARK    6  A    between atoms: S_26  and  N_27
REMARK                            x       y       z     vdW  Elec       q    Type
REMARK                         _______ _______ _______ _____ _____    ______ ____
ROOT
ATOM      1  N   UNL     1       8.581  -1.052  23.523  0.00  0.00    -0.326 N 
ATOM      2  H   UNL     1       8.806  -0.789  24.476  0.00  0.00    +0.148 HD
ATOM      3  C   UNL     1       7.949  -2.269  23.365  0.00  0.00    +0.126 A 
ATOM      4  C   UNL     1       7.919  -3.165  24.569  0.00  0.00    +0.087 A 
ATOM      5  C   UNL     1       7.446  -4.419  24.439  0.00  0.00    +0.131 A 
ATOM      6  N   UNL     1       6.867  -4.757  23.203  0.00  0.00    -0.182 N 
ATOM      7  C   UNL     1       6.858  -3.858  22.132  0.00  0.00    +0.256 A 
ATOM      8  N   UNL     1       6.246  -4.419  21.111  0.00  0.00    -0.197 NA
ATOM      9  C   UNL     1       5.893  -5.645  21.583  0.00  0.00    +0.247 A 
ATOM     10  N   UNL     1       6.252  -5.916  22.838  0.00  0.00    -0.151 NA
ATOM     11  N   UNL     1       7.429  -2.619  22.218  0.00  0.00    -0.196 NA
ENDROOT
BRANCH   1  15
ATOM     12  C   UNL     1       9.768   2.401  24.004  0.00  0.00    +0.051 C 
ATOM     13  C   UNL     1      10.569   1.303  23.295  0.00  0.00    +0.020 C 
ATOM     14  C   UNL     1       9.795   0.630  22.159  0.00  0.00    +0.024 C 
ATOM     15  C   UNL     1       8.436   0.080  22.609  0.00  0.00    +0.072 C 
ATOM     16  C   UNL     1       7.618   1.188  23.299  0.00  0.00    +0.024 C 
ATOM     17  C   UNL     1       8.385   1.888  24.427  0.00  0.00    +0.020 C 
BRANCH  12  18
ATOM     18  N   UNL     1       9.631   3.593  23.165  0.00  0.00    -0.327 NA
ATOM     19  H   UNL     1       9.562   3.311  22.186  0.00  0.00    +0.118 HD
ATOM     20  H   UNL     1       8.769   4.092  23.371  0.00  0.00    +0.118 HD
ENDBRANCH  12  18
ENDBRANCH   1  15
BRANCH   5  21
ATOM     21  N   UNL     1       7.483  -5.384  25.451  0.00  0.00    -0.299 N 
ATOM     22  H   UNL     1       8.400  -5.436  25.909  0.00  0.00    +0.154 HD
BRANCH  21  23
ATOM     23  C   UNL     1       6.421  -5.634  26.359  0.00  0.00    +0.032 A 
ATOM     24  C   UNL     1       6.548  -5.246  27.702  0.00  0.00    +0.025 A 
ATOM     25  C   UNL     1       5.559  -5.574  28.643  0.00  0.00    +0.030 A 
ATOM     26  C   UNL     1       4.443  -6.313  28.244  0.00  0.00    +0.105 A 
ATOM     27  C   UNL     1       4.274  -6.668  26.909  0.00  0.00    +0.030 A 
ATOM     28  C   UNL     1       5.256  -6.324  25.984  0.00  0.00    +0.025 A 
BRANCH  26  29
ATOM     29  S   UNL     1       3.199  -6.779  29.418  0.00  0.00    +0.056 S 
ATOM     30  O   UNL     1       2.349  -5.634  29.651  0.00  0.00    -0.153 OA
ATOM     31  O   UNL     1       3.830  -7.517  30.484  0.00  0.00    -0.153 OA
BRANCH  29  32
ATOM     32  N   UNL     1       2.305  -7.889  28.532  0.00  0.00    -0.204 NA
ATOM     33  H   UNL     1       1.720  -8.513  29.081  0.00  0.00    +0.144 HD
ATOM     34  H   UNL     1       1.870  -7.460  27.716  0.00  0.00    +0.144 HD
ENDBRANCH  29  32
ENDBRANCH  26  29
ENDBRANCH  21  23
ENDBRANCH   5  21
TORSDOF 6
ENDMDL
MODEL 5
REMARK VINA RESULT:      -7.1      4.514      8.658
REMARK  Name = 
REMARK  6 active torsions:
REMARK  status: ('A' for Active; 'I' for Inactive)
REMARK    1  A    between atoms: C_2  and  N_3
REMARK    2  A    between atoms: C_6  and  N_10
REMARK    3  A    between atoms: C_18  and  N_19
REMARK    4  A    between atoms: N_19  and  C_20
REMARK    5  A    between atoms: C_23  and  S_26
REMARK    6  A    between atoms: S_26  and  N_27
REMARK                            x       y       z     vdW  Elec       q    Type
REMARK                         _______ _______ _______ _____ _____    ______ ____
ROOT
ATOM      1  N   UNL     1       8.314  -1.302  23.643  0.00  0.00    -0.326 N 
ATOM      2  H   UNL     1       7.889  -0.533  24.148  0.00  0.00    +0.148 HD
ATOM      3  C   UNL     1       7.466  -2.329  23.278  0.00  0.00    +0.126 A 
ATOM      4  C   UNL     1       6.099  -2.315  23.899  0.00  0.00    +0.087 A 
ATOM      5  C   UNL     1       5.279  -3.363  23.695  0.00  0.00    +0.131 A 
ATOM      6  N   UNL     1       5.708  -4.341  22.782  0.00  0.00    -0.182 N 
ATOM      7  C   UNL     1       6.966  -4.270  22.175  0.00  0.00    +0.256 A 
ATOM      8  N   UNL     1       7.104  -5.294  21.360  0.00  0.00    -0.197 NA
ATOM      9  C   UNL     1       5.927  -5.965  21.486  0.00  0.00    +0.247 A 
ATOM     10  N   UNL     1       5.045  -5.447  22.341  0.00  0.00    -0.151 NA
ATOM     11  N   UNL     1       7.851  -3.266  22.453  0.00  0.00    -0.196 NA
ENDROOT
BRANCH   1  15
ATOM     12  C   UNL     1       9.406   2.055  22.592  0.00  0.00    +0.051 C 
ATOM     13  C   UNL     1       9.801   1.393  23.918  0.00  0.00    +0.020 C 
ATOM     14  C   UNL     1      10.422   0.006  23.738  0.00  0.00    +0.024 C 
ATOM     15  C   UNL     1       9.534  -0.942  22.922  0.00  0.00    +0.072 C 
ATOM     16  C   UNL     1       9.157  -0.291  21.579  0.00  0.00    +0.024 C 
ATOM     17  C   UNL     1       8.552   1.109  21.738  0.00  0.00    +0.020 C 
BRANCH  12  18
ATOM     18  N   UNL     1      10.582   2.494  21.840  0.00  0.00    -0.327 NA
ATOM     19  H   UNL     1      10.599   3.514  21.803  0.00  0.00    +0.118 HD
ATOM     20  H   UNL     1      11.443   2.220  22.308  0.00  0.00    +0.118 HD
ENDBRANCH  12  18
ENDBRANCH   1  15
BRANCH   5  21
ATOM     21  N   UNL     1       4.037  -3.525  24.320  0.00  0.00    -0.299 N 
ATOM     22  H   UNL     1       3.285  -3.721  23.651  0.00  0.00    +0.154 HD
BRANCH  21  23
ATOM     23  C   UNL     1       3.843  -4.205  25.552  0.00  0.00    +0.032 A 
ATOM     24  C   UNL     1       4.827  -5.089  26.021  0.00  0.00    +0.025 A 
ATOM     25  C   UNL     1       4.614  -5.852  27.179  0.00  0.00    +0.030 A 
ATOM     26  C   UNL     1       3.401  -5.747  27.865  0.00  0.00    +0.105 A 
ATOM     27  C   UNL     1       2.431  -4.843  27.444  0.00  0.00    +0.030 A 
ATOM     28  C   UNL     1       2.660  -4.082  26.300  0.00  0.00    +0.025 A 
BRANCH  26  29
ATOM     29  S   UNL     1       3.088  -6.731  29.307  0.00  0.00    +0.056 S 
ATOM     30  O   UNL     1       2.213  -5.982  30.180  0.00  0.00    -0.153 OA
ATOM     31  O   UNL     1       4.335  -7.303  29.749  0.00  0.00    -0.153 OA
BRANCH  29  32
ATOM     32  N   UNL     1       2.186  -7.989  28.660  0.00  0.00    -0.204 NA
ATOM     33  H   UNL     1       2.375  -8.202  27.684  0.00  0.00    +0.144 HD
ATOM     34  H   UNL     1       2.134  -8.784  29.296  0.00  0.00    +0.144 HD
ENDBRANCH  29  32
ENDBRANCH  26  29
ENDBRANCH  21  23
ENDBRANCH   5  21
TORSDOF 6
ENDMDL
MODEL 6
REMARK VINA RESULT:      -7.0      2.971      4.550
REMARK  Name = 
REMARK  6 active torsions:
REMARK  status: ('A' for Active; 'I' for Inactive)
REMARK    1  A    between atoms: C_2  and  N_3
REMARK    2  A    between atoms: C_6  and  N_10
REMARK    3  A    between atoms: C_18  and  N_19
REMARK    4  A    between atoms: N_19  and  C_20
REMARK    5  A    between atoms: C_23  and  S_26
REMARK    6  A    between atoms: S_26  and  N_27
REMARK                            x       y       z     vdW  Elec       q    Type
REMARK                         _______ _______ _______ _____ _____    ______ ____
ROOT
ATOM      1  N   UNL     1       7.588  -3.347  25.878  0.00  0.00    -0.326 N 
ATOM      2  H   UNL     1       7.658  -3.147  26.870  0.00  0.00    +0.148 HD
ATOM      3  C   UNL     1       8.172  -2.425  25.032  0.00  0.00    +0.126 A 
ATOM      4  C   UNL     1       8.592  -1.124  25.654  0.00  0.00    +0.087 A 
ATOM      5  C   UNL     1       9.035  -0.133  24.857  0.00  0.00    +0.131 A 
ATOM      6  N   UNL     1       9.216  -0.440  23.498  0.00  0.00    -0.182 N 
ATOM      7  C   UNL     1       8.875  -1.694  22.981  0.00  0.00    +0.256 A 
ATOM      8  N   UNL     1       9.160  -1.717  21.697  0.00  0.00    -0.197 NA
ATOM      9  C   UNL     1       9.672  -0.479  21.459  0.00  0.00    +0.247 A 
ATOM     10  N   UNL     1       9.720   0.346  22.506  0.00  0.00    -0.151 NA
ATOM     11  N   UNL     1       8.326  -2.675  23.759  0.00  0.00    -0.196 NA
ENDROOT
BRANCH   1  15
ATOM     12  C   UNL     1       5.201  -5.717  27.379  0.00  0.00    +0.051 C 
ATOM     13  C   UNL     1       4.927  -4.901  26.110  0.00  0.00    +0.020 C 
ATOM     14  C   UNL     1       6.008  -5.069  25.040  0.00  0.00    +0.024 C 
ATOM     15  C   UNL     1       7.417  -4.765  25.565  0.00  0.00    +0.072 C 
ATOM     16  C   UNL     1       7.706  -5.601  26.825  0.00  0.00    +0.024 C 
ATOM     17  C   UNL     1       6.622  -5.462  27.900  0.00  0.00    +0.020 C 
BRANCH  12  18
ATOM     18  N   UNL     1       4.994  -7.148  27.154  0.00  0.00    -0.327 NA
ATOM     19  H   UNL     1       5.081  -7.349  26.156  0.00  0.00    +0.118 HD
ATOM     20  H   UNL     1       5.714  -7.702  27.612  0.00  0.00    +0.118 HD
ENDBRANCH  12  18
ENDBRANCH   1  15
BRANCH   5  21
ATOM     21  N   UNL     1       9.333   1.160  25.301  0.00  0.00    -0.299 N 
ATOM     22  H   UNL     1      10.339   1.302  25.445  0.00  0.00    +0.154 HD
BRANCH  21  23
ATOM     23  C   UNL     1       8.692   2.336  24.829  0.00  0.00    +0.032 A 
ATOM     24  C   UNL     1       7.291   2.417  24.840  0.00  0.00    +0.025 A 
ATOM     25  C   UNL     1       6.630   3.523  24.283  0.00  0.00    +0.030 A 
ATOM     26  C   UNL     1       7.374   4.547  23.691  0.00  0.00    +0.105 A 
ATOM     27  C   UNL     1       8.764   4.510  23.709  0.00  0.00    +0.030 A 
ATOM     28  C   UNL     1       9.408   3.413  24.278  0.00  0.00    +0.025 A 
BRANCH  26  29
ATOM     29  S   UNL     1       6.564   5.935  22.940  0.00  0.00    +0.056 S 
ATOM     30  O   UNL     1       6.834   7.103  23.747  0.00  0.00    -0.153 OA
ATOM     31  O   UNL     1       5.233   5.536  22.558  0.00  0.00    -0.153 OA
BRANCH  29  32
ATOM     32  N   UNL     1       7.440   6.101  21.519  0.00  0.00    -0.204 NA
ATOM     33  H   UNL     1       8.387   5.731  21.546  0.00  0.00    +0.144 HD
ATOM     34  H   UNL     1       6.883   5.860  20.700  0.00  0.00    +0.144 HD
ENDBRANCH  29  32
ENDBRANCH  26  29
ENDBRANCH  21  23
ENDBRANCH   5  21
TORSDOF 6
ENDMDL
MODEL 7
REMARK VINA RESULT:      -6.9      4.693      8.638
REMARK  Name = 
REMARK  6 active torsions:
REMARK  status: ('A' for Active; 'I' for Inactive)
REMARK    1  A    between atoms: C_2  and  N_3
REMARK    2  A    between atoms: C_6  and  N_10
REMARK    3  A    between atoms: C_18  and  N_19
REMARK    4  A    between atoms: N_19  and  C_20
REMARK    5  A    between atoms: C_23  and  S_26
REMARK    6  A    between atoms: S_26  and  N_27
REMARK                            x       y       z     vdW  Elec       q    Type
REMARK                         _______ _______ _______ _____ _____    ______ ____
ROOT
ATOM      1  N   UNL     1       8.581  -0.369  22.811  0.00  0.00    -0.326 N 
ATOM      2  H   UNL     1       7.994  -0.080  22.037  0.00  0.00    +0.148 HD
ATOM      3  C   UNL     1       8.548  -1.713  23.128  0.00  0.00    +0.126 A 
ATOM      4  C   UNL     1       7.462  -2.522  22.479  0.00  0.00    +0.087 A 
ATOM      5  C   UNL     1       7.289  -3.803  22.856  0.00  0.00    +0.131 A 
ATOM      6  N   UNL     1       8.244  -4.345  23.733  0.00  0.00    -0.182 N 
ATOM      7  C   UNL     1       9.281  -3.563  24.255  0.00  0.00    +0.256 A 
ATOM      8  N   UNL     1      10.033  -4.317  25.029  0.00  0.00    -0.197 NA
ATOM      9  C   UNL     1       9.441  -5.540  24.959  0.00  0.00    +0.247 A 
ATOM     10  N   UNL     1       8.346  -5.620  24.202  0.00  0.00    -0.151 NA
ATOM     11  N   UNL     1       9.406  -2.235  23.963  0.00  0.00    -0.196 NA
ENDROOT
BRANCH   1  15
ATOM     12  C   UNL     1       8.546   3.271  23.367  0.00  0.00    +0.051 C 
ATOM     13  C   UNL     1       8.487   2.225  24.488  0.00  0.00    +0.020 C 
ATOM     14  C   UNL     1       9.627   1.206  24.420  0.00  0.00    +0.024 C 
ATOM     15  C   UNL     1       9.723   0.510  23.057  0.00  0.00    +0.072 C 
ATOM     16  C   UNL     1       9.807   1.557  21.931  0.00  0.00    +0.024 C 
ATOM     17  C   UNL     1       8.685   2.600  21.995  0.00  0.00    +0.020 C 
BRANCH  12  18
ATOM     18  N   UNL     1       9.636   4.224  23.579  0.00  0.00    -0.327 NA
ATOM     19  H   UNL     1      10.078   4.437  22.683  0.00  0.00    +0.118 HD
ATOM     20  H   UNL     1       9.287   5.112  23.932  0.00  0.00    +0.118 HD
ENDBRANCH  12  18
ENDBRANCH   1  15
BRANCH   5  21
ATOM     21  N   UNL     1       6.238  -4.618  22.420  0.00  0.00    -0.299 N 
ATOM     22  H   UNL     1       6.556  -5.368  21.798  0.00  0.00    +0.154 HD
BRANCH  21  23
ATOM     23  C   UNL     1       5.152  -5.029  23.238  0.00  0.00    +0.032 A 
ATOM     24  C   UNL     1       4.270  -4.070  23.759  0.00  0.00    +0.025 A 
ATOM     25  C   UNL     1       3.254  -4.437  24.654  0.00  0.00    +0.030 A 
ATOM     26  C   UNL     1       3.128  -5.772  25.048  0.00  0.00    +0.105 A 
ATOM     27  C   UNL     1       3.961  -6.747  24.508  0.00  0.00    +0.030 A 
ATOM     28  C   UNL     1       4.958  -6.370  23.611  0.00  0.00    +0.025 A 
BRANCH  26  29
ATOM     29  S   UNL     1       1.881  -6.259  26.210  0.00  0.00    +0.056 S 
ATOM     30  O   UNL     1       0.593  -6.122  25.571  0.00  0.00    -0.153 OA
ATOM     31  O   UNL     1       2.190  -5.665  27.487  0.00  0.00    -0.153 OA
BRANCH  29  32
ATOM     32  N   UNL     1       2.190  -7.901  26.359  0.00  0.00    -0.204 NA
ATOM     33  H   UNL     1       2.426  -8.216  27.296  0.00  0.00    +0.144 HD
ATOM     34  H   UNL     1       1.507  -8.463  25.851  0.00  0.00    +0.144 HD
ENDBRANCH  29  32
ENDBRANCH  26  29
ENDBRANCH  21  23
ENDBRANCH   5  21
TORSDOF 6
ENDMDL
MODEL 8
REMARK VINA RESULT:      -6.9      2.603      3.530
REMARK  Name = 
REMARK  6 active torsions:
REMARK  status: ('A' for Active; 'I' for Inactive)
REMARK    1  A    between atoms: C_2  and  N_3
REMARK    2  A    between atoms: C_6  and  N_10
REMARK    3  A    between atoms: C_18  and  N_19
REMARK    4  A    between atoms: N_19  and  C_20
REMARK    5  A    between atoms: C_23  and  S_26
REMARK    6  A    between atoms: S_26  and  N_27
REMARK                            x       y       z     vdW  Elec       q    Type
REMARK                         _______ _______ _______ _____ _____    ______ ____
ROOT
ATOM      1  N   UNL     1       4.391  -4.107  24.163  0.00  0.00    -0.326 N 
ATOM      2  H   UNL     1       4.004  -3.319  23.656  0.00  0.00    +0.148 HD
ATOM      3  C   UNL     1       5.763  -4.113  24.317  0.00  0.00    +0.126 A 
ATOM      4  C   UNL     1       6.529  -3.117  23.495  0.00  0.00    +0.087 A 
ATOM      5  C   UNL     1       7.875  -3.170  23.493  0.00  0.00    +0.131 A 
ATOM      6  N   UNL     1       8.479  -4.069  24.389  0.00  0.00    -0.182 N 
ATOM      7  C   UNL     1       7.716  -4.928  25.186  0.00  0.00    +0.256 A 
ATOM      8  N   UNL     1       8.526  -5.644  25.935  0.00  0.00    -0.197 NA
ATOM      9  C   UNL     1       9.764  -5.205  25.581  0.00  0.00    +0.247 A 
ATOM     10  N   UNL     1       9.804  -4.261  24.640  0.00  0.00    -0.151 NA
ATOM     11  N   UNL     1       6.352  -4.958  25.121  0.00  0.00    -0.196 NA
ENDROOT
BRANCH   1  15
ATOM     12  C   UNL     1       1.913  -6.726  23.415  0.00  0.00    +0.051 C 
ATOM     13  C   UNL     1       3.340  -7.001  23.906  0.00  0.00    +0.020 C 
ATOM     14  C   UNL     1       3.688  -6.253  25.195  0.00  0.00    +0.024 C 
ATOM     15  C   UNL     1       3.452  -4.741  25.087  0.00  0.00    +0.072 C 
ATOM     16  C   UNL     1       2.012  -4.461  24.619  0.00  0.00    +0.024 C 
ATOM     17  C   UNL     1       1.638  -5.219  23.340  0.00  0.00    +0.020 C 
BRANCH  12  18
ATOM     18  N   UNL     1       0.917  -7.382  24.264  0.00  0.00    -0.327 NA
ATOM     19  H   UNL     1      -0.013  -7.036  24.023  0.00  0.00    +0.118 HD
ATOM     20  H   UNL     1       0.891  -8.385  24.096  0.00  0.00    +0.118 HD
ENDBRANCH  12  18
ENDBRANCH   1  15
BRANCH   5  21
ATOM     21  N   UNL     1       8.693  -2.383  22.674  0.00  0.00    -0.299 N 
ATOM     22  H   UNL     1       8.559  -2.585  21.678  0.00  0.00    +0.154 HD
BRANCH  21  23
ATOM     23  C   UNL     1       8.974  -1.011  22.906  0.00  0.00    +0.032 A 
ATOM     24  C   UNL     1       9.121  -0.543  24.221  0.00  0.00    +0.025 A 
ATOM     25  C   UNL     1       9.294   0.825  24.483  0.00  0.00    +0.030 A 
ATOM     26  C   UNL     1       9.300   1.737  23.424  0.00  0.00    +0.105 A 
ATOM     27  C   UNL     1       9.202   1.291  22.110  0.00  0.00    +0.030 A 
ATOM     28  C   UNL     1       9.044  -0.071  21.863  0.00  0.00    +0.025 A 
BRANCH  26  29
ATOM     29  S   UNL     1       9.473   3.475  23.728  0.00  0.00    +0.056 S 
ATOM     30  O   UNL     1      10.840   3.847  23.446  0.00  0.00    -0.153 OA
ATOM     31  O   UNL     1       8.815   3.789  24.971  0.00  0.00    -0.153 OA
BRANCH  29  32
ATOM     32  N   UNL     1       8.521   4.121  22.506  0.00  0.00    -0.204 NA
ATOM     33  H   UNL     1       8.332   3.497  21.727  0.00  0.00    +0.144 HD
ATOM     34  H   UNL     1       7.723   4.636  22.879  0.00  0.00    +0.144 HD
ENDBRANCH  29  32
ENDBRANCH  26  29
ENDBRANCH  21  23
ENDBRANCH   5  21
TORSDOF 6
ENDMDL
MODEL 9
REMARK VINA RESULT:      -6.7      3.722      6.256
REMARK  Name = 
REMARK  6 active torsions:
REMARK  status: ('A' for Active; 'I' for Inactive)
REMARK    1  A    between atoms: C_2  and  N_3
REMARK    2  A    between atoms: C_6  and  N_10
REMARK    3  A    between atoms: C_18  and  N_19
REMARK    4  A    between atoms: N_19  and  C_20
REMARK    5  A    between atoms: C_23  and  S_26
REMARK    6  A    between atoms: S_26  and  N_27
REMARK                            x       y       z     vdW  Elec       q    Type
REMARK                         _______ _______ _______ _____ _____    ______ ____
ROOT
ATOM      1  N   UNL     1       7.439  -3.253  22.505  0.00  0.00    -0.326 N 
ATOM      2  H   UNL     1       6.624  -3.180  21.906  0.00  0.00    +0.148 HD
ATOM      3  C   UNL     1       8.028  -2.061  22.875  0.00  0.00    +0.126 A 
ATOM      4  C   UNL     1       7.568  -0.836  22.139  0.00  0.00    +0.087 A 
ATOM      5  C   UNL     1       8.204   0.332  22.352  0.00  0.00    +0.131 A 
ATOM      6  N   UNL     1       9.170   0.354  23.373  0.00  0.00    -0.182 N 
ATOM      7  C   UNL     1       9.512  -0.804  24.079  0.00  0.00    +0.256 A 
ATOM      8  N   UNL     1      10.422  -0.499  24.980  0.00  0.00    -0.197 NA
ATOM      9  C   UNL     1      10.612   0.837  24.806  0.00  0.00    +0.247 A 
ATOM     10  N   UNL     1       9.893   1.410  23.840  0.00  0.00    -0.151 NA
ATOM     11  N   UNL     1       8.949  -2.017  23.800  0.00  0.00    -0.196 NA
ENDROOT
BRANCH   1  15
ATOM     12  C   UNL     1       4.827  -5.827  22.846  0.00  0.00    +0.051 C 
ATOM     13  C   UNL     1       5.953  -5.872  21.807  0.00  0.00    +0.020 C 
ATOM     14  C   UNL     1       7.348  -5.733  22.422  0.00  0.00    +0.024 C 
ATOM     15  C   UNL     1       7.490  -4.481  23.297  0.00  0.00    +0.072 C 
ATOM     16  C   UNL     1       6.375  -4.446  24.359  0.00  0.00    +0.024 C 
ATOM     17  C   UNL     1       4.972  -4.605  23.762  0.00  0.00    +0.020 C 
BRANCH  12  18
ATOM     18  N   UNL     1       4.782  -7.055  23.642  0.00  0.00    -0.327 NA
ATOM     19  H   UNL     1       5.203  -6.881  24.556  0.00  0.00    +0.118 HD
ATOM     20  H   UNL     1       3.823  -7.338  23.829  0.00  0.00    +0.118 HD
ENDBRANCH  12  18
ENDBRANCH   1  15
BRANCH   5  21
ATOM     21  N   UNL     1       7.953   1.508  21.637  0.00  0.00    -0.299 N 
ATOM     22  H   UNL     1       7.783   1.332  20.641  0.00  0.00    +0.154 HD
BRANCH  21  23
ATOM     23  C   UNL     1       7.175   2.591  22.126  0.00  0.00    +0.032 A 
ATOM     24  C   UNL     1       5.843   2.374  22.511  0.00  0.00    +0.025 A 
ATOM     25  C   UNL     1       5.021   3.444  22.896  0.00  0.00    +0.030 A 
ATOM     26  C   UNL     1       5.528   4.746  22.879  0.00  0.00    +0.105 A 
ATOM     27  C   UNL     1       6.858   4.980  22.547  0.00  0.00    +0.030 A 
ATOM     28  C   UNL     1       7.666   3.907  22.178  0.00  0.00    +0.025 A 
BRANCH  26  29
ATOM     29  S   UNL     1       4.500   6.123  23.320  0.00  0.00    +0.056 S 
ATOM     30  O   UNL     1       5.324   7.100  23.994  0.00  0.00    -0.153 OA
ATOM     31  O   UNL     1       3.271   5.615  23.877  0.00  0.00    -0.153 OA
BRANCH  29  32
ATOM     32  N   UNL     1       4.120   6.749  21.811  0.00  0.00    -0.204 NA
ATOM     33  H   UNL     1       4.037   6.063  21.065  0.00  0.00    +0.144 HD
ATOM     34  H   UNL     1       3.382   7.450  21.866  0.00  0.00    +0.144 HD
ENDBRANCH  29  32
ENDBRANCH  26  29
ENDBRANCH  21  23
ENDBRANCH   5  21
TORSDOF 6
ENDMDL
