MODEL 1
REMARK VINA RESULT:      -9.0      0.000      0.000
REMARK  Name = 
REMARK  7 active torsions:
REMARK  status: ('A' for Active; 'I' for Inactive)
REMARK    1  A    between atoms: O_1  and  N_2
REMARK    2  A    between atoms: C_8  and  C_11
REMARK    3  A    between atoms: C_11  and  N_12
REMARK    4  A    between atoms: C_13  and  C_15
REMARK    5  A    between atoms: N_22  and  S_27
REMARK    6  A    between atoms: S_27  and  C_30
REMARK    7  A    between atoms: C_30  and  C_31
REMARK                            x       y       z     vdW  Elec       q    Type
REMARK                         _______ _______ _______ _____ _____    ______ ____
ROOT
ATOM      1  C   UNL     1       8.920  -1.427  22.794  0.00  0.00    +0.162 C 
ATOM      2  N   UNL     1       9.138   0.002  22.965  0.00  0.00    -0.284 N 
ATOM      3  C   UNL     1       9.341   0.353  24.357  0.00  0.00    +0.093 C 
ATOM      4  C   UNL     1      10.317   1.519  24.517  0.00  0.00    +0.132 C 
ATOM      5  N   UNL     1       9.896   2.673  23.659  0.00  0.00    -0.170 NA
ATOM      6  C   UNL     1       9.884   2.246  22.216  0.00  0.00    +0.205 C 
ATOM      7  C   UNL     1       9.745  -0.948  25.045  0.00  0.00    +0.026 C 
ATOM      8  C   UNL     1       9.248   0.888  21.912  0.00  0.00    +0.232 C 
ATOM      9  O   UNL     1       8.970   0.555  20.760  0.00  0.00    -0.274 OA
ATOM     10  C   UNL     1       9.703  -2.031  23.961  0.00  0.00    +0.034 C 
ENDROOT
BRANCH   1  13
ATOM     11  N   UNL     1       7.128  -2.906  21.926  0.00  0.00    -0.314 N 
ATOM     12  H   UNL     1       7.866  -3.300  21.351  0.00  0.00    +0.149 HD
ATOM     13  C   UNL     1       7.455  -1.911  22.818  0.00  0.00    +0.234 C 
ATOM     14  O   UNL     1       6.637  -1.435  23.607  0.00  0.00    -0.274 OA
BRANCH  11  15
ATOM     15  C   UNL     1       5.817  -3.524  21.922  0.00  0.00    +0.108 C 
BRANCH  15  21
ATOM     16  N   UNL     1       7.400  -5.882  27.017  0.00  0.00    +0.109 NA
ATOM     17  C   UNL     1       6.252  -5.824  26.404  0.00  0.00    +0.408 C 
ATOM     18  N   UNL     1       6.100  -5.410  25.099  0.00  0.00    -0.222 N 
ATOM     19  C   UNL     1       4.829  -4.936  24.544  0.00  0.00    +0.188 C 
ATOM     20  C   UNL     1       4.684  -5.455  23.113  0.00  0.00    +0.040 C 
ATOM     21  C   UNL     1       5.866  -5.033  22.222  0.00  0.00    +0.012 C 
ATOM     22  C   UNL     1       7.179  -5.459  22.899  0.00  0.00    +0.040 C 
ATOM     23  C   UNL     1       7.280  -4.963  24.343  0.00  0.00    +0.188 C 
ATOM     24  N   UNL     1       5.101  -6.231  27.008  0.00  0.00    -0.249 N 
ATOM     25  H   UNL     1       4.592  -6.889  26.436  0.00  0.00    +0.241 HD
ATOM     26  H   UNL     1       5.358  -6.658  27.894  0.00  0.00    +0.241 HD
BRANCH  16  27
ATOM     27  O   UNL     1       7.262  -6.405  28.314  0.00  0.00    -0.340 OA
ATOM     28  H   UNL     1       7.301  -7.363  28.143  0.00  0.00    +0.350 HD
ENDBRANCH  16  27
ENDBRANCH  15  21
ENDBRANCH  11  15
ENDBRANCH   1  13
BRANCH   5  29
ATOM     29  S   UNL     1       8.475   3.540  24.073  0.00  0.00    +0.036 S 
ATOM     30  O   UNL     1       8.424   3.594  25.519  0.00  0.00    -0.158 OA
ATOM     31  O   UNL     1       7.400   2.928  23.321  0.00  0.00    -0.158 OA
BRANCH  29  32
ATOM     32  C   UNL     1       8.793   5.184  23.393  0.00  0.00    +0.220 C 
BRANCH  32  33
ATOM     33  C   UNL     1       9.983   5.774  24.102  0.00  0.00    -0.025 A 
ATOM     34  C   UNL     1      11.276   5.603  23.587  0.00  0.00    +0.005 A 
ATOM     35  C   UNL     1      12.371   6.182  24.228  0.00  0.00    +0.000 A 
ATOM     36  C   UNL     1      12.188   6.933  25.386  0.00  0.00    +0.000 A 
ATOM     37  C   UNL     1      10.906   7.106  25.909  0.00  0.00    +0.000 A 
ATOM     38  C   UNL     1       9.810   6.528  25.270  0.00  0.00    +0.005 A 
ENDBRANCH  32  33
ENDBRANCH  29  32
ENDBRANCH   5  29
TORSDOF 7
ENDMDL
MODEL 2
REMARK VINA RESULT:      -8.5      2.198      2.555
REMARK  Name = 
REMARK  7 active torsions:
REMARK  status: ('A' for Active; 'I' for Inactive)
REMARK    1  A    between atoms: O_1  and  N_2
REMARK    2  A    between atoms: C_8  and  C_11
REMARK    3  A    between atoms: C_11  and  N_12
REMARK    4  A    between atoms: C_13  and  C_15
REMARK    5  A    between atoms: N_22  and  S_27
REMARK    6  A    between atoms: S_27  and  C_30
REMARK    7  A    between atoms: C_30  and  C_31
REMARK                            x       y       z     vdW  Elec       q    Type
REMARK                         _______ _______ _______ _____ _____    ______ ____
ROOT
ATOM      1  C   UNL     1       8.860  -1.646  22.871  0.00  0.00    +0.162 C 
ATOM      2  N   UNL     1       9.199  -0.236  22.996  0.00  0.00    -0.284 N 
ATOM      3  C   UNL     1       9.453   0.136  24.375  0.00  0.00    +0.093 C 
ATOM      4  C   UNL     1      10.525   1.220  24.485  0.00  0.00    +0.132 C 
ATOM      5  N   UNL     1      10.188   2.381  23.600  0.00  0.00    -0.170 NA
ATOM      6  C   UNL     1      10.117   1.915  22.170  0.00  0.00    +0.205 C 
ATOM      7  C   UNL     1       9.759  -1.174  25.096  0.00  0.00    +0.026 C 
ATOM      8  C   UNL     1       9.365   0.606  21.916  0.00  0.00    +0.232 C 
ATOM      9  O   UNL     1       9.041   0.266  20.778  0.00  0.00    -0.274 OA
ATOM     10  C   UNL     1       9.609  -2.280  24.045  0.00  0.00    +0.034 C 
ENDROOT
BRANCH   1  13
ATOM     11  N   UNL     1       6.983  -3.152  22.271  0.00  0.00    -0.314 N 
ATOM     12  H   UNL     1       7.705  -3.720  21.838  0.00  0.00    +0.149 HD
ATOM     13  C   UNL     1       7.361  -2.006  22.930  0.00  0.00    +0.234 C 
ATOM     14  O   UNL     1       6.559  -1.303  23.548  0.00  0.00    -0.274 OA
BRANCH  11  15
ATOM     15  C   UNL     1       5.626  -3.658  22.340  0.00  0.00    +0.108 C 
BRANCH  15  21
ATOM     16  N   UNL     1       5.800  -6.808  27.247  0.00  0.00    +0.109 NA
ATOM     17  C   UNL     1       4.849  -6.595  26.383  0.00  0.00    +0.408 C 
ATOM     18  N   UNL     1       5.045  -5.991  25.161  0.00  0.00    -0.222 N 
ATOM     19  C   UNL     1       3.970  -5.368  24.385  0.00  0.00    +0.188 C 
ATOM     20  C   UNL     1       4.185  -5.668  22.900  0.00  0.00    +0.040 C 
ATOM     21  C   UNL     1       5.564  -5.195  22.409  0.00  0.00    +0.012 C 
ATOM     22  C   UNL     1       6.651  -5.791  23.320  0.00  0.00    +0.040 C 
ATOM     23  C   UNL     1       6.389  -5.513  24.801  0.00  0.00    +0.188 C 
ATOM     24  N   UNL     1       3.573  -7.014  26.610  0.00  0.00    -0.249 N 
ATOM     25  H   UNL     1       3.213  -7.552  25.835  0.00  0.00    +0.241 HD
ATOM     26  H   UNL     1       3.585  -7.577  27.457  0.00  0.00    +0.241 HD
BRANCH  16  27
ATOM     27  O   UNL     1       5.323  -7.501  28.373  0.00  0.00    -0.340 OA
ATOM     28  H   UNL     1       4.371  -7.298  28.338  0.00  0.00    +0.350 HD
ENDBRANCH  16  27
ENDBRANCH  15  21
ENDBRANCH  11  15
ENDBRANCH   1  13
BRANCH   5  29
ATOM     29  S   UNL     1       8.852   3.375  24.007  0.00  0.00    +0.036 S 
ATOM     30  O   UNL     1       9.389   4.670  24.372  0.00  0.00    -0.158 OA
ATOM     31  O   UNL     1       8.060   2.615  24.951  0.00  0.00    -0.158 OA
BRANCH  29  32
ATOM     32  C   UNL     1       7.943   3.488  22.450  0.00  0.00    +0.220 C 
BRANCH  32  33
ATOM     33  C   UNL     1       7.075   4.719  22.489  0.00  0.00    -0.025 A 
ATOM     34  C   UNL     1       7.498   5.908  21.878  0.00  0.00    +0.005 A 
ATOM     35  C   UNL     1       6.675   7.034  21.886  0.00  0.00    +0.000 A 
ATOM     36  C   UNL     1       5.429   6.986  22.505  0.00  0.00    +0.000 A 
ATOM     37  C   UNL     1       5.001   5.810  23.120  0.00  0.00    +0.000 A 
ATOM     38  C   UNL     1       5.822   4.682  23.112  0.00  0.00    +0.005 A 
ENDBRANCH  32  33
ENDBRANCH  29  32
ENDBRANCH   5  29
TORSDOF 7
ENDMDL
MODEL 3
REMARK VINA RESULT:      -8.2      3.179      8.589
REMARK  Name = 
REMARK  7 active torsions:
REMARK  status: ('A' for Active; 'I' for Inactive)
REMARK    1  A    between atoms: O_1  and  N_2
REMARK    2  A    between atoms: C_8  and  C_11
REMARK    3  A    between atoms: C_11  and  N_12
REMARK    4  A    between atoms: C_13  and  C_15
REMARK    5  A    between atoms: N_22  and  S_27
REMARK    6  A    between atoms: S_27  and  C_30
REMARK    7  A    between atoms: C_30  and  C_31
REMARK                            x       y       z     vdW  Elec       q    Type
REMARK                         _______ _______ _______ _____ _____    ______ ____
ROOT
ATOM      1  C   UNL     1       7.618  -5.245  23.390  0.00  0.00    +0.162 C 
ATOM      2  N   UNL     1       6.419  -5.384  24.204  0.00  0.00    -0.284 N 
ATOM      3  C   UNL     1       5.219  -5.421  23.392  0.00  0.00    +0.093 C 
ATOM      4  C   UNL     1       4.146  -6.325  24.000  0.00  0.00    +0.132 C 
ATOM      5  N   UNL     1       3.896  -5.950  25.429  0.00  0.00    -0.170 NA
ATOM      6  C   UNL     1       5.167  -6.112  26.218  0.00  0.00    +0.205 C 
ATOM      7  C   UNL     1       5.692  -5.803  21.992  0.00  0.00    +0.026 C 
ATOM      8  C   UNL     1       6.444  -5.569  25.571  0.00  0.00    +0.232 C 
ATOM      9  O   UNL     1       7.480  -5.430  26.221  0.00  0.00    -0.274 OA
ATOM     10  C   UNL     1       7.217  -5.923  22.078  0.00  0.00    +0.034 C 
ENDROOT
BRANCH   1  13
ATOM     11  N   UNL     1       9.038  -3.310  24.013  0.00  0.00    -0.314 N 
ATOM     12  H   UNL     1       9.382  -3.922  24.747  0.00  0.00    +0.149 HD
ATOM     13  C   UNL     1       8.114  -3.809  23.126  0.00  0.00    +0.234 C 
ATOM     14  O   UNL     1       7.705  -3.159  22.162  0.00  0.00    -0.274 OA
BRANCH  11  15
ATOM     15  C   UNL     1       9.664  -2.017  23.816  0.00  0.00    +0.108 C 
BRANCH  15  21
ATOM     16  N   UNL     1      11.008   3.651  23.515  0.00  0.00    +0.109 NA
ATOM     17  C   UNL     1       9.927   2.995  23.200  0.00  0.00    +0.408 C 
ATOM     18  N   UNL     1       9.706   1.678  23.537  0.00  0.00    -0.222 N 
ATOM     19  C   UNL     1       8.736   0.821  22.850  0.00  0.00    +0.188 C 
ATOM     20  C   UNL     1       8.039  -0.071  23.879  0.00  0.00    +0.040 C 
ATOM     21  C   UNL     1       9.042  -0.912  24.689  0.00  0.00    +0.012 C 
ATOM     22  C   UNL     1      10.099   0.023  25.301  0.00  0.00    +0.040 C 
ATOM     23  C   UNL     1      10.749   0.933  24.257  0.00  0.00    +0.188 C 
ATOM     24  N   UNL     1       8.893   3.596  22.549  0.00  0.00    -0.249 N 
ATOM     25  H   UNL     1       8.015   3.447  23.025  0.00  0.00    +0.241 HD
ATOM     26  H   UNL     1       9.103   4.590  22.498  0.00  0.00    +0.241 HD
BRANCH  16  27
ATOM     27  O   UNL     1      10.930   4.993  23.103  0.00  0.00    -0.340 OA
ATOM     28  H   UNL     1      11.869   5.207  22.959  0.00  0.00    +0.350 HD
ENDBRANCH  16  27
ENDBRANCH  15  21
ENDBRANCH  11  15
ENDBRANCH   1  13
BRANCH   5  29
ATOM     29  S   UNL     1       3.123  -4.459  25.773  0.00  0.00    +0.036 S 
ATOM     30  O   UNL     1       1.716  -4.749  25.959  0.00  0.00    -0.158 OA
ATOM     31  O   UNL     1       3.554  -3.538  24.743  0.00  0.00    -0.158 OA
BRANCH  29  32
ATOM     32  C   UNL     1       3.876  -3.966  27.339  0.00  0.00    +0.220 C 
BRANCH  32  33
ATOM     33  C   UNL     1       4.322  -2.532  27.227  0.00  0.00    -0.025 A 
ATOM     34  C   UNL     1       3.395  -1.486  27.347  0.00  0.00    +0.005 A 
ATOM     35  C   UNL     1       3.819  -0.159  27.279  0.00  0.00    +0.000 A 
ATOM     36  C   UNL     1       5.166   0.137  27.086  0.00  0.00    +0.000 A 
ATOM     37  C   UNL     1       6.095  -0.896  26.961  0.00  0.00    +0.000 A 
ATOM     38  C   UNL     1       5.674  -2.224  27.030  0.00  0.00    +0.005 A 
ENDBRANCH  32  33
ENDBRANCH  29  32
ENDBRANCH   5  29
TORSDOF 7
ENDMDL
MODEL 4
REMARK VINA RESULT:      -8.2      2.854      9.017
REMARK  Name = 
REMARK  7 active torsions:
REMARK  status: ('A' for Active; 'I' for Inactive)
REMARK    1  A    between atoms: O_1  and  N_2
REMARK    2  A    between atoms: C_8  and  C_11
REMARK    3  A    between atoms: C_11  and  N_12
REMARK    4  A    between atoms: C_13  and  C_15
REMARK    5  A    between atoms: N_22  and  S_27
REMARK    6  A    between atoms: S_27  and  C_30
REMARK    7  A    between atoms: C_30  and  C_31
REMARK                            x       y       z     vdW  Elec       q    Type
REMARK                         _______ _______ _______ _____ _____    ______ ____
ROOT
ATOM      1  C   UNL     1      10.084   2.020  23.286  0.00  0.00    +0.162 C 
ATOM      2  N   UNL     1       9.563   0.689  23.564  0.00  0.00    -0.284 N 
ATOM      3  C   UNL     1       8.512   0.318  22.637  0.00  0.00    +0.093 C 
ATOM      4  C   UNL     1       8.520  -1.181  22.335  0.00  0.00    +0.132 C 
ATOM      5  N   UNL     1       8.507  -1.970  23.609  0.00  0.00    -0.170 NA
ATOM      6  C   UNL     1       9.730  -1.633  24.419  0.00  0.00    +0.205 C 
ATOM      7  C   UNL     1       8.695   1.237  21.432  0.00  0.00    +0.026 C 
ATOM      8  C   UNL     1      10.090  -0.149  24.525  0.00  0.00    +0.232 C 
ATOM      9  O   UNL     1      10.913   0.252  25.348  0.00  0.00    -0.274 OA
ATOM     10  C   UNL     1       9.871   2.158  21.777  0.00  0.00    +0.034 C 
ENDROOT
BRANCH   1  13
ATOM     11  N   UNL     1       9.541   4.434  23.453  0.00  0.00    -0.314 N 
ATOM     12  H   UNL     1      10.002   4.501  22.550  0.00  0.00    +0.149 HD
ATOM     13  C   UNL     1       9.420   3.194  24.035  0.00  0.00    +0.234 C 
ATOM     14  O   UNL     1       8.807   3.015  25.089  0.00  0.00    -0.274 OA
BRANCH  11  15
ATOM     15  C   UNL     1       8.873   5.600  23.997  0.00  0.00    +0.108 C 
BRANCH  15  21
ATOM     16  N   UNL     1       3.770   3.128  22.629  0.00  0.00    +0.109 NA
ATOM     17  C   UNL     1       4.063   4.197  23.313  0.00  0.00    +0.408 C 
ATOM     18  N   UNL     1       5.321   4.755  23.359  0.00  0.00    -0.222 N 
ATOM     19  C   UNL     1       5.764   5.662  24.422  0.00  0.00    +0.188 C 
ATOM     20  C   UNL     1       6.629   6.765  23.808  0.00  0.00    +0.040 C 
ATOM     21  C   UNL     1       7.830   6.196  23.034  0.00  0.00    +0.012 C 
ATOM     22  C   UNL     1       7.321   5.171  22.006  0.00  0.00    +0.040 C 
ATOM     23  C   UNL     1       6.425   4.105  22.638  0.00  0.00    +0.188 C 
ATOM     24  N   UNL     1       3.111   4.885  24.002  0.00  0.00    -0.249 N 
ATOM     25  H   UNL     1       3.122   5.868  23.772  0.00  0.00    +0.241 HD
ATOM     26  H   UNL     1       2.210   4.476  23.766  0.00  0.00    +0.241 HD
BRANCH  16  27
ATOM     27  O   UNL     1       2.399   2.828  22.711  0.00  0.00    -0.340 OA
ATOM     28  H   UNL     1       2.064   3.584  23.225  0.00  0.00    +0.350 HD
ENDBRANCH  16  27
ENDBRANCH  15  21
ENDBRANCH  11  15
ENDBRANCH   1  13
BRANCH   5  29
ATOM     29  S   UNL     1       7.090  -1.964  24.575  0.00  0.00    +0.036 S 
ATOM     30  O   UNL     1       5.984  -1.653  23.692  0.00  0.00    -0.158 OA
ATOM     31  O   UNL     1       7.383  -1.118  25.711  0.00  0.00    -0.158 OA
BRANCH  29  32
ATOM     32  C   UNL     1       6.980  -3.676  25.141  0.00  0.00    +0.220 C 
BRANCH  32  33
ATOM     33  C   UNL     1       6.614  -4.547  23.969  0.00  0.00    -0.025 A 
ATOM     34  C   UNL     1       7.609  -5.063  23.126  0.00  0.00    +0.005 A 
ATOM     35  C   UNL     1       7.267  -5.898  22.063  0.00  0.00    +0.000 A 
ATOM     36  C   UNL     1       5.933  -6.224  21.828  0.00  0.00    +0.000 A 
ATOM     37  C   UNL     1       4.935  -5.712  22.658  0.00  0.00    +0.000 A 
ATOM     38  C   UNL     1       5.275  -4.877  23.722  0.00  0.00    +0.005 A 
ENDBRANCH  32  33
ENDBRANCH  29  32
ENDBRANCH   5  29
TORSDOF 7
ENDMDL
MODEL 5
REMARK VINA RESULT:      -8.1      3.011      5.288
REMARK  Name = 
REMARK  7 active torsions:
REMARK  status: ('A' for Active; 'I' for Inactive)
REMARK    1  A    between atoms: O_1  and  N_2
REMARK    2  A    between atoms: C_8  and  C_11
REMARK    3  A    between atoms: C_11  and  N_12
REMARK    4  A    between atoms: C_13  and  C_15
REMARK    5  A    between atoms: N_22  and  S_27
REMARK    6  A    between atoms: S_27  and  C_30
REMARK    7  A    between atoms: C_30  and  C_31
REMARK                            x       y       z     vdW  Elec       q    Type
REMARK                         _______ _______ _______ _____ _____    ______ ____
ROOT
ATOM      1  C   UNL     1       5.577   2.527  26.016  0.00  0.00    +0.162 C 
ATOM      2  N   UNL     1       6.787   2.949  25.324  0.00  0.00    -0.284 N 
ATOM      3  C   UNL     1       6.830   2.448  23.964  0.00  0.00    +0.093 C 
ATOM      4  C   UNL     1       7.523   3.428  23.017  0.00  0.00    +0.132 C 
ATOM      5  N   UNL     1       8.864   3.819  23.559  0.00  0.00    -0.170 NA
ATOM      6  C   UNL     1       8.688   4.484  24.898  0.00  0.00    +0.205 C 
ATOM      7  C   UNL     1       5.385   2.100  23.616  0.00  0.00    +0.026 C 
ATOM      8  C   UNL     1       7.715   3.811  25.870  0.00  0.00    +0.232 C 
ATOM      9  O   UNL     1       7.680   4.126  27.060  0.00  0.00    -0.274 OA
ATOM     10  C   UNL     1       4.564   2.393  24.877  0.00  0.00    +0.034 C 
ENDROOT
BRANCH   1  13
ATOM     11  N   UNL     1       4.641   0.313  26.627  0.00  0.00    -0.314 N 
ATOM     12  H   UNL     1       3.930   0.531  25.935  0.00  0.00    +0.149 HD
ATOM     13  C   UNL     1       5.662   1.213  26.821  0.00  0.00    +0.234 C 
ATOM     14  O   UNL     1       6.605   0.990  27.582  0.00  0.00    -0.274 OA
BRANCH  11  15
ATOM     15  C   UNL     1       4.658  -1.002  27.238  0.00  0.00    +0.108 C 
BRANCH  15  21
ATOM     16  N   UNL     1       9.202  -4.401  25.887  0.00  0.00    +0.109 NA
ATOM     17  C   UNL     1       8.082  -4.650  26.505  0.00  0.00    +0.408 C 
ATOM     18  N   UNL     1       7.022  -3.772  26.551  0.00  0.00    -0.222 N 
ATOM     19  C   UNL     1       5.962  -3.837  27.562  0.00  0.00    +0.188 C 
ATOM     20  C   UNL     1       4.621  -3.514  26.901  0.00  0.00    +0.040 C 
ATOM     21  C   UNL     1       4.634  -2.143  26.204  0.00  0.00    +0.012 C 
ATOM     22  C   UNL     1       5.826  -2.086  25.234  0.00  0.00    +0.040 C 
ATOM     23  C   UNL     1       7.148  -2.455  25.910  0.00  0.00    +0.188 C 
ATOM     24  N   UNL     1       7.855  -5.846  27.116  0.00  0.00    -0.249 N 
ATOM     25  H   UNL     1       6.982  -6.257  26.819  0.00  0.00    +0.241 HD
ATOM     26  H   UNL     1       8.632  -6.459  26.881  0.00  0.00    +0.241 HD
BRANCH  16  27
ATOM     27  O   UNL     1      10.074  -5.501  25.948  0.00  0.00    -0.340 OA
ATOM     28  H   UNL     1      10.943  -5.063  25.911  0.00  0.00    +0.350 HD
ENDBRANCH  16  27
ENDBRANCH  15  21
ENDBRANCH  11  15
ENDBRANCH   1  13
BRANCH   5  29
ATOM     29  S   UNL     1      10.118   2.651  23.594  0.00  0.00    +0.036 S 
ATOM     30  O   UNL     1       9.842   1.773  24.714  0.00  0.00    -0.158 OA
ATOM     31  O   UNL     1      11.359   3.393  23.532  0.00  0.00    -0.158 OA
BRANCH  29  32
ATOM     32  C   UNL     1       9.894   1.769  22.034  0.00  0.00    +0.220 C 
BRANCH  32  33
ATOM     33  C   UNL     1       9.574   0.329  22.337  0.00  0.00    -0.025 A 
ATOM     34  C   UNL     1       8.287  -0.178  22.108  0.00  0.00    +0.005 A 
ATOM     35  C   UNL     1       8.005  -1.521  22.357  0.00  0.00    +0.000 A 
ATOM     36  C   UNL     1       9.001  -2.368  22.839  0.00  0.00    +0.000 A 
ATOM     37  C   UNL     1      10.283  -1.872  23.075  0.00  0.00    +0.000 A 
ATOM     38  C   UNL     1      10.567  -0.529  22.826  0.00  0.00    +0.005 A 
ENDBRANCH  32  33
ENDBRANCH  29  32
ENDBRANCH   5  29
TORSDOF 7
ENDMDL
MODEL 6
REMARK VINA RESULT:      -8.1      2.289      3.085
REMARK  Name = 
REMARK  7 active torsions:
REMARK  status: ('A' for Active; 'I' for Inactive)
REMARK    1  A    between atoms: O_1  and  N_2
REMARK    2  A    between atoms: C_8  and  C_11
REMARK    3  A    between atoms: C_11  and  N_12
REMARK    4  A    between atoms: C_13  and  C_15
REMARK    5  A    between atoms: N_22  and  S_27
REMARK    6  A    between atoms: S_27  and  C_30
REMARK    7  A    between atoms: C_30  and  C_31
REMARK                            x       y       z     vdW  Elec       q    Type
REMARK                         _______ _______ _______ _____ _____    ______ ____
ROOT
ATOM      1  C   UNL     1       9.274  -3.181  24.540  0.00  0.00    +0.162 C 
ATOM      2  N   UNL     1       9.317  -1.773  24.171  0.00  0.00    -0.284 N 
ATOM      3  C   UNL     1       8.528  -0.956  25.073  0.00  0.00    +0.093 C 
ATOM      4  C   UNL     1       9.140   0.431  25.269  0.00  0.00    +0.132 C 
ATOM      5  N   UNL     1       9.403   1.078  23.943  0.00  0.00    -0.170 NA
ATOM      6  C   UNL     1      10.367   0.232  23.156  0.00  0.00    +0.205 C 
ATOM      7  C   UNL     1       8.368  -1.794  26.339  0.00  0.00    +0.026 C 
ATOM      8  C   UNL     1      10.104  -1.276  23.153  0.00  0.00    +0.232 C 
ATOM      9  O   UNL     1      10.675  -2.023  22.358  0.00  0.00    -0.274 OA
ATOM     10  C   UNL     1       9.069  -3.127  26.056  0.00  0.00    +0.034 C 
ENDROOT
BRANCH   1  13
ATOM     11  N   UNL     1       7.042  -3.373  23.476  0.00  0.00    -0.314 N 
ATOM     12  H   UNL     1       7.012  -2.363  23.584  0.00  0.00    +0.149 HD
ATOM     13  C   UNL     1       8.177  -4.038  23.877  0.00  0.00    +0.234 C 
ATOM     14  O   UNL     1       8.327  -5.250  23.709  0.00  0.00    -0.274 OA
BRANCH  11  15
ATOM     15  C   UNL     1       5.985  -4.041  22.743  0.00  0.00    +0.108 C 
BRANCH  15  21
ATOM     16  N   UNL     1       2.758  -8.512  24.646  0.00  0.00    +0.109 NA
ATOM     17  C   UNL     1       3.398  -7.570  25.278  0.00  0.00    +0.408 C 
ATOM     18  N   UNL     1       3.938  -6.464  24.660  0.00  0.00    -0.222 N 
ATOM     19  C   UNL     1       4.997  -5.643  25.254  0.00  0.00    +0.188 C 
ATOM     20  C   UNL     1       4.724  -4.171  24.939  0.00  0.00    +0.040 C 
ATOM     21  C   UNL     1       4.611  -3.914  23.426  0.00  0.00    +0.012 C 
ATOM     22  C   UNL     1       3.566  -4.874  22.833  0.00  0.00    +0.040 C 
ATOM     23  C   UNL     1       3.838  -6.334  23.199  0.00  0.00    +0.188 C 
ATOM     24  N   UNL     1       3.532  -7.585  26.633  0.00  0.00    -0.249 N 
ATOM     25  H   UNL     1       3.239  -6.712  27.047  0.00  0.00    +0.241 HD
ATOM     26  H   UNL     1       2.964  -8.352  26.986  0.00  0.00    +0.241 HD
BRANCH  16  27
ATOM     27  O   UNL     1       2.259  -9.478  25.536  0.00  0.00    -0.340 OA
ATOM     28  H   UNL     1       1.791 -10.080  24.930  0.00  0.00    +0.350 HD
ENDBRANCH  16  27
ENDBRANCH  15  21
ENDBRANCH  11  15
ENDBRANCH   1  13
BRANCH   5  29
ATOM     29  S   UNL     1       8.072   1.577  22.984  0.00  0.00    +0.036 S 
ATOM     30  O   UNL     1       7.214   0.420  22.826  0.00  0.00    -0.158 OA
ATOM     31  O   UNL     1       8.637   2.236  21.827  0.00  0.00    -0.158 OA
BRANCH  29  32
ATOM     32  C   UNL     1       7.269   2.818  24.022  0.00  0.00    +0.220 C 
BRANCH  32  33
ATOM     33  C   UNL     1       7.947   4.144  23.796  0.00  0.00    -0.025 A 
ATOM     34  C   UNL     1       7.425   5.064  22.876  0.00  0.00    +0.005 A 
ATOM     35  C   UNL     1       8.036   6.305  22.697  0.00  0.00    +0.000 A 
ATOM     36  C   UNL     1       9.174   6.637  23.429  0.00  0.00    +0.000 A 
ATOM     37  C   UNL     1       9.704   5.727  24.344  0.00  0.00    +0.000 A 
ATOM     38  C   UNL     1       9.093   4.486  24.525  0.00  0.00    +0.005 A 
ENDBRANCH  32  33
ENDBRANCH  29  32
ENDBRANCH   5  29
TORSDOF 7
ENDMDL
MODEL 7
REMARK VINA RESULT:      -8.0      3.251     10.584
REMARK  Name = 
REMARK  7 active torsions:
REMARK  status: ('A' for Active; 'I' for Inactive)
REMARK    1  A    between atoms: O_1  and  N_2
REMARK    2  A    between atoms: C_8  and  C_11
REMARK    3  A    between atoms: C_11  and  N_12
REMARK    4  A    between atoms: C_13  and  C_15
REMARK    5  A    between atoms: N_22  and  S_27
REMARK    6  A    between atoms: S_27  and  C_30
REMARK    7  A    between atoms: C_30  and  C_31
REMARK                            x       y       z     vdW  Elec       q    Type
REMARK                         _______ _______ _______ _____ _____    ______ ____
ROOT
ATOM      1  C   UNL     1       8.006  -4.887  25.335  0.00  0.00    +0.162 C 
ATOM      2  N   UNL     1       6.628  -5.339  25.456  0.00  0.00    -0.284 N 
ATOM      3  C   UNL     1       5.907  -5.210  24.205  0.00  0.00    +0.093 C 
ATOM      4  C   UNL     1       4.872  -6.320  24.025  0.00  0.00    +0.132 C 
ATOM      5  N   UNL     1       3.982  -6.405  25.227  0.00  0.00    -0.170 NA
ATOM      6  C   UNL     1       4.813  -6.712  26.444  0.00  0.00    +0.205 C 
ATOM      7  C   UNL     1       6.984  -5.126  23.126  0.00  0.00    +0.026 C 
ATOM      8  C   UNL     1       6.114  -5.920  26.597  0.00  0.00    +0.232 C 
ATOM      9  O   UNL     1       6.737  -5.915  27.659  0.00  0.00    -0.274 OA
ATOM     10  C   UNL     1       8.326  -5.168  23.865  0.00  0.00    +0.034 C 
ENDROOT
BRANCH   1  13
ATOM     11  N   UNL     1       9.050  -2.709  24.773  0.00  0.00    -0.314 N 
ATOM     12  H   UNL     1       9.340  -3.178  23.920  0.00  0.00    +0.149 HD
ATOM     13  C   UNL     1       8.283  -3.408  25.675  0.00  0.00    +0.234 C 
ATOM     14  O   UNL     1       7.824  -2.890  26.694  0.00  0.00    -0.274 OA
BRANCH  11  15
ATOM     15  C   UNL     1       9.292  -1.287  24.919  0.00  0.00    +0.108 C 
BRANCH  15  21
ATOM     16  N   UNL     1       7.420   3.439  22.058  0.00  0.00    +0.109 NA
ATOM     17  C   UNL     1       8.467   3.232  22.805  0.00  0.00    +0.408 C 
ATOM     18  N   UNL     1       8.868   1.985  23.232  0.00  0.00    -0.222 N 
ATOM     19  C   UNL     1       9.750   1.771  24.383  0.00  0.00    +0.188 C 
ATOM     20  C   UNL     1      10.717   0.629  24.065  0.00  0.00    +0.040 C 
ATOM     21  C   UNL     1       9.978  -0.667  23.688  0.00  0.00    +0.012 C 
ATOM     22  C   UNL     1       8.990  -0.365  22.549  0.00  0.00    +0.040 C 
ATOM     23  C   UNL     1       8.063   0.807  22.875  0.00  0.00    +0.188 C 
ATOM     24  N   UNL     1       9.290   4.251  23.176  0.00  0.00    -0.249 N 
ATOM     25  H   UNL     1      10.256   4.047  22.965  0.00  0.00    +0.241 HD
ATOM     26  H   UNL     1       8.987   5.083  22.677  0.00  0.00    +0.241 HD
BRANCH  16  27
ATOM     27  O   UNL     1       7.293   4.797  21.720  0.00  0.00    -0.340 OA
ATOM     28  H   UNL     1       7.810   4.842  20.896  0.00  0.00    +0.350 HD
ENDBRANCH  16  27
ENDBRANCH  15  21
ENDBRANCH  11  15
ENDBRANCH   1  13
BRANCH   5  29
ATOM     29  S   UNL     1       2.868  -5.137  25.527  0.00  0.00    +0.036 S 
ATOM     30  O   UNL     1       2.942  -4.238  24.393  0.00  0.00    -0.158 OA
ATOM     31  O   UNL     1       3.155  -4.660  26.863  0.00  0.00    -0.158 OA
BRANCH  29  32
ATOM     32  C   UNL     1       1.277  -5.993  25.548  0.00  0.00    +0.220 C 
BRANCH  32  33
ATOM     33  C   UNL     1       1.058  -6.631  24.201  0.00  0.00    -0.025 A 
ATOM     34  C   UNL     1       0.611  -5.866  23.115  0.00  0.00    +0.005 A 
ATOM     35  C   UNL     1       0.444  -6.454  21.861  0.00  0.00    +0.000 A 
ATOM     36  C   UNL     1       0.716  -7.808  21.681  0.00  0.00    +0.000 A 
ATOM     37  C   UNL     1       1.156  -8.580  22.757  0.00  0.00    +0.000 A 
ATOM     38  C   UNL     1       1.325  -7.993  24.011  0.00  0.00    +0.005 A 
ENDBRANCH  32  33
ENDBRANCH  29  32
ENDBRANCH   5  29
TORSDOF 7
ENDMDL
MODEL 8
REMARK VINA RESULT:      -8.0      3.815      6.750
REMARK  Name = 
REMARK  7 active torsions:
REMARK  status: ('A' for Active; 'I' for Inactive)
REMARK    1  A    between atoms: O_1  and  N_2
REMARK    2  A    between atoms: C_8  and  C_11
REMARK    3  A    between atoms: C_11  and  N_12
REMARK    4  A    between atoms: C_13  and  C_15
REMARK    5  A    between atoms: N_22  and  S_27
REMARK    6  A    between atoms: S_27  and  C_30
REMARK    7  A    between atoms: C_30  and  C_31
REMARK                            x       y       z     vdW  Elec       q    Type
REMARK                         _______ _______ _______ _____ _____    ______ ____
ROOT
ATOM      1  C   UNL     1       5.983   1.151  25.967  0.00  0.00    +0.162 C 
ATOM      2  N   UNL     1       7.129   0.381  25.506  0.00  0.00    -0.284 N 
ATOM      3  C   UNL     1       7.144   0.250  24.062  0.00  0.00    +0.093 C 
ATOM      4  C   UNL     1       8.568   0.226  23.505  0.00  0.00    +0.132 C 
ATOM      5  N   UNL     1       9.388  -0.809  24.214  0.00  0.00    -0.170 NA
ATOM      6  C   UNL     1       9.448  -0.482  25.682  0.00  0.00    +0.205 C 
ATOM      7  C   UNL     1       6.250   1.374  23.546  0.00  0.00    +0.026 C 
ATOM      8  C   UNL     1       8.130  -0.069  26.342  0.00  0.00    +0.232 C 
ATOM      9  O   UNL     1       8.018  -0.017  27.567  0.00  0.00    -0.274 OA
ATOM     10  C   UNL     1       5.711   2.090  24.790  0.00  0.00    +0.034 C 
ENDROOT
BRANCH   1  13
ATOM     11  N   UNL     1       4.906  -0.923  26.798  0.00  0.00    -0.314 N 
ATOM     12  H   UNL     1       5.859  -1.246  26.936  0.00  0.00    +0.149 HD
ATOM     13  C   UNL     1       4.712   0.354  26.326  0.00  0.00    +0.234 C 
ATOM     14  O   UNL     1       3.590   0.851  26.204  0.00  0.00    -0.274 OA
BRANCH  11  15
ATOM     15  C   UNL     1       3.803  -1.736  27.273  0.00  0.00    +0.108 C 
BRANCH  15  21
ATOM     16  N   UNL     1       6.734  -6.549  28.780  0.00  0.00    +0.109 NA
ATOM     17  C   UNL     1       5.468  -6.247  28.837  0.00  0.00    +0.408 C 
ATOM     18  N   UNL     1       4.918  -5.136  28.237  0.00  0.00    -0.222 N 
ATOM     19  C   UNL     1       3.630  -4.558  28.632  0.00  0.00    +0.188 C 
ATOM     20  C   UNL     1       2.884  -4.097  27.379  0.00  0.00    +0.040 C 
ATOM     21  C   UNL     1       3.707  -3.093  26.552  0.00  0.00    +0.012 C 
ATOM     22  C   UNL     1       5.087  -3.704  26.256  0.00  0.00    +0.040 C 
ATOM     23  C   UNL     1       5.793  -4.196  27.520  0.00  0.00    +0.188 C 
ATOM     24  N   UNL     1       4.570  -7.058  29.461  0.00  0.00    -0.249 N 
ATOM     25  H   UNL     1       3.783  -7.273  28.864  0.00  0.00    +0.241 HD
ATOM     26  H   UNL     1       5.060  -7.911  29.720  0.00  0.00    +0.241 HD
BRANCH  16  27
ATOM     27  O   UNL     1       6.998  -7.771  29.422  0.00  0.00    -0.340 OA
ATOM     28  H   UNL     1       6.656  -8.410  28.773  0.00  0.00    +0.350 HD
ENDBRANCH  16  27
ENDBRANCH  15  21
ENDBRANCH  11  15
ENDBRANCH   1  13
BRANCH   5  29
ATOM     29  S   UNL     1       9.040  -2.467  23.950  0.00  0.00    +0.036 S 
ATOM     30  O   UNL     1       8.218  -2.904  25.061  0.00  0.00    -0.158 OA
ATOM     31  O   UNL     1      10.311  -3.105  23.681  0.00  0.00    -0.158 OA
BRANCH  29  32
ATOM     32  C   UNL     1       8.073  -2.440  22.425  0.00  0.00    +0.220 C 
BRANCH  32  33
ATOM     33  C   UNL     1       7.040  -3.534  22.492  0.00  0.00    -0.025 A 
ATOM     34  C   UNL     1       7.424  -4.881  22.440  0.00  0.00    +0.005 A 
ATOM     35  C   UNL     1       6.467  -5.891  22.539  0.00  0.00    +0.000 A 
ATOM     36  C   UNL     1       5.120  -5.567  22.686  0.00  0.00    +0.000 A 
ATOM     37  C   UNL     1       4.727  -4.229  22.734  0.00  0.00    +0.000 A 
ATOM     38  C   UNL     1       5.683  -3.219  22.636  0.00  0.00    +0.005 A 
ENDBRANCH  32  33
ENDBRANCH  29  32
ENDBRANCH   5  29
TORSDOF 7
ENDMDL
MODEL 9
REMARK VINA RESULT:      -7.9      2.850      9.652
REMARK  Name = 
REMARK  7 active torsions:
REMARK  status: ('A' for Active; 'I' for Inactive)
REMARK    1  A    between atoms: O_1  and  N_2
REMARK    2  A    between atoms: C_8  and  C_11
REMARK    3  A    between atoms: C_11  and  N_12
REMARK    4  A    between atoms: C_13  and  C_15
REMARK    5  A    between atoms: N_22  and  S_27
REMARK    6  A    between atoms: S_27  and  C_30
REMARK    7  A    between atoms: C_30  and  C_31
REMARK                            x       y       z     vdW  Elec       q    Type
REMARK                         _______ _______ _______ _____ _____    ______ ____
ROOT
ATOM      1  C   UNL     1       9.314  -2.387  23.378  0.00  0.00    +0.162 C 
ATOM      2  N   UNL     1       8.541  -3.382  24.106  0.00  0.00    -0.284 N 
ATOM      3  C   UNL     1       7.115  -3.177  23.948  0.00  0.00    +0.093 C 
ATOM      4  C   UNL     1       6.345  -4.498  23.943  0.00  0.00    +0.132 C 
ATOM      5  N   UNL     1       6.707  -5.318  25.144  0.00  0.00    -0.170 NA
ATOM      6  C   UNL     1       8.182  -5.618  25.119  0.00  0.00    +0.205 C 
ATOM      7  C   UNL     1       6.968  -2.320  22.693  0.00  0.00    +0.026 C 
ATOM      8  C   UNL     1       9.108  -4.450  24.771  0.00  0.00    +0.232 C 
ATOM      9  O   UNL     1      10.323  -4.521  24.957  0.00  0.00    -0.274 OA
ATOM     10  C   UNL     1       8.393  -2.032  22.209  0.00  0.00    +0.034 C 
ENDROOT
BRANCH   1  13
ATOM     11  N   UNL     1      10.449  -0.183  23.462  0.00  0.00    -0.314 N 
ATOM     12  H   UNL     1      10.636  -0.351  22.477  0.00  0.00    +0.149 HD
ATOM     13  C   UNL     1       9.714  -1.116  24.155  0.00  0.00    +0.234 C 
ATOM     14  O   UNL     1       9.377  -0.952  25.329  0.00  0.00    -0.274 OA
BRANCH  11  15
ATOM     15  C   UNL     1      10.794   1.100  24.042  0.00  0.00    +0.108 C 
BRANCH  15  21
ATOM     16  N   UNL     1       5.697   3.286  22.233  0.00  0.00    +0.109 NA
ATOM     17  C   UNL     1       6.635   3.778  22.992  0.00  0.00    +0.408 C 
ATOM     18  N   UNL     1       7.877   3.203  23.145  0.00  0.00    -0.222 N 
ATOM     19  C   UNL     1       8.762   3.479  24.280  0.00  0.00    +0.188 C 
ATOM     20  C   UNL     1      10.206   3.553  23.782  0.00  0.00    +0.040 C 
ATOM     21  C   UNL     1      10.633   2.268  23.051  0.00  0.00    +0.012 C 
ATOM     22  C   UNL     1       9.614   1.963  21.940  0.00  0.00    +0.040 C 
ATOM     23  C   UNL     1       8.175   1.938  22.456  0.00  0.00    +0.188 C 
ATOM     24  N   UNL     1       6.469   4.953  23.658  0.00  0.00    -0.249 N 
ATOM     25  H   UNL     1       7.230   5.593  23.484  0.00  0.00    +0.241 HD
ATOM     26  H   UNL     1       5.589   5.358  23.346  0.00  0.00    +0.241 HD
BRANCH  16  27
ATOM     27  O   UNL     1       4.564   4.118  22.215  0.00  0.00    -0.340 OA
ATOM     28  H   UNL     1       4.148   3.862  21.373  0.00  0.00    +0.350 HD
ENDBRANCH  16  27
ENDBRANCH  15  21
ENDBRANCH  11  15
ENDBRANCH   1  13
BRANCH   5  29
ATOM     29  S   UNL     1       6.195  -4.791  26.693  0.00  0.00    +0.036 S 
ATOM     30  O   UNL     1       5.528  -3.519  26.504  0.00  0.00    -0.158 OA
ATOM     31  O   UNL     1       7.355  -4.892  27.553  0.00  0.00    -0.158 OA
BRANCH  29  32
ATOM     32  C   UNL     1       5.005  -6.060  27.179  0.00  0.00    +0.220 C 
BRANCH  32  33
ATOM     33  C   UNL     1       3.942  -6.153  26.115  0.00  0.00    -0.025 A 
ATOM     34  C   UNL     1       2.949  -5.169  26.012  0.00  0.00    +0.005 A 
ATOM     35  C   UNL     1       1.989  -5.241  25.003  0.00  0.00    +0.000 A 
ATOM     36  C   UNL     1       2.008  -6.295  24.092  0.00  0.00    +0.000 A 
ATOM     37  C   UNL     1       2.989  -7.282  24.189  0.00  0.00    +0.000 A 
ATOM     38  C   UNL     1       3.951  -7.211  25.198  0.00  0.00    +0.005 A 
ENDBRANCH  32  33
ENDBRANCH  29  32
ENDBRANCH   5  29
TORSDOF 7
ENDMDL
