MODEL 1
REMARK VINA RESULT:      -6.0      0.000      0.000
REMARK  Name = 
REMARK  25 active torsions:
REMARK  status: ('A' for Active; 'I' for Inactive)
REMARK    1  A    between atoms: C_1  and  C_2
REMARK    2  A    between atoms: C_2  and  C_3
REMARK    3  A    between atoms: C_2  and  C_4
REMARK    4  A    between atoms: C_4  and  C_5
REMARK    5  A    between atoms: C_5  and  N_7
REMARK    6  A    between atoms: C_5  and  C_30
REMARK    7  A    between atoms: C_8  and  C_10
REMARK    8  A    between atoms: C_10  and  C_12
REMARK    9  A    between atoms: C_10  and  N_20
REMARK   10  A    between atoms: C_12  and  C_13
REMARK   11  A    between atoms: C_13  and  C_14
REMARK   12  A    between atoms: C_21  and  C_23
REMARK   13  A    between atoms: C_23  and  N_24
REMARK   14  A    between atoms: N_32  and  C_33
REMARK   15  A    between atoms: C_33  and  C_35
REMARK   16  A    between atoms: C_33  and  C_42
REMARK   17  A    between atoms: C_35  and  C_36
REMARK   18  A    between atoms: N_44  and  C_45
REMARK   19  A    between atoms: C_45  and  C_47
REMARK   20  A    between atoms: C_45  and  C_51
REMARK   21  A    between atoms: C_47  and  C_48
REMARK   22  A    between atoms: C_48  and  C_49
REMARK   23  A    between atoms: C_48  and  C_50
REMARK   24  A    between atoms: C_51  and  C_53
REMARK   25  A    between atoms: C_53  and  C_54
REMARK                            x       y       z     vdW  Elec       q    Type
REMARK                         _______ _______ _______ _____ _____    ______ ____
ROOT
ATOM      1  C   UNL     1       6.289   2.063  25.424  0.00  0.00    +0.159 C 
ENDROOT
BRANCH   1   2
ATOM      2  C   UNL     1       6.504   1.273  24.104  0.00  0.00    +0.234 C 
ATOM      3  N   UNL     1       7.094   0.036  24.178  0.00  0.00    -0.302 N 
ATOM      4  H   UNL     1       7.618  -0.257  24.997  0.00  0.00    +0.150 HD
ATOM      5  O   UNL     1       5.978   1.655  23.056  0.00  0.00    -0.274 OA
BRANCH   3   6
ATOM      6  C   UNL     1       7.117  -0.919  23.055  0.00  0.00    +0.163 C 
BRANCH   6   7
ATOM      7  C   UNL     1       6.675  -2.305  23.600  0.00  0.00    +0.234 C 
ATOM      8  N   UNL     1       7.586  -3.319  23.395  0.00  0.00    -0.304 N 
ATOM      9  H   UNL     1       8.406  -3.145  22.819  0.00  0.00    +0.149 HD
ATOM     10  O   UNL     1       5.588  -2.469  24.140  0.00  0.00    -0.274 OA
BRANCH   8  11
ATOM     11  C   UNL     1       7.372  -4.714  23.783  0.00  0.00    +0.143 C 
BRANCH  11  12
ATOM     12  C   UNL     1       8.336  -5.004  24.947  0.00  0.00    +0.187 C 
ATOM     13  O   UNL     1       9.386  -5.627  24.788  0.00  0.00    -0.292 OA
BRANCH  12  14
ATOM     14  C   UNL     1       7.970  -4.518  26.310  0.00  0.00    +0.149 C 
ATOM     15  O   UNL     1       8.013  -5.523  27.338  0.00  0.00    -0.361 OA
ATOM     16  C   UNL     1       6.708  -5.090  26.938  0.00  0.00    +0.203 C 
ATOM     17  C   UNL     1       8.408  -3.161  26.769  0.00  0.00    +0.052 C 
ENDBRANCH  12  14
ENDBRANCH  11  12
BRANCH  11  18
ATOM     18  C   UNL     1       7.564  -5.706  22.625  0.00  0.00    +0.033 C 
BRANCH  18  19
ATOM     19  C   UNL     1       6.284  -6.251  21.949  0.00  0.00    -0.015 C 
ATOM     20  C   UNL     1       6.101  -5.824  20.491  0.00  0.00    +0.007 C 
ATOM     21  C   UNL     1       5.052  -5.796  22.741  0.00  0.00    +0.007 C 
ENDBRANCH  18  19
ENDBRANCH  11  18
ENDBRANCH   8  11
ENDBRANCH   6   7
BRANCH   6  22
ATOM     22  C   UNL     1       8.465  -1.033  22.307  0.00  0.00    +0.067 C 
BRANCH  22  23
ATOM     23  C   UNL     1       9.436   0.041  22.732  0.00  0.00    -0.045 A 
ATOM     24  C   UNL     1       9.498   1.247  22.023  0.00  0.00    +0.004 A 
ATOM     25  C   UNL     1      10.236   2.315  22.524  0.00  0.00    +0.000 A 
ATOM     26  C   UNL     1      10.933   2.179  23.724  0.00  0.00    +0.000 A 
ATOM     27  C   UNL     1      10.920   0.966  24.408  0.00  0.00    +0.000 A 
ATOM     28  C   UNL     1      10.183  -0.105  23.910  0.00  0.00    +0.004 A 
ENDBRANCH  22  23
ENDBRANCH   6  22
ENDBRANCH   3   6
ENDBRANCH   1   2
BRANCH   1  29
ATOM     29  N   UNL     1       5.641   1.083  26.289  0.00  0.00    -0.302 N 
ATOM     30  H   UNL     1       6.241   0.362  26.667  0.00  0.00    +0.150 HD
ATOM     31  C   UNL     1       4.277   0.891  26.359  0.00  0.00    +0.234 C 
ATOM     32  O   UNL     1       3.446   1.618  25.826  0.00  0.00    -0.274 OA
BRANCH  31  33
ATOM     33  C   UNL     1       3.906  -0.335  27.211  0.00  0.00    +0.159 C 
BRANCH  33  34
ATOM     34  N   UNL     1       3.726  -1.498  26.347  0.00  0.00    -0.303 N 
ATOM     35  H   UNL     1       4.469  -1.772  25.706  0.00  0.00    +0.149 HD
ATOM     36  C   UNL     1       2.668  -2.356  26.530  0.00  0.00    +0.228 C 
ATOM     37  O   UNL     1       1.764  -2.123  27.330  0.00  0.00    -0.274 OA
BRANCH  36  38
ATOM     38  C   UNL     1       2.629  -3.599  25.640  0.00  0.00    +0.180 C 
BRANCH  38  39
ATOM     39  N   UNL     1       1.334  -4.323  25.657  0.00  0.00    -0.290 NA
ATOM     40  C   UNL     1       1.556  -5.726  26.105  0.00  0.00    +0.113 C 
ATOM     41  C   UNL     1       2.282  -6.611  25.071  0.00  0.00    +0.175 C 
ATOM     42  O   UNL     1       1.584  -6.629  23.822  0.00  0.00    -0.377 OA
ATOM     43  C   UNL     1       1.410  -5.302  23.308  0.00  0.00    +0.175 C 
ATOM     44  C   UNL     1       0.690  -4.396  24.321  0.00  0.00    +0.113 C 
ENDBRANCH  38  39
ENDBRANCH  36  38
ENDBRANCH  33  34
BRANCH  33  45
ATOM     45  C   UNL     1       4.936  -0.617  28.316  0.00  0.00    +0.036 C 
BRANCH  45  46
ATOM     46  C   UNL     1       4.694   0.098  29.651  0.00  0.00    +0.037 C 
BRANCH  46  47
ATOM     47  C   UNL     1       5.486   1.385  29.694  0.00  0.00    -0.047 A 
ATOM     48  C   UNL     1       4.845   2.623  29.545  0.00  0.00    +0.003 A 
ATOM     49  C   UNL     1       5.557   3.813  29.710  0.00  0.00    +0.000 A 
ATOM     50  C   UNL     1       6.916   3.777  30.022  0.00  0.00    +0.000 A 
ATOM     51  C   UNL     1       7.567   2.552  30.150  0.00  0.00    +0.000 A 
ATOM     52  C   UNL     1       6.857   1.361  29.984  0.00  0.00    +0.003 A 
ENDBRANCH  46  47
ENDBRANCH  45  46
ENDBRANCH  33  45
ENDBRANCH  31  33
ENDBRANCH   1  29
BRANCH   1  53
ATOM     53  C   UNL     1       7.548   2.632  26.102  0.00  0.00    +0.034 C 
BRANCH  53  55
ATOM     54  C   UNL     1       8.486   4.872  25.356  0.00  0.00    +0.007 C 
ATOM     55  C   UNL     1       7.517   4.166  26.310  0.00  0.00    -0.015 C 
ATOM     56  C   UNL     1       6.117   4.758  26.137  0.00  0.00    +0.007 C 
ENDBRANCH  53  55
ENDBRANCH   1  53
TORSDOF 20
ENDMDL
MODEL 2
REMARK VINA RESULT:      -6.0      2.646      6.343
REMARK  Name = 
REMARK  25 active torsions:
REMARK  status: ('A' for Active; 'I' for Inactive)
REMARK    1  A    between atoms: C_1  and  C_2
REMARK    2  A    between atoms: C_2  and  C_3
REMARK    3  A    between atoms: C_2  and  C_4
REMARK    4  A    between atoms: C_4  and  C_5
REMARK    5  A    between atoms: C_5  and  N_7
REMARK    6  A    between atoms: C_5  and  C_30
REMARK    7  A    between atoms: C_8  and  C_10
REMARK    8  A    between atoms: C_10  and  C_12
REMARK    9  A    between atoms: C_10  and  N_20
REMARK   10  A    between atoms: C_12  and  C_13
REMARK   11  A    between atoms: C_13  and  C_14
REMARK   12  A    between atoms: C_21  and  C_23
REMARK   13  A    between atoms: C_23  and  N_24
REMARK   14  A    between atoms: N_32  and  C_33
REMARK   15  A    between atoms: C_33  and  C_35
REMARK   16  A    between atoms: C_33  and  C_42
REMARK   17  A    between atoms: C_35  and  C_36
REMARK   18  A    between atoms: N_44  and  C_45
REMARK   19  A    between atoms: C_45  and  C_47
REMARK   20  A    between atoms: C_45  and  C_51
REMARK   21  A    between atoms: C_47  and  C_48
REMARK   22  A    between atoms: C_48  and  C_49
REMARK   23  A    between atoms: C_48  and  C_50
REMARK   24  A    between atoms: C_51  and  C_53
REMARK   25  A    between atoms: C_53  and  C_54
REMARK                            x       y       z     vdW  Elec       q    Type
REMARK                         _______ _______ _______ _____ _____    ______ ____
ROOT
ATOM      1  C   UNL     1       7.825   2.193  24.233  0.00  0.00    +0.159 C 
ENDROOT
BRANCH   1   2
ATOM      2  C   UNL     1       7.206   1.396  25.413  0.00  0.00    +0.234 C 
ATOM      3  N   UNL     1       6.727   0.134  25.163  0.00  0.00    -0.302 N 
ATOM      4  H   UNL     1       6.526  -0.182  24.219  0.00  0.00    +0.150 HD
ATOM      5  O   UNL     1       7.327   1.802  26.572  0.00  0.00    -0.274 OA
BRANCH   3   6
ATOM      6  C   UNL     1       6.361  -0.819  26.226  0.00  0.00    +0.163 C 
BRANCH   6   7
ATOM      7  C   UNL     1       7.572  -1.765  26.454  0.00  0.00    +0.234 C 
ATOM      8  N   UNL     1       7.315  -3.096  26.208  0.00  0.00    -0.304 N 
ATOM      9  H   UNL     1       6.361  -3.394  26.017  0.00  0.00    +0.149 HD
ATOM     10  O   UNL     1       8.654  -1.345  26.848  0.00  0.00    -0.274 OA
BRANCH   8  11
ATOM     11  C   UNL     1       8.287  -4.175  26.393  0.00  0.00    +0.143 C 
BRANCH  11  12
ATOM     12  C   UNL     1       8.936  -4.429  25.022  0.00  0.00    +0.187 C 
ATOM     13  O   UNL     1      10.088  -4.847  24.909  0.00  0.00    -0.292 OA
BRANCH  12  14
ATOM     14  C   UNL     1       8.135  -4.146  23.794  0.00  0.00    +0.149 C 
ATOM     15  O   UNL     1       6.752  -4.533  23.876  0.00  0.00    -0.361 OA
ATOM     16  C   UNL     1       7.581  -5.340  23.032  0.00  0.00    +0.203 C 
ATOM     17  C   UNL     1       8.368  -2.886  23.016  0.00  0.00    +0.052 C 
ENDBRANCH  12  14
ENDBRANCH  11  12
BRANCH  11  18
ATOM     18  C   UNL     1       7.672  -5.457  26.977  0.00  0.00    +0.033 C 
BRANCH  18  19
ATOM     19  C   UNL     1       6.192  -5.387  27.419  0.00  0.00    -0.015 C 
ATOM     20  C   UNL     1       5.940  -5.787  28.874  0.00  0.00    +0.007 C 
ATOM     21  C   UNL     1       5.343  -6.292  26.518  0.00  0.00    +0.007 C 
ENDBRANCH  18  19
ENDBRANCH  11  18
ENDBRANCH   8  11
ENDBRANCH   6   7
BRANCH   6  22
ATOM     22  C   UNL     1       5.074  -1.635  25.974  0.00  0.00    +0.067 C 
BRANCH  22  23
ATOM     23  C   UNL     1       4.122  -1.559  27.143  0.00  0.00    -0.045 A 
ATOM     24  C   UNL     1       4.587  -1.138  28.394  0.00  0.00    +0.004 A 
ATOM     25  C   UNL     1       3.686  -0.870  29.420  0.00  0.00    +0.000 A 
ATOM     26  C   UNL     1       2.318  -1.041  29.210  0.00  0.00    +0.000 A 
ATOM     27  C   UNL     1       1.852  -1.512  27.984  0.00  0.00    +0.000 A 
ATOM     28  C   UNL     1       2.751  -1.782  26.956  0.00  0.00    +0.004 A 
ENDBRANCH  22  23
ENDBRANCH   6  22
ENDBRANCH   3   6
ENDBRANCH   1   2
BRANCH   1  29
ATOM     29  N   UNL     1       6.828   3.227  23.978  0.00  0.00    -0.302 N 
ATOM     30  H   UNL     1       6.329   3.569  24.788  0.00  0.00    +0.150 HD
ATOM     31  C   UNL     1       6.314   3.519  22.731  0.00  0.00    +0.234 C 
ATOM     32  O   UNL     1       6.742   3.059  21.679  0.00  0.00    -0.274 OA
BRANCH  31  33
ATOM     33  C   UNL     1       5.147   4.519  22.805  0.00  0.00    +0.159 C 
BRANCH  33  34
ATOM     34  N   UNL     1       4.360   4.269  24.009  0.00  0.00    -0.303 N 
ATOM     35  H   UNL     1       4.579   4.768  24.870  0.00  0.00    +0.149 HD
ATOM     36  C   UNL     1       3.198   3.537  23.955  0.00  0.00    +0.228 C 
ATOM     37  O   UNL     1       2.836   2.955  22.934  0.00  0.00    -0.274 OA
BRANCH  36  38
ATOM     38  C   UNL     1       2.396   3.422  25.252  0.00  0.00    +0.180 C 
BRANCH  38  39
ATOM     39  N   UNL     1       2.473   2.091  25.903  0.00  0.00    -0.290 NA
ATOM     40  C   UNL     1       1.377   1.964  26.903  0.00  0.00    +0.113 C 
ATOM     41  C   UNL     1       1.570   2.832  28.164  0.00  0.00    +0.175 C 
ATOM     42  O   UNL     1       2.817   2.545  28.805  0.00  0.00    -0.377 OA
ATOM     43  C   UNL     1       3.915   2.726  27.902  0.00  0.00    +0.175 C 
ATOM     44  C   UNL     1       3.747   1.874  26.633  0.00  0.00    +0.113 C 
ENDBRANCH  38  39
ENDBRANCH  36  38
ENDBRANCH  33  34
BRANCH  33  45
ATOM     45  C   UNL     1       5.618   5.980  22.742  0.00  0.00    +0.036 C 
BRANCH  45  46
ATOM     46  C   UNL     1       5.925   6.640  24.092  0.00  0.00    +0.037 C 
BRANCH  46  47
ATOM     47  C   UNL     1       7.417   6.633  24.337  0.00  0.00    -0.047 A 
ATOM     48  C   UNL     1       7.926   6.630  25.644  0.00  0.00    +0.003 A 
ATOM     49  C   UNL     1       9.297   6.496  25.869  0.00  0.00    +0.000 A 
ATOM     50  C   UNL     1      10.173   6.367  24.792  0.00  0.00    +0.000 A 
ATOM     51  C   UNL     1       9.680   6.392  23.488  0.00  0.00    +0.000 A 
ATOM     52  C   UNL     1       8.309   6.527  23.262  0.00  0.00    +0.003 A 
ENDBRANCH  46  47
ENDBRANCH  45  46
ENDBRANCH  33  45
ENDBRANCH  31  33
ENDBRANCH   1  29
BRANCH   1  53
ATOM     53  C   UNL     1       9.208   2.825  24.475  0.00  0.00    +0.034 C 
BRANCH  53  55
ATOM     54  C   UNL     1      10.791   0.840  24.384  0.00  0.00    +0.007 C 
ATOM     55  C   UNL     1      10.360   2.142  23.699  0.00  0.00    -0.015 C 
ATOM     56  C   UNL     1      10.002   1.852  22.241  0.00  0.00    +0.007 C 
ENDBRANCH  53  55
ENDBRANCH   1  53
TORSDOF 20
ENDMDL
MODEL 3
REMARK VINA RESULT:      -5.9      1.389      1.658
REMARK  Name = 
REMARK  25 active torsions:
REMARK  status: ('A' for Active; 'I' for Inactive)
REMARK    1  A    between atoms: C_1  and  C_2
REMARK    2  A    between atoms: C_2  and  C_3
REMARK    3  A    between atoms: C_2  and  C_4
REMARK    4  A    between atoms: C_4  and  C_5
REMARK    5  A    between atoms: C_5  and  N_7
REMARK    6  A    between atoms: C_5  and  C_30
REMARK    7  A    between atoms: C_8  and  C_10
REMARK    8  A    between atoms: C_10  and  C_12
REMARK    9  A    between atoms: C_10  and  N_20
REMARK   10  A    between atoms: C_12  and  C_13
REMARK   11  A    between atoms: C_13  and  C_14
REMARK   12  A    between atoms: C_21  and  C_23
REMARK   13  A    between atoms: C_23  and  N_24
REMARK   14  A    between atoms: N_32  and  C_33
REMARK   15  A    between atoms: C_33  and  C_35
REMARK   16  A    between atoms: C_33  and  C_42
REMARK   17  A    between atoms: C_35  and  C_36
REMARK   18  A    between atoms: N_44  and  C_45
REMARK   19  A    between atoms: C_45  and  C_47
REMARK   20  A    between atoms: C_45  and  C_51
REMARK   21  A    between atoms: C_47  and  C_48
REMARK   22  A    between atoms: C_48  and  C_49
REMARK   23  A    between atoms: C_48  and  C_50
REMARK   24  A    between atoms: C_51  and  C_53
REMARK   25  A    between atoms: C_53  and  C_54
REMARK                            x       y       z     vdW  Elec       q    Type
REMARK                         _______ _______ _______ _____ _____    ______ ____
ROOT
ATOM      1  C   UNL     1       6.096   2.398  24.125  0.00  0.00    +0.159 C 
ENDROOT
BRANCH   1   2
ATOM      2  C   UNL     1       6.627   1.427  23.036  0.00  0.00    +0.234 C 
ATOM      3  N   UNL     1       7.081   0.194  23.433  0.00  0.00    -0.302 N 
ATOM      4  H   UNL     1       7.324   0.002  24.400  0.00  0.00    +0.150 HD
ATOM      5  O   UNL     1       6.455   1.676  21.840  0.00  0.00    -0.274 OA
BRANCH   3   6
ATOM      6  C   UNL     1       7.361  -0.907  22.494  0.00  0.00    +0.163 C 
BRANCH   6   7
ATOM      7  C   UNL     1       6.825  -2.220  23.128  0.00  0.00    +0.234 C 
ATOM      8  N   UNL     1       7.738  -3.252  23.169  0.00  0.00    -0.304 N 
ATOM      9  H   UNL     1       8.633  -3.147  22.697  0.00  0.00    +0.149 HD
ATOM     10  O   UNL     1       5.671  -2.320  23.527  0.00  0.00    -0.274 OA
BRANCH   8  11
ATOM     11  C   UNL     1       7.449  -4.592  23.682  0.00  0.00    +0.143 C 
BRANCH  11  12
ATOM     12  C   UNL     1       8.390  -4.824  24.876  0.00  0.00    +0.187 C 
ATOM     13  O   UNL     1       9.491  -5.361  24.749  0.00  0.00    -0.292 OA
BRANCH  12  14
ATOM     14  C   UNL     1       7.939  -4.388  26.231  0.00  0.00    +0.149 C 
ATOM     15  O   UNL     1       7.159  -3.180  26.244  0.00  0.00    -0.361 OA
ATOM     16  C   UNL     1       8.491  -3.073  26.759  0.00  0.00    +0.203 C 
ATOM     17  C   UNL     1       7.504  -5.404  27.243  0.00  0.00    +0.052 C 
ENDBRANCH  12  14
ENDBRANCH  11  12
BRANCH  11  18
ATOM     18  C   UNL     1       7.594  -5.696  22.621  0.00  0.00    +0.033 C 
BRANCH  18  19
ATOM     19  C   UNL     1       6.298  -6.181  21.933  0.00  0.00    -0.015 C 
ATOM     20  C   UNL     1       6.122  -5.701  20.490  0.00  0.00    +0.007 C 
ATOM     21  C   UNL     1       5.081  -5.718  22.744  0.00  0.00    +0.007 C 
ENDBRANCH  18  19
ENDBRANCH  11  18
ENDBRANCH   8  11
ENDBRANCH   6   7
BRANCH   6  22
ATOM     22  C   UNL     1       8.841  -1.068  22.080  0.00  0.00    +0.067 C 
BRANCH  22  23
ATOM     23  C   UNL     1       9.702   0.042  22.631  0.00  0.00    -0.045 A 
ATOM     24  C   UNL     1       9.851   1.233  21.911  0.00  0.00    +0.004 A 
ATOM     25  C   UNL     1      10.470   2.332  22.498  0.00  0.00    +0.000 A 
ATOM     26  C   UNL     1      10.963   2.242  23.799  0.00  0.00    +0.000 A 
ATOM     27  C   UNL     1      10.866   1.044  24.504  0.00  0.00    +0.000 A 
ATOM     28  C   UNL     1      10.248  -0.057  23.919  0.00  0.00    +0.004 A 
ENDBRANCH  22  23
ENDBRANCH   6  22
ENDBRANCH   3   6
ENDBRANCH   1   2
BRANCH   1  29
ATOM     29  N   UNL     1       6.035   1.554  25.314  0.00  0.00    -0.302 N 
ATOM     30  H   UNL     1       6.895   1.089  25.570  0.00  0.00    +0.150 HD
ATOM     31  C   UNL     1       4.863   1.111  25.892  0.00  0.00    +0.234 C 
ATOM     32  O   UNL     1       3.744   1.495  25.573  0.00  0.00    -0.274 OA
BRANCH  31  33
ATOM     33  C   UNL     1       5.120   0.088  27.011  0.00  0.00    +0.159 C 
BRANCH  33  34
ATOM     34  N   UNL     1       4.889  -1.263  26.507  0.00  0.00    -0.303 N 
ATOM     35  H   UNL     1       5.652  -1.777  26.068  0.00  0.00    +0.149 HD
ATOM     36  C   UNL     1       3.729  -1.938  26.800  0.00  0.00    +0.228 C 
ATOM     37  O   UNL     1       2.787  -1.402  27.381  0.00  0.00    -0.274 OA
BRANCH  36  38
ATOM     38  C   UNL     1       3.630  -3.383  26.310  0.00  0.00    +0.180 C 
BRANCH  38  39
ATOM     39  N   UNL     1       2.377  -4.077  26.698  0.00  0.00    -0.290 NA
ATOM     40  C   UNL     1       2.609  -4.859  27.944  0.00  0.00    +0.113 C 
ATOM     41  C   UNL     1       3.493  -6.108  27.750  0.00  0.00    +0.175 C 
ATOM     42  O   UNL     1       2.950  -6.978  26.751  0.00  0.00    -0.377 OA
ATOM     43  C   UNL     1       2.778  -6.289  25.506  0.00  0.00    +0.175 C 
ATOM     44  C   UNL     1       1.902  -5.037  25.671  0.00  0.00    +0.113 C 
ENDBRANCH  38  39
ENDBRANCH  36  38
ENDBRANCH  33  34
BRANCH  33  45
ATOM     45  C   UNL     1       6.525   0.221  27.620  0.00  0.00    +0.036 C 
BRANCH  45  46
ATOM     46  C   UNL     1       6.599   0.933  28.976  0.00  0.00    +0.037 C 
BRANCH  46  47
ATOM     47  C   UNL     1       6.189   2.380  28.817  0.00  0.00    -0.047 A 
ATOM     48  C   UNL     1       5.025   2.863  29.431  0.00  0.00    +0.003 A 
ATOM     49  C   UNL     1       4.716   4.224  29.388  0.00  0.00    +0.000 A 
ATOM     50  C   UNL     1       5.564   5.114  28.730  0.00  0.00    +0.000 A 
ATOM     51  C   UNL     1       6.712   4.640  28.097  0.00  0.00    +0.000 A 
ATOM     52  C   UNL     1       7.021   3.279  28.137  0.00  0.00    +0.003 A 
ENDBRANCH  46  47
ENDBRANCH  45  46
ENDBRANCH  33  45
ENDBRANCH  31  33
ENDBRANCH   1  29
BRANCH   1  53
ATOM     53  C   UNL     1       6.938   3.657  24.400  0.00  0.00    +0.034 C 
BRANCH  53  55
ATOM     54  C   UNL     1       7.355   5.099  22.350  0.00  0.00    +0.007 C 
ATOM     55  C   UNL     1       6.490   4.905  23.600  0.00  0.00    -0.015 C 
ATOM     56  C   UNL     1       5.017   4.850  23.193  0.00  0.00    +0.007 C 
ENDBRANCH  53  55
ENDBRANCH   1  53
TORSDOF 20
ENDMDL
MODEL 4
REMARK VINA RESULT:      -5.8      2.455      8.246
REMARK  Name = 
REMARK  25 active torsions:
REMARK  status: ('A' for Active; 'I' for Inactive)
REMARK    1  A    between atoms: C_1  and  C_2
REMARK    2  A    between atoms: C_2  and  C_3
REMARK    3  A    between atoms: C_2  and  C_4
REMARK    4  A    between atoms: C_4  and  C_5
REMARK    5  A    between atoms: C_5  and  N_7
REMARK    6  A    between atoms: C_5  and  C_30
REMARK    7  A    between atoms: C_8  and  C_10
REMARK    8  A    between atoms: C_10  and  C_12
REMARK    9  A    between atoms: C_10  and  N_20
REMARK   10  A    between atoms: C_12  and  C_13
REMARK   11  A    between atoms: C_13  and  C_14
REMARK   12  A    between atoms: C_21  and  C_23
REMARK   13  A    between atoms: C_23  and  N_24
REMARK   14  A    between atoms: N_32  and  C_33
REMARK   15  A    between atoms: C_33  and  C_35
REMARK   16  A    between atoms: C_33  and  C_42
REMARK   17  A    between atoms: C_35  and  C_36
REMARK   18  A    between atoms: N_44  and  C_45
REMARK   19  A    between atoms: C_45  and  C_47
REMARK   20  A    between atoms: C_45  and  C_51
REMARK   21  A    between atoms: C_47  and  C_48
REMARK   22  A    between atoms: C_48  and  C_49
REMARK   23  A    between atoms: C_48  and  C_50
REMARK   24  A    between atoms: C_51  and  C_53
REMARK   25  A    between atoms: C_53  and  C_54
REMARK                            x       y       z     vdW  Elec       q    Type
REMARK                         _______ _______ _______ _____ _____    ______ ____
ROOT
ATOM      1  C   UNL     1       8.613  -0.572  24.561  0.00  0.00    +0.159 C 
ENDROOT
BRANCH   1   2
ATOM      2  C   UNL     1       7.531   0.208  25.356  0.00  0.00    +0.234 C 
ATOM      3  N   UNL     1       7.934   1.266  26.133  0.00  0.00    -0.302 N 
ATOM      4  H   UNL     1       8.904   1.385  26.408  0.00  0.00    +0.150 HD
ATOM      5  O   UNL     1       6.333   0.014  25.136  0.00  0.00    -0.274 OA
BRANCH   3   6
ATOM      6  C   UNL     1       6.998   2.241  26.722  0.00  0.00    +0.163 C 
BRANCH   6   7
ATOM      7  C   UNL     1       7.533   3.664  26.401  0.00  0.00    +0.234 C 
ATOM      8  N   UNL     1       8.011   3.822  25.119  0.00  0.00    -0.304 N 
ATOM      9  H   UNL     1       8.098   3.009  24.514  0.00  0.00    +0.149 HD
ATOM     10  O   UNL     1       7.546   4.554  27.244  0.00  0.00    -0.274 OA
BRANCH   8  11
ATOM     11  C   UNL     1       8.600   5.058  24.601  0.00  0.00    +0.143 C 
BRANCH  11  12
ATOM     12  C   UNL     1       7.543   5.708  23.692  0.00  0.00    +0.187 C 
ATOM     13  O   UNL     1       7.524   6.920  23.471  0.00  0.00    -0.292 OA
BRANCH  12  14
ATOM     14  C   UNL     1       6.505   4.833  23.071  0.00  0.00    +0.149 C 
ATOM     15  O   UNL     1       5.316   5.520  22.646  0.00  0.00    -0.361 OA
ATOM     16  C   UNL     1       5.181   4.693  23.807  0.00  0.00    +0.203 C 
ATOM     17  C   UNL     1       6.911   3.706  22.171  0.00  0.00    +0.052 C 
ENDBRANCH  12  14
ENDBRANCH  11  12
BRANCH  11  18
ATOM     18  C   UNL     1       9.928   4.837  23.859  0.00  0.00    +0.033 C 
BRANCH  18  19
ATOM     19  C   UNL     1      10.951   5.996  23.892  0.00  0.00    -0.015 C 
ATOM     20  C   UNL     1      12.412   5.563  23.747  0.00  0.00    +0.007 C 
ATOM     21  C   UNL     1      10.808   6.770  25.208  0.00  0.00    +0.007 C 
ENDBRANCH  18  19
ENDBRANCH  11  18
ENDBRANCH   8  11
ENDBRANCH   6   7
BRANCH   6  22
ATOM     22  C   UNL     1       6.742   2.085  28.238  0.00  0.00    +0.067 C 
BRANCH  22  23
ATOM     23  C   UNL     1       5.382   1.494  28.519  0.00  0.00    -0.045 A 
ATOM     24  C   UNL     1       4.284   2.338  28.728  0.00  0.00    +0.004 A 
ATOM     25  C   UNL     1       2.998   1.810  28.784  0.00  0.00    +0.000 A 
ATOM     26  C   UNL     1       2.802   0.435  28.654  0.00  0.00    +0.000 A 
ATOM     27  C   UNL     1       3.894  -0.417  28.499  0.00  0.00    +0.000 A 
ATOM     28  C   UNL     1       5.182   0.109  28.443  0.00  0.00    +0.004 A 
ENDBRANCH  22  23
ENDBRANCH   6  22
ENDBRANCH   3   6
ENDBRANCH   1   2
BRANCH   1  29
ATOM     29  N   UNL     1       8.143  -1.951  24.637  0.00  0.00    -0.302 N 
ATOM     30  H   UNL     1       7.264  -2.093  25.116  0.00  0.00    +0.150 HD
ATOM     31  C   UNL     1       8.935  -3.055  24.400  0.00  0.00    +0.234 C 
ATOM     32  O   UNL     1      10.075  -3.008  23.950  0.00  0.00    -0.274 OA
BRANCH  31  33
ATOM     33  C   UNL     1       8.214  -4.370  24.742  0.00  0.00    +0.159 C 
BRANCH  33  34
ATOM     34  N   UNL     1       7.084  -4.097  25.625  0.00  0.00    -0.303 N 
ATOM     35  H   UNL     1       6.238  -3.672  25.248  0.00  0.00    +0.149 HD
ATOM     36  C   UNL     1       7.052  -4.593  26.906  0.00  0.00    +0.228 C 
ATOM     37  O   UNL     1       8.013  -5.171  27.410  0.00  0.00    -0.274 OA
BRANCH  36  38
ATOM     38  C   UNL     1       5.778  -4.337  27.712  0.00  0.00    +0.180 C 
BRANCH  38  39
ATOM     39  N   UNL     1       4.641  -5.220  27.357  0.00  0.00    -0.290 NA
ATOM     40  C   UNL     1       3.546  -5.043  28.351  0.00  0.00    +0.113 C 
ATOM     41  C   UNL     1       3.854  -5.639  29.740  0.00  0.00    +0.175 C 
ATOM     42  O   UNL     1       4.175  -7.031  29.648  0.00  0.00    -0.377 OA
ATOM     43  C   UNL     1       5.277  -7.248  28.757  0.00  0.00    +0.175 C 
ATOM     44  C   UNL     1       4.998  -6.660  27.363  0.00  0.00    +0.113 C 
ENDBRANCH  38  39
ENDBRANCH  36  38
ENDBRANCH  33  34
BRANCH  33  45
ATOM     45  C   UNL     1       7.768  -5.141  23.489  0.00  0.00    +0.036 C 
BRANCH  45  46
ATOM     46  C   UNL     1       6.645  -4.490  22.672  0.00  0.00    +0.037 C 
BRANCH  46  47
ATOM     47  C   UNL     1       5.303  -5.001  23.148  0.00  0.00    -0.047 A 
ATOM     48  C   UNL     1       5.095  -6.371  23.359  0.00  0.00    +0.003 A 
ATOM     49  C   UNL     1       3.899  -6.826  23.918  0.00  0.00    +0.000 A 
ATOM     50  C   UNL     1       2.900  -5.919  24.268  0.00  0.00    +0.000 A 
ATOM     51  C   UNL     1       3.089  -4.557  24.041  0.00  0.00    +0.000 A 
ATOM     52  C   UNL     1       4.283  -4.100  23.481  0.00  0.00    +0.003 A 
ENDBRANCH  46  47
ENDBRANCH  45  46
ENDBRANCH  33  45
ENDBRANCH  31  33
ENDBRANCH   1  29
BRANCH   1  53
ATOM     53  C   UNL     1       8.829  -0.155  23.095  0.00  0.00    +0.034 C 
BRANCH  53  55
ATOM     54  C   UNL     1      10.033   1.750  21.922  0.00  0.00    +0.007 C 
ATOM     55  C   UNL     1      10.195   0.521  22.824  0.00  0.00    -0.015 C 
ATOM     56  C   UNL     1      10.918   0.929  24.108  0.00  0.00    +0.007 C 
ENDBRANCH  53  55
ENDBRANCH   1  53
TORSDOF 20
ENDMDL
MODEL 5
REMARK VINA RESULT:      -5.8      2.214      8.155
REMARK  Name = 
REMARK  25 active torsions:
REMARK  status: ('A' for Active; 'I' for Inactive)
REMARK    1  A    between atoms: C_1  and  C_2
REMARK    2  A    between atoms: C_2  and  C_3
REMARK    3  A    between atoms: C_2  and  C_4
REMARK    4  A    between atoms: C_4  and  C_5
REMARK    5  A    between atoms: C_5  and  N_7
REMARK    6  A    between atoms: C_5  and  C_30
REMARK    7  A    between atoms: C_8  and  C_10
REMARK    8  A    between atoms: C_10  and  C_12
REMARK    9  A    between atoms: C_10  and  N_20
REMARK   10  A    between atoms: C_12  and  C_13
REMARK   11  A    between atoms: C_13  and  C_14
REMARK   12  A    between atoms: C_21  and  C_23
REMARK   13  A    between atoms: C_23  and  N_24
REMARK   14  A    between atoms: N_32  and  C_33
REMARK   15  A    between atoms: C_33  and  C_35
REMARK   16  A    between atoms: C_33  and  C_42
REMARK   17  A    between atoms: C_35  and  C_36
REMARK   18  A    between atoms: N_44  and  C_45
REMARK   19  A    between atoms: C_45  and  C_47
REMARK   20  A    between atoms: C_45  and  C_51
REMARK   21  A    between atoms: C_47  and  C_48
REMARK   22  A    between atoms: C_48  and  C_49
REMARK   23  A    between atoms: C_48  and  C_50
REMARK   24  A    between atoms: C_51  and  C_53
REMARK   25  A    between atoms: C_53  and  C_54
REMARK                            x       y       z     vdW  Elec       q    Type
REMARK                         _______ _______ _______ _____ _____    ______ ____
ROOT
ATOM      1  C   UNL     1       8.397  -3.052  23.102  0.00  0.00    +0.159 C 
ENDROOT
BRANCH   1   2
ATOM      2  C   UNL     1       6.888  -3.376  23.279  0.00  0.00    +0.234 C 
ATOM      3  N   UNL     1       6.543  -4.621  23.743  0.00  0.00    -0.302 N 
ATOM      4  H   UNL     1       7.196  -5.397  23.721  0.00  0.00    +0.150 HD
ATOM      5  O   UNL     1       6.044  -2.480  23.200  0.00  0.00    -0.274 OA
BRANCH   3   6
ATOM      6  C   UNL     1       5.185  -4.966  24.201  0.00  0.00    +0.163 C 
BRANCH   6   7
ATOM      7  C   UNL     1       5.052  -4.507  25.679  0.00  0.00    +0.234 C 
ATOM      8  N   UNL     1       4.494  -3.257  25.844  0.00  0.00    -0.304 N 
ATOM      9  H   UNL     1       4.318  -2.677  25.027  0.00  0.00    +0.149 HD
ATOM     10  O   UNL     1       5.444  -5.202  26.610  0.00  0.00    -0.274 OA
BRANCH   8  11
ATOM     11  C   UNL     1       4.307  -2.598  27.137  0.00  0.00    +0.143 C 
BRANCH  11  12
ATOM     12  C   UNL     1       2.994  -3.142  27.727  0.00  0.00    +0.187 C 
ATOM     13  O   UNL     1       2.844  -3.326  28.935  0.00  0.00    -0.292 OA
BRANCH  12  14
ATOM     14  C   UNL     1       1.874  -3.461  26.792  0.00  0.00    +0.149 C 
ATOM     15  O   UNL     1       1.822  -2.638  25.614  0.00  0.00    -0.361 OA
ATOM     16  C   UNL     1       0.807  -2.395  26.594  0.00  0.00    +0.203 C 
ATOM     17  C   UNL     1       1.471  -4.885  26.557  0.00  0.00    +0.052 C 
ENDBRANCH  12  14
ENDBRANCH  11  12
BRANCH  11  18
ATOM     18  C   UNL     1       4.296  -1.064  27.045  0.00  0.00    +0.033 C 
BRANCH  18  19
ATOM     19  C   UNL     1       5.172  -0.295  28.060  0.00  0.00    -0.015 C 
ATOM     20  C   UNL     1       4.394   0.610  29.019  0.00  0.00    +0.007 C 
ATOM     21  C   UNL     1       6.192   0.569  27.307  0.00  0.00    +0.007 C 
ENDBRANCH  18  19
ENDBRANCH  11  18
ENDBRANCH   8  11
ENDBRANCH   6   7
BRANCH   6  22
ATOM     22  C   UNL     1       4.792  -6.453  24.056  0.00  0.00    +0.067 C 
BRANCH  22  23
ATOM     23  C   UNL     1       3.329  -6.618  23.729  0.00  0.00    -0.045 A 
ATOM     24  C   UNL     1       2.637  -7.752  24.172  0.00  0.00    +0.004 A 
ATOM     25  C   UNL     1       1.252  -7.817  24.054  0.00  0.00    +0.000 A 
ATOM     26  C   UNL     1       0.552  -6.760  23.474  0.00  0.00    +0.000 A 
ATOM     27  C   UNL     1       1.237  -5.651  22.982  0.00  0.00    +0.000 A 
ATOM     28  C   UNL     1       2.622  -5.584  23.098  0.00  0.00    +0.004 A 
ENDBRANCH  22  23
ENDBRANCH   6  22
ENDBRANCH   3   6
ENDBRANCH   1   2
BRANCH   1  29
ATOM     29  N   UNL     1       8.398  -1.608  22.891  0.00  0.00    -0.302 N 
ATOM     30  H   UNL     1       7.563  -1.118  23.182  0.00  0.00    +0.150 HD
ATOM     31  C   UNL     1       9.282  -0.945  22.065  0.00  0.00    +0.234 C 
ATOM     32  O   UNL     1      10.259  -1.463  21.536  0.00  0.00    -0.274 OA
BRANCH  31  33
ATOM     33  C   UNL     1       8.917   0.540  21.898  0.00  0.00    +0.159 C 
BRANCH  33  34
ATOM     34  N   UNL     1       7.823   0.883  22.803  0.00  0.00    -0.303 N 
ATOM     35  H   UNL     1       7.782   0.460  23.729  0.00  0.00    +0.149 HD
ATOM     36  C   UNL     1       6.969   1.920  22.517  0.00  0.00    +0.228 C 
ATOM     37  O   UNL     1       6.998   2.519  21.443  0.00  0.00    -0.274 OA
BRANCH  36  38
ATOM     38  C   UNL     1       5.923   2.263  23.579  0.00  0.00    +0.180 C 
BRANCH  38  39
ATOM     39  N   UNL     1       5.089   3.447  23.257  0.00  0.00    -0.290 NA
ATOM     40  C   UNL     1       5.692   4.661  23.873  0.00  0.00    +0.113 C 
ATOM     41  C   UNL     1       5.561   4.719  25.409  0.00  0.00    +0.175 C 
ATOM     42  O   UNL     1       4.193   4.623  25.818  0.00  0.00    -0.377 OA
ATOM     43  C   UNL     1       3.586   3.428  25.311  0.00  0.00    +0.175 C 
ATOM     44  C   UNL     1       3.704   3.342  23.779  0.00  0.00    +0.113 C 
ENDBRANCH  38  39
ENDBRANCH  36  38
ENDBRANCH  33  34
BRANCH  33  45
ATOM     45  C   UNL     1      10.122   1.470  22.104  0.00  0.00    +0.036 C 
BRANCH  45  46
ATOM     46  C   UNL     1      10.403   1.885  23.553  0.00  0.00    +0.037 C 
BRANCH  46  47
ATOM     47  C   UNL     1      10.488   3.392  23.647  0.00  0.00    -0.047 A 
ATOM     48  C   UNL     1       9.400   4.141  24.116  0.00  0.00    +0.003 A 
ATOM     49  C   UNL     1       9.523   5.517  24.321  0.00  0.00    +0.000 A 
ATOM     50  C   UNL     1      10.733   6.157  24.056  0.00  0.00    +0.000 A 
ATOM     51  C   UNL     1      11.814   5.426  23.567  0.00  0.00    +0.000 A 
ATOM     52  C   UNL     1      11.692   4.051  23.360  0.00  0.00    +0.003 A 
ENDBRANCH  46  47
ENDBRANCH  45  46
ENDBRANCH  33  45
ENDBRANCH  31  33
ENDBRANCH   1  29
BRANCH   1  53
ATOM     53  C   UNL     1       9.327  -3.427  24.269  0.00  0.00    +0.034 C 
BRANCH  53  55
ATOM     54  C   UNL     1       9.239  -4.518  26.562  0.00  0.00    +0.007 C 
ATOM     55  C   UNL     1       8.632  -3.445  25.653  0.00  0.00    -0.015 C 
ATOM     56  C   UNL     1       8.690  -2.090  26.361  0.00  0.00    +0.007 C 
ENDBRANCH  53  55
ENDBRANCH   1  53
TORSDOF 20
ENDMDL
MODEL 6
REMARK VINA RESULT:      -5.7      2.357      7.188
REMARK  Name = 
REMARK  25 active torsions:
REMARK  status: ('A' for Active; 'I' for Inactive)
REMARK    1  A    between atoms: C_1  and  C_2
REMARK    2  A    between atoms: C_2  and  C_3
REMARK    3  A    between atoms: C_2  and  C_4
REMARK    4  A    between atoms: C_4  and  C_5
REMARK    5  A    between atoms: C_5  and  N_7
REMARK    6  A    between atoms: C_5  and  C_30
REMARK    7  A    between atoms: C_8  and  C_10
REMARK    8  A    between atoms: C_10  and  C_12
REMARK    9  A    between atoms: C_10  and  N_20
REMARK   10  A    between atoms: C_12  and  C_13
REMARK   11  A    between atoms: C_13  and  C_14
REMARK   12  A    between atoms: C_21  and  C_23
REMARK   13  A    between atoms: C_23  and  N_24
REMARK   14  A    between atoms: N_32  and  C_33
REMARK   15  A    between atoms: C_33  and  C_35
REMARK   16  A    between atoms: C_33  and  C_42
REMARK   17  A    between atoms: C_35  and  C_36
REMARK   18  A    between atoms: N_44  and  C_45
REMARK   19  A    between atoms: C_45  and  C_47
REMARK   20  A    between atoms: C_45  and  C_51
REMARK   21  A    between atoms: C_47  and  C_48
REMARK   22  A    between atoms: C_48  and  C_49
REMARK   23  A    between atoms: C_48  and  C_50
REMARK   24  A    between atoms: C_51  and  C_53
REMARK   25  A    between atoms: C_53  and  C_54
REMARK                            x       y       z     vdW  Elec       q    Type
REMARK                         _______ _______ _______ _____ _____    ______ ____
ROOT
ATOM      1  C   UNL     1       9.643  -0.744  24.859  0.00  0.00    +0.159 C 
ENDROOT
BRANCH   1   2
ATOM      2  C   UNL     1       8.832  -0.036  25.977  0.00  0.00    +0.234 C 
ATOM      3  N   UNL     1       8.151   1.112  25.656  0.00  0.00    -0.302 N 
ATOM      4  H   UNL     1       8.366   1.642  24.817  0.00  0.00    +0.150 HD
ATOM      5  O   UNL     1       8.641  -0.596  27.059  0.00  0.00    -0.274 OA
BRANCH   3   6
ATOM      6  C   UNL     1       7.144   1.730  26.538  0.00  0.00    +0.163 C 
BRANCH   6   7
ATOM      7  C   UNL     1       5.751   1.176  26.130  0.00  0.00    +0.234 C 
ATOM      8  N   UNL     1       4.821   1.158  27.147  0.00  0.00    -0.304 N 
ATOM      9  H   UNL     1       5.112   1.384  28.095  0.00  0.00    +0.149 HD
ATOM     10  O   UNL     1       5.526   0.765  24.998  0.00  0.00    -0.274 OA
BRANCH   8  11
ATOM     11  C   UNL     1       3.458   0.643  27.012  0.00  0.00    +0.143 C 
BRANCH  11  12
ATOM     12  C   UNL     1       2.542   1.859  26.788  0.00  0.00    +0.187 C 
ATOM     13  O   UNL     1       1.545   1.805  26.068  0.00  0.00    -0.292 OA
BRANCH  12  14
ATOM     14  C   UNL     1       2.891   3.143  27.464  0.00  0.00    +0.149 C 
ATOM     15  O   UNL     1       3.470   2.996  28.772  0.00  0.00    -0.361 OA
ATOM     16  C   UNL     1       2.127   3.492  28.733  0.00  0.00    +0.203 C 
ATOM     17  C   UNL     1       3.459   4.282  26.673  0.00  0.00    +0.052 C 
ENDBRANCH  12  14
ENDBRANCH  11  12
BRANCH  11  18
ATOM     18  C   UNL     1       3.001  -0.198  28.215  0.00  0.00    +0.033 C 
BRANCH  18  19
ATOM     19  C   UNL     1       2.706  -1.693  27.954  0.00  0.00    -0.015 C 
ATOM     20  C   UNL     1       3.833  -2.453  27.250  0.00  0.00    +0.007 C 
ATOM     21  C   UNL     1       1.436  -1.826  27.105  0.00  0.00    +0.007 C 
ENDBRANCH  18  19
ENDBRANCH  11  18
ENDBRANCH   8  11
ENDBRANCH   6   7
BRANCH   6  22
ATOM     22  C   UNL     1       7.132   3.275  26.553  0.00  0.00    +0.067 C 
BRANCH  22  23
ATOM     23  C   UNL     1       7.464   3.852  25.198  0.00  0.00    -0.045 A 
ATOM     24  C   UNL     1       6.451   4.033  24.249  0.00  0.00    +0.004 A 
ATOM     25  C   UNL     1       6.705   4.747  23.082  0.00  0.00    +0.000 A 
ATOM     26  C   UNL     1       7.978   5.266  22.846  0.00  0.00    +0.000 A 
ATOM     27  C   UNL     1       9.006   5.045  23.761  0.00  0.00    +0.000 A 
ATOM     28  C   UNL     1       8.754   4.330  24.928  0.00  0.00    +0.004 A 
ENDBRANCH  22  23
ENDBRANCH   6  22
ENDBRANCH   3   6
ENDBRANCH   1   2
BRANCH   1  29
ATOM     29  N   UNL     1       8.765  -1.839  24.461  0.00  0.00    -0.302 N 
ATOM     30  H   UNL     1       7.777  -1.691  24.615  0.00  0.00    +0.150 HD
ATOM     31  C   UNL     1       9.194  -3.125  24.208  0.00  0.00    +0.234 C 
ATOM     32  O   UNL     1      10.370  -3.463  24.134  0.00  0.00    -0.274 OA
BRANCH  31  33
ATOM     33  C   UNL     1       8.020  -4.097  23.999  0.00  0.00    +0.159 C 
BRANCH  33  34
ATOM     34  N   UNL     1       7.194  -4.137  25.202  0.00  0.00    -0.303 N 
ATOM     35  H   UNL     1       6.367  -3.545  25.268  0.00  0.00    +0.149 HD
ATOM     36  C   UNL     1       7.383  -5.107  26.158  0.00  0.00    +0.228 C 
ATOM     37  O   UNL     1       8.324  -5.897  26.114  0.00  0.00    -0.274 OA
BRANCH  36  38
ATOM     38  C   UNL     1       6.398  -5.122  27.328  0.00  0.00    +0.180 C 
BRANCH  38  39
ATOM     39  N   UNL     1       6.169  -6.464  27.918  0.00  0.00    -0.290 NA
ATOM     40  C   UNL     1       4.770  -6.893  27.644  0.00  0.00    +0.113 C 
ATOM     41  C   UNL     1       3.704  -6.121  28.449  0.00  0.00    +0.175 C 
ATOM     42  O   UNL     1       3.950  -6.212  29.856  0.00  0.00    -0.377 OA
ATOM     43  C   UNL     1       5.262  -5.737  30.183  0.00  0.00    +0.175 C 
ATOM     44  C   UNL     1       6.346  -6.489  29.391  0.00  0.00    +0.113 C 
ENDBRANCH  38  39
ENDBRANCH  36  38
ENDBRANCH  33  34
BRANCH  33  45
ATOM     45  C   UNL     1       7.181  -3.751  22.759  0.00  0.00    +0.036 C 
BRANCH  45  46
ATOM     46  C   UNL     1       6.431  -4.922  22.114  0.00  0.00    +0.037 C 
BRANCH  46  47
ATOM     47  C   UNL     1       5.180  -5.228  22.908  0.00  0.00    -0.047 A 
ATOM     48  C   UNL     1       4.938  -6.523  23.387  0.00  0.00    +0.003 A 
ATOM     49  C   UNL     1       3.850  -6.776  24.225  0.00  0.00    +0.000 A 
ATOM     50  C   UNL     1       2.992  -5.739  24.588  0.00  0.00    +0.000 A 
ATOM     51  C   UNL     1       3.211  -4.452  24.099  0.00  0.00    +0.000 A 
ATOM     52  C   UNL     1       4.297  -4.199  23.260  0.00  0.00    +0.003 A 
ENDBRANCH  46  47
ENDBRANCH  45  46
ENDBRANCH  33  45
ENDBRANCH  31  33
ENDBRANCH   1  29
BRANCH   1  53
ATOM     53  C   UNL     1      10.029   0.109  23.636  0.00  0.00    +0.034 C 
BRANCH  53  55
ATOM     54  C   UNL     1       8.605   1.527  22.082  0.00  0.00    +0.007 C 
ATOM     55  C   UNL     1       8.976   0.101  22.501  0.00  0.00    -0.015 C 
ATOM     56  C   UNL     1       9.437  -0.684  21.272  0.00  0.00    +0.007 C 
ENDBRANCH  53  55
ENDBRANCH   1  53
TORSDOF 20
ENDMDL
MODEL 7
REMARK VINA RESULT:      -5.6      2.176      3.851
REMARK  Name = 
REMARK  25 active torsions:
REMARK  status: ('A' for Active; 'I' for Inactive)
REMARK    1  A    between atoms: C_1  and  C_2
REMARK    2  A    between atoms: C_2  and  C_3
REMARK    3  A    between atoms: C_2  and  C_4
REMARK    4  A    between atoms: C_4  and  C_5
REMARK    5  A    between atoms: C_5  and  N_7
REMARK    6  A    between atoms: C_5  and  C_30
REMARK    7  A    between atoms: C_8  and  C_10
REMARK    8  A    between atoms: C_10  and  C_12
REMARK    9  A    between atoms: C_10  and  N_20
REMARK   10  A    between atoms: C_12  and  C_13
REMARK   11  A    between atoms: C_13  and  C_14
REMARK   12  A    between atoms: C_21  and  C_23
REMARK   13  A    between atoms: C_23  and  N_24
REMARK   14  A    between atoms: N_32  and  C_33
REMARK   15  A    between atoms: C_33  and  C_35
REMARK   16  A    between atoms: C_33  and  C_42
REMARK   17  A    between atoms: C_35  and  C_36
REMARK   18  A    between atoms: N_44  and  C_45
REMARK   19  A    between atoms: C_45  and  C_47
REMARK   20  A    between atoms: C_45  and  C_51
REMARK   21  A    between atoms: C_47  and  C_48
REMARK   22  A    between atoms: C_48  and  C_49
REMARK   23  A    between atoms: C_48  and  C_50
REMARK   24  A    between atoms: C_51  and  C_53
REMARK   25  A    between atoms: C_53  and  C_54
REMARK                            x       y       z     vdW  Elec       q    Type
REMARK                         _______ _______ _______ _____ _____    ______ ____
ROOT
ATOM      1  C   UNL     1       5.674   2.022  22.934  0.00  0.00    +0.159 C 
ENDROOT
BRANCH   1   2
ATOM      2  C   UNL     1       7.191   1.841  22.657  0.00  0.00    +0.234 C 
ATOM      3  N   UNL     1       7.944   1.166  23.585  0.00  0.00    -0.302 N 
ATOM      4  H   UNL     1       7.613   1.020  24.534  0.00  0.00    +0.150 HD
ATOM      5  O   UNL     1       7.660   2.115  21.549  0.00  0.00    -0.274 OA
BRANCH   3   6
ATOM      6  C   UNL     1       9.318   0.700  23.329  0.00  0.00    +0.163 C 
BRANCH   6   7
ATOM      7  C   UNL     1       9.348  -0.838  23.552  0.00  0.00    +0.234 C 
ATOM      8  N   UNL     1       8.107  -1.421  23.689  0.00  0.00    -0.304 N 
ATOM      9  H   UNL     1       7.281  -0.830  23.757  0.00  0.00    +0.149 HD
ATOM     10  O   UNL     1      10.401  -1.460  23.625  0.00  0.00    -0.274 OA
BRANCH   8  11
ATOM     11  C   UNL     1       7.886  -2.845  23.948  0.00  0.00    +0.143 C 
BRANCH  11  12
ATOM     12  C   UNL     1       6.765  -3.301  22.997  0.00  0.00    +0.187 C 
ATOM     13  O   UNL     1       6.110  -2.504  22.326  0.00  0.00    -0.292 OA
BRANCH  12  14
ATOM     14  C   UNL     1       6.466  -4.760  22.902  0.00  0.00    +0.149 C 
ATOM     15  O   UNL     1       7.626  -5.608  22.834  0.00  0.00    -0.361 OA
ATOM     16  C   UNL     1       6.876  -5.473  21.622  0.00  0.00    +0.203 C 
ATOM     17  C   UNL     1       5.328  -5.349  23.678  0.00  0.00    +0.052 C 
ENDBRANCH  12  14
ENDBRANCH  11  12
BRANCH  11  18
ATOM     18  C   UNL     1       7.547  -3.153  25.415  0.00  0.00    +0.033 C 
BRANCH  18  19
ATOM     19  C   UNL     1       8.540  -4.049  26.191  0.00  0.00    -0.015 C 
ATOM     20  C   UNL     1       9.655  -4.655  25.336  0.00  0.00    +0.007 C 
ATOM     21  C   UNL     1       7.778  -5.195  26.868  0.00  0.00    +0.007 C 
ENDBRANCH  18  19
ENDBRANCH  11  18
ENDBRANCH   8  11
ENDBRANCH   6   7
BRANCH   6  22
ATOM     22  C   UNL     1      10.421   1.391  24.162  0.00  0.00    +0.067 C 
BRANCH  22  23
ATOM     23  C   UNL     1      10.497   2.870  23.875  0.00  0.00    -0.045 A 
ATOM     24  C   UNL     1       9.449   3.712  24.266  0.00  0.00    +0.004 A 
ATOM     25  C   UNL     1       9.597   5.094  24.191  0.00  0.00    +0.000 A 
ATOM     26  C   UNL     1      10.783   5.643  23.706  0.00  0.00    +0.000 A 
ATOM     27  C   UNL     1      11.811   4.812  23.265  0.00  0.00    +0.000 A 
ATOM     28  C   UNL     1      11.665   3.429  23.337  0.00  0.00    +0.004 A 
ENDBRANCH  22  23
ENDBRANCH   6  22
ENDBRANCH   3   6
ENDBRANCH   1   2
BRANCH   1  29
ATOM     29  N   UNL     1       5.602   1.992  24.391  0.00  0.00    -0.302 N 
ATOM     30  H   UNL     1       5.853   2.851  24.863  0.00  0.00    +0.150 HD
ATOM     31  C   UNL     1       5.536   0.837  25.142  0.00  0.00    +0.234 C 
ATOM     32  O   UNL     1       5.375  -0.285  24.676  0.00  0.00    -0.274 OA
BRANCH  31  33
ATOM     33  C   UNL     1       5.664   1.117  26.649  0.00  0.00    +0.159 C 
BRANCH  33  34
ATOM     34  N   UNL     1       5.531  -0.131  27.395  0.00  0.00    -0.303 N 
ATOM     35  H   UNL     1       6.365  -0.657  27.654  0.00  0.00    +0.149 HD
ATOM     36  C   UNL     1       4.327  -0.504  27.940  0.00  0.00    +0.228 C 
ATOM     37  O   UNL     1       3.287   0.116  27.721  0.00  0.00    -0.274 OA
BRANCH  36  38
ATOM     38  C   UNL     1       4.318  -1.776  28.789  0.00  0.00    +0.180 C 
BRANCH  38  39
ATOM     39  N   UNL     1       3.109  -2.617  28.620  0.00  0.00    -0.290 NA
ATOM     40  C   UNL     1       3.002  -3.568  29.762  0.00  0.00    +0.113 C 
ATOM     41  C   UNL     1       4.053  -4.697  29.742  0.00  0.00    +0.175 C 
ATOM     42  O   UNL     1       3.997  -5.436  28.518  0.00  0.00    -0.377 OA
ATOM     43  C   UNL     1       4.172  -4.574  27.386  0.00  0.00    +0.175 C 
ATOM     44  C   UNL     1       3.137  -3.435  27.381  0.00  0.00    +0.113 C 
ENDBRANCH  38  39
ENDBRANCH  36  38
ENDBRANCH  33  34
BRANCH  33  45
ATOM     45  C   UNL     1       6.973   1.841  27.005  0.00  0.00    +0.036 C 
BRANCH  45  46
ATOM     46  C   UNL     1       6.864   2.918  28.091  0.00  0.00    +0.037 C 
BRANCH  46  47
ATOM     47  C   UNL     1       6.370   4.211  27.482  0.00  0.00    -0.047 A 
ATOM     48  C   UNL     1       5.035   4.610  27.640  0.00  0.00    +0.003 A 
ATOM     49  C   UNL     1       4.613   5.862  27.187  0.00  0.00    +0.000 A 
ATOM     50  C   UNL     1       5.518   6.723  26.568  0.00  0.00    +0.000 A 
ATOM     51  C   UNL     1       6.841   6.326  26.385  0.00  0.00    +0.000 A 
ATOM     52  C   UNL     1       7.265   5.075  26.837  0.00  0.00    +0.003 A 
ENDBRANCH  46  47
ENDBRANCH  45  46
ENDBRANCH  33  45
ENDBRANCH  31  33
ENDBRANCH   1  29
BRANCH   1  53
ATOM     53  C   UNL     1       5.018   3.303  22.388  0.00  0.00    +0.034 C 
BRANCH  53  55
ATOM     54  C   UNL     1       6.190   5.527  22.750  0.00  0.00    +0.007 C 
ATOM     55  C   UNL     1       5.167   4.535  23.313  0.00  0.00    -0.015 C 
ATOM     56  C   UNL     1       3.842   5.258  23.554  0.00  0.00    +0.007 C 
ENDBRANCH  53  55
ENDBRANCH   1  53
TORSDOF 20
ENDMDL
MODEL 8
REMARK VINA RESULT:      -5.6      2.189      7.220
REMARK  Name = 
REMARK  25 active torsions:
REMARK  status: ('A' for Active; 'I' for Inactive)
REMARK    1  A    between atoms: C_1  and  C_2
REMARK    2  A    between atoms: C_2  and  C_3
REMARK    3  A    between atoms: C_2  and  C_4
REMARK    4  A    between atoms: C_4  and  C_5
REMARK    5  A    between atoms: C_5  and  N_7
REMARK    6  A    between atoms: C_5  and  C_30
REMARK    7  A    between atoms: C_8  and  C_10
REMARK    8  A    between atoms: C_10  and  C_12
REMARK    9  A    between atoms: C_10  and  N_20
REMARK   10  A    between atoms: C_12  and  C_13
REMARK   11  A    between atoms: C_13  and  C_14
REMARK   12  A    between atoms: C_21  and  C_23
REMARK   13  A    between atoms: C_23  and  N_24
REMARK   14  A    between atoms: N_32  and  C_33
REMARK   15  A    between atoms: C_33  and  C_35
REMARK   16  A    between atoms: C_33  and  C_42
REMARK   17  A    between atoms: C_35  and  C_36
REMARK   18  A    between atoms: N_44  and  C_45
REMARK   19  A    between atoms: C_45  and  C_47
REMARK   20  A    between atoms: C_45  and  C_51
REMARK   21  A    between atoms: C_47  and  C_48
REMARK   22  A    between atoms: C_48  and  C_49
REMARK   23  A    between atoms: C_48  and  C_50
REMARK   24  A    between atoms: C_51  and  C_53
REMARK   25  A    between atoms: C_53  and  C_54
REMARK                            x       y       z     vdW  Elec       q    Type
REMARK                         _______ _______ _______ _____ _____    ______ ____
ROOT
ATOM      1  C   UNL     1       5.394   0.947  27.750  0.00  0.00    +0.159 C 
ENDROOT
BRANCH   1   2
ATOM      2  C   UNL     1       6.057   1.733  26.586  0.00  0.00    +0.234 C 
ATOM      3  N   UNL     1       7.426   1.723  26.494  0.00  0.00    -0.302 N 
ATOM      4  H   UNL     1       8.011   1.455  27.280  0.00  0.00    +0.150 HD
ATOM      5  O   UNL     1       5.370   2.178  25.664  0.00  0.00    -0.274 OA
BRANCH   3   6
ATOM      6  C   UNL     1       8.162   2.199  25.309  0.00  0.00    +0.163 C 
BRANCH   6   7
ATOM      7  C   UNL     1       8.103   3.752  25.305  0.00  0.00    +0.234 C 
ATOM      8  N   UNL     1       8.088   4.322  24.051  0.00  0.00    -0.304 N 
ATOM      9  H   UNL     1       8.230   3.735  23.233  0.00  0.00    +0.149 HD
ATOM     10  O   UNL     1       8.101   4.400  26.345  0.00  0.00    -0.274 OA
BRANCH   8  11
ATOM     11  C   UNL     1       8.076   5.764  23.798  0.00  0.00    +0.143 C 
BRANCH  11  12
ATOM     12  C   UNL     1       6.786   6.068  23.016  0.00  0.00    +0.187 C 
ATOM     13  O   UNL     1       6.804   6.551  21.883  0.00  0.00    -0.292 OA
BRANCH  12  14
ATOM     14  C   UNL     1       5.475   5.770  23.665  0.00  0.00    +0.149 C 
ATOM     15  O   UNL     1       4.994   4.431  23.461  0.00  0.00    -0.361 OA
ATOM     16  C   UNL     1       4.299   5.463  22.752  0.00  0.00    +0.203 C 
ATOM     17  C   UNL     1       5.161   6.329  25.020  0.00  0.00    +0.052 C 
ENDBRANCH  12  14
ENDBRANCH  11  12
BRANCH  11  18
ATOM     18  C   UNL     1       9.324   6.263  23.052  0.00  0.00    +0.033 C 
BRANCH  18  19
ATOM     19  C   UNL     1      10.643   6.322  23.855  0.00  0.00    -0.015 C 
ATOM     20  C   UNL     1      11.452   5.023  23.852  0.00  0.00    +0.007 C 
ATOM     21  C   UNL     1      10.342   6.696  25.312  0.00  0.00    +0.007 C 
ENDBRANCH  18  19
ENDBRANCH  11  18
ENDBRANCH   8  11
ENDBRANCH   6   7
BRANCH   6  22
ATOM     22  C   UNL     1       7.679   1.634  23.955  0.00  0.00    +0.067 C 
BRANCH  22  23
ATOM     23  C   UNL     1       8.337   0.315  23.630  0.00  0.00    -0.045 A 
ATOM     24  C   UNL     1       8.355  -0.150  22.309  0.00  0.00    +0.004 A 
ATOM     25  C   UNL     1       9.130  -1.254  21.967  0.00  0.00    +0.000 A 
ATOM     26  C   UNL     1       9.874  -1.913  22.945  0.00  0.00    +0.000 A 
ATOM     27  C   UNL     1       9.820  -1.490  24.271  0.00  0.00    +0.000 A 
ATOM     28  C   UNL     1       9.045  -0.386  24.617  0.00  0.00    +0.004 A 
ENDBRANCH  22  23
ENDBRANCH   6  22
ENDBRANCH   3   6
ENDBRANCH   1   2
BRANCH   1  29
ATOM     29  N   UNL     1       5.449  -0.435  27.284  0.00  0.00    -0.302 N 
ATOM     30  H   UNL     1       6.374  -0.820  27.152  0.00  0.00    +0.150 HD
ATOM     31  C   UNL     1       4.382  -1.108  26.726  0.00  0.00    +0.234 C 
ATOM     32  O   UNL     1       3.232  -0.685  26.698  0.00  0.00    -0.274 OA
BRANCH  31  33
ATOM     33  C   UNL     1       4.794  -2.477  26.158  0.00  0.00    +0.159 C 
BRANCH  33  34
ATOM     34  N   UNL     1       3.695  -3.038  25.378  0.00  0.00    -0.303 N 
ATOM     35  H   UNL     1       3.494  -2.670  24.450  0.00  0.00    +0.149 HD
ATOM     36  C   UNL     1       3.062  -4.191  25.777  0.00  0.00    +0.228 C 
ATOM     37  O   UNL     1       3.296  -4.729  26.858  0.00  0.00    -0.274 OA
BRANCH  36  38
ATOM     38  C   UNL     1       1.994  -4.751  24.836  0.00  0.00    +0.180 C 
BRANCH  38  39
ATOM     39  N   UNL     1       2.530  -5.345  23.586  0.00  0.00    -0.290 NA
ATOM     40  C   UNL     1       1.486  -6.202  22.958  0.00  0.00    +0.113 C 
ATOM     41  C   UNL     1       1.208  -7.516  23.718  0.00  0.00    +0.175 C 
ATOM     42  O   UNL     1       2.405  -8.285  23.879  0.00  0.00    -0.377 OA
ATOM     43  C   UNL     1       3.420  -7.527  24.549  0.00  0.00    +0.175 C 
ATOM     44  C   UNL     1       3.715  -6.209  23.814  0.00  0.00    +0.113 C 
ENDBRANCH  38  39
ENDBRANCH  36  38
ENDBRANCH  33  34
BRANCH  33  45
ATOM     45  C   UNL     1       6.086  -2.406  25.328  0.00  0.00    +0.036 C 
BRANCH  45  46
ATOM     46  C   UNL     1       5.897  -2.280  23.811  0.00  0.00    +0.037 C 
BRANCH  46  47
ATOM     47  C   UNL     1       6.293  -3.574  23.136  0.00  0.00    -0.047 A 
ATOM     48  C   UNL     1       5.818  -3.885  21.855  0.00  0.00    +0.003 A 
ATOM     49  C   UNL     1       6.283  -5.017  21.183  0.00  0.00    +0.000 A 
ATOM     50  C   UNL     1       7.224  -5.851  21.787  0.00  0.00    +0.000 A 
ATOM     51  C   UNL     1       7.686  -5.562  23.070  0.00  0.00    +0.000 A 
ATOM     52  C   UNL     1       7.220  -4.432  23.743  0.00  0.00    +0.003 A 
ENDBRANCH  46  47
ENDBRANCH  45  46
ENDBRANCH  33  45
ENDBRANCH  31  33
ENDBRANCH   1  29
BRANCH   1  53
ATOM     53  C   UNL     1       6.053   1.075  29.136  0.00  0.00    +0.034 C 
BRANCH  53  55
ATOM     54  C   UNL     1       6.627   3.469  29.762  0.00  0.00    +0.007 C 
ATOM     55  C   UNL     1       5.617   2.330  29.930  0.00  0.00    -0.015 C 
ATOM     56  C   UNL     1       4.225   2.826  29.536  0.00  0.00    +0.007 C 
ENDBRANCH  53  55
ENDBRANCH   1  53
TORSDOF 20
ENDMDL
MODEL 9
REMARK VINA RESULT:      -5.6      2.649      6.696
REMARK  Name = 
REMARK  25 active torsions:
REMARK  status: ('A' for Active; 'I' for Inactive)
REMARK    1  A    between atoms: C_1  and  C_2
REMARK    2  A    between atoms: C_2  and  C_3
REMARK    3  A    between atoms: C_2  and  C_4
REMARK    4  A    between atoms: C_4  and  C_5
REMARK    5  A    between atoms: C_5  and  N_7
REMARK    6  A    between atoms: C_5  and  C_30
REMARK    7  A    between atoms: C_8  and  C_10
REMARK    8  A    between atoms: C_10  and  C_12
REMARK    9  A    between atoms: C_10  and  N_20
REMARK   10  A    between atoms: C_12  and  C_13
REMARK   11  A    between atoms: C_13  and  C_14
REMARK   12  A    between atoms: C_21  and  C_23
REMARK   13  A    between atoms: C_23  and  N_24
REMARK   14  A    between atoms: N_32  and  C_33
REMARK   15  A    between atoms: C_33  and  C_35
REMARK   16  A    between atoms: C_33  and  C_42
REMARK   17  A    between atoms: C_35  and  C_36
REMARK   18  A    between atoms: N_44  and  C_45
REMARK   19  A    between atoms: C_45  and  C_47
REMARK   20  A    between atoms: C_45  and  C_51
REMARK   21  A    between atoms: C_47  and  C_48
REMARK   22  A    between atoms: C_48  and  C_49
REMARK   23  A    between atoms: C_48  and  C_50
REMARK   24  A    between atoms: C_51  and  C_53
REMARK   25  A    between atoms: C_53  and  C_54
REMARK                            x       y       z     vdW  Elec       q    Type
REMARK                         _______ _______ _______ _____ _____    ______ ____
ROOT
ATOM      1  C   UNL     1       5.115   0.350  28.807  0.00  0.00    +0.159 C 
ENDROOT
BRANCH   1   2
ATOM      2  C   UNL     1       4.586  -0.994  28.237  0.00  0.00    +0.234 C 
ATOM      3  N   UNL     1       5.155  -1.478  27.085  0.00  0.00    -0.302 N 
ATOM      4  H   UNL     1       5.701  -0.883  26.470  0.00  0.00    +0.150 HD
ATOM      5  O   UNL     1       3.827  -1.699  28.905  0.00  0.00    -0.274 OA
BRANCH   3   6
ATOM      6  C   UNL     1       4.936  -2.848  26.587  0.00  0.00    +0.163 C 
BRANCH   6   7
ATOM      7  C   UNL     1       6.328  -3.505  26.378  0.00  0.00    +0.234 C 
ATOM      8  N   UNL     1       6.884  -3.287  25.136  0.00  0.00    -0.304 N 
ATOM      9  H   UNL     1       6.331  -2.832  24.413  0.00  0.00    +0.149 HD
ATOM     10  O   UNL     1       6.860  -4.184  27.248  0.00  0.00    -0.274 OA
BRANCH   8  11
ATOM     11  C   UNL     1       8.166  -3.839  24.694  0.00  0.00    +0.143 C 
BRANCH  11  12
ATOM     12  C   UNL     1       9.095  -2.643  24.421  0.00  0.00    +0.187 C 
ATOM     13  O   UNL     1      10.185  -2.774  23.864  0.00  0.00    -0.292 OA
BRANCH  12  14
ATOM     14  C   UNL     1       8.652  -1.286  24.857  0.00  0.00    +0.149 C 
ATOM     15  O   UNL     1       9.718  -0.402  25.244  0.00  0.00    -0.361 OA
ATOM     16  C   UNL     1       8.903  -0.905  26.308  0.00  0.00    +0.203 C 
ATOM     17  C   UNL     1       7.518  -0.601  24.156  0.00  0.00    +0.052 C 
ENDBRANCH  12  14
ENDBRANCH  11  12
BRANCH  11  18
ATOM     18  C   UNL     1       8.045  -4.757  23.467  0.00  0.00    +0.033 C 
BRANCH  18  19
ATOM     19  C   UNL     1       6.628  -4.967  22.886  0.00  0.00    -0.015 C 
ATOM     20  C   UNL     1       6.417  -6.311  22.185  0.00  0.00    +0.007 C 
ATOM     21  C   UNL     1       6.313  -3.849  21.883  0.00  0.00    +0.007 C 
ENDBRANCH  18  19
ENDBRANCH  11  18
ENDBRANCH   8  11
ENDBRANCH   6   7
BRANCH   6  22
ATOM     22  C   UNL     1       4.082  -2.961  25.305  0.00  0.00    +0.067 C 
BRANCH  22  23
ATOM     23  C   UNL     1       3.645  -4.382  25.045  0.00  0.00    -0.045 A 
ATOM     24  C   UNL     1       3.138  -4.738  23.789  0.00  0.00    +0.004 A 
ATOM     25  C   UNL     1       2.925  -6.077  23.475  0.00  0.00    +0.000 A 
ATOM     26  C   UNL     1       3.196  -7.066  24.420  0.00  0.00    +0.000 A 
ATOM     27  C   UNL     1       3.650  -6.717  25.690  0.00  0.00    +0.000 A 
ATOM     28  C   UNL     1       3.863  -5.378  26.007  0.00  0.00    +0.004 A 
ENDBRANCH  22  23
ENDBRANCH   6  22
ENDBRANCH   3   6
ENDBRANCH   1   2
BRANCH   1  29
ATOM     29  N   UNL     1       5.426   1.116  27.605  0.00  0.00    -0.302 N 
ATOM     30  H   UNL     1       5.009   0.780  26.747  0.00  0.00    +0.150 HD
ATOM     31  C   UNL     1       6.459   2.025  27.509  0.00  0.00    +0.234 C 
ATOM     32  O   UNL     1       7.135   2.410  28.457  0.00  0.00    -0.274 OA
BRANCH  31  33
ATOM     33  C   UNL     1       6.657   2.529  26.069  0.00  0.00    +0.159 C 
BRANCH  33  34
ATOM     34  N   UNL     1       5.471   3.262  25.637  0.00  0.00    -0.303 N 
ATOM     35  H   UNL     1       5.405   4.264  25.807  0.00  0.00    +0.149 HD
ATOM     36  C   UNL     1       4.536   2.675  24.818  0.00  0.00    +0.228 C 
ATOM     37  O   UNL     1       4.582   1.483  24.518  0.00  0.00    -0.274 OA
BRANCH  36  38
ATOM     38  C   UNL     1       3.386   3.562  24.340  0.00  0.00    +0.180 C 
BRANCH  38  39
ATOM     39  N   UNL     1       2.516   2.936  23.313  0.00  0.00    -0.290 NA
ATOM     40  C   UNL     1       2.912   3.425  21.963  0.00  0.00    +0.113 C 
ATOM     41  C   UNL     1       2.539   4.896  21.691  0.00  0.00    +0.175 C 
ATOM     42  O   UNL     1       1.136   5.117  21.871  0.00  0.00    -0.377 OA
ATOM     43  C   UNL     1       0.717   4.732  23.186  0.00  0.00    +0.175 C 
ATOM     44  C   UNL     1       1.080   3.267  23.486  0.00  0.00    +0.113 C 
ENDBRANCH  38  39
ENDBRANCH  36  38
ENDBRANCH  33  34
BRANCH  33  45
ATOM     45  C   UNL     1       7.926   3.381  25.912  0.00  0.00    +0.036 C 
BRANCH  45  46
ATOM     46  C   UNL     1       8.038   4.174  24.604  0.00  0.00    +0.037 C 
BRANCH  46  47
ATOM     47  C   UNL     1       8.496   3.259  23.489  0.00  0.00    -0.047 A 
ATOM     48  C   UNL     1       9.782   2.702  23.506  0.00  0.00    +0.003 A 
ATOM     49  C   UNL     1      10.158   1.760  22.546  0.00  0.00    +0.000 A 
ATOM     50  C   UNL     1       9.255   1.370  21.558  0.00  0.00    +0.000 A 
ATOM     51  C   UNL     1       7.982   1.935  21.519  0.00  0.00    +0.000 A 
ATOM     52  C   UNL     1       7.605   2.878  22.478  0.00  0.00    +0.003 A 
ENDBRANCH  46  47
ENDBRANCH  45  46
ENDBRANCH  33  45
ENDBRANCH  31  33
ENDBRANCH   1  29
BRANCH   1  53
ATOM     53  C   UNL     1       4.158   1.141  29.718  0.00  0.00    +0.034 C 
BRANCH  53  55
ATOM     54  C   UNL     1       1.698   1.533  29.215  0.00  0.00    +0.007 C 
ATOM     55  C   UNL     1       3.131   2.011  28.953  0.00  0.00    -0.015 C 
ATOM     56  C   UNL     1       3.239   3.496  29.299  0.00  0.00    +0.007 C 
ENDBRANCH  53  55
ENDBRANCH   1  53
TORSDOF 20
ENDMDL
