MODEL 1
REMARK VINA RESULT:      -4.9      0.000      0.000
REMARK  Name = 
REMARK  6 active torsions:
REMARK  status: ('A' for Active; 'I' for Inactive)
REMARK    1  A    between atoms: O_1  and  C_2
REMARK    2  A    between atoms: C_5  and  C_16
REMARK    3  A    between atoms: C_7  and  O_9
REMARK    4  A    between atoms: C_10  and  O_12
REMARK    5  A    between atoms: C_13  and  O_15
REMARK    6  A    between atoms: C_16  and  O_17
REMARK                            x       y       z     vdW  Elec       q    Type
REMARK                         _______ _______ _______ _____ _____    ______ ____
ROOT
ATOM      1  C   UNL     1      10.154   1.605  23.924  0.00  0.00    +0.280 C 
ATOM      2  C   UNL     1       9.381   2.123  22.688  0.00  0.00    +0.201 C 
ATOM      3  C   UNL     1       8.199   1.184  22.371  0.00  0.00    +0.179 C 
ATOM      4  C   UNL     1       8.664  -0.279  22.300  0.00  0.00    +0.185 C 
ATOM      5  C   UNL     1       9.416  -0.635  23.590  0.00  0.00    +0.260 C 
ATOM      6  O   UNL     1      10.545   0.235  23.808  0.00  0.00    -0.332 OA
ENDROOT
BRANCH   1   7
ATOM      7  O   UNL     1       9.347   1.753  25.087  0.00  0.00    -0.365 OA
ATOM      8  H   UNL     1       9.962   2.003  25.801  0.00  0.00    +0.213 HD
ENDBRANCH   1   7
BRANCH   2   9
ATOM      9  O   UNL     1      10.263   2.277  21.571  0.00  0.00    -0.384 OA
ATOM     10  H   UNL     1      11.118   2.619  21.905  0.00  0.00    +0.210 HD
ENDBRANCH   2   9
BRANCH   3  11
ATOM     11  O   UNL     1       7.151   1.313  23.337  0.00  0.00    -0.386 OA
ATOM     12  H   UNL     1       6.305   1.453  22.862  0.00  0.00    +0.210 HD
ENDBRANCH   3  11
BRANCH   4  13
ATOM     13  O   UNL     1       9.516  -0.412  21.145  0.00  0.00    -0.386 OA
ATOM     14  H   UNL     1       9.931   0.463  20.997  0.00  0.00    +0.210 HD
ENDBRANCH   4  13
BRANCH   5  15
ATOM     15  C   UNL     1       9.918  -2.072  23.518  0.00  0.00    +0.337 C 
ATOM     16  O   UNL     1       9.482  -2.997  24.196  0.00  0.00    -0.248 OA
BRANCH  15  17
ATOM     17  O   UNL     1      10.897  -2.233  22.593  0.00  0.00    -0.479 OA
ATOM     18  H   UNL     1      10.876  -1.453  21.990  0.00  0.00    +0.295 HD
ENDBRANCH  15  17
ENDBRANCH   5  15
TORSDOF 6
ENDMDL
MODEL 2
REMARK VINA RESULT:      -4.9      1.375      2.869
REMARK  Name = 
REMARK  6 active torsions:
REMARK  status: ('A' for Active; 'I' for Inactive)
REMARK    1  A    between atoms: O_1  and  C_2
REMARK    2  A    between atoms: C_5  and  C_16
REMARK    3  A    between atoms: C_7  and  O_9
REMARK    4  A    between atoms: C_10  and  O_12
REMARK    5  A    between atoms: C_13  and  O_15
REMARK    6  A    between atoms: C_16  and  O_17
REMARK                            x       y       z     vdW  Elec       q    Type
REMARK                         _______ _______ _______ _____ _____    ______ ____
ROOT
ATOM      1  C   UNL     1       8.224   2.114  22.950  0.00  0.00    +0.280 C 
ATOM      2  C   UNL     1       9.007   2.940  23.997  0.00  0.00    +0.201 C 
ATOM      3  C   UNL     1      10.516   2.635  23.893  0.00  0.00    +0.179 C 
ATOM      4  C   UNL     1      10.771   1.119  23.914  0.00  0.00    +0.185 C 
ATOM      5  C   UNL     1       9.921   0.448  22.828  0.00  0.00    +0.260 C 
ATOM      6  O   UNL     1       8.516   0.716  23.006  0.00  0.00    -0.332 OA
ENDROOT
BRANCH   1   7
ATOM      7  O   UNL     1       8.526   2.592  21.643  0.00  0.00    -0.365 OA
ATOM      8  H   UNL     1       9.344   3.114  21.739  0.00  0.00    +0.213 HD
ENDBRANCH   1   7
BRANCH   2   9
ATOM      9  O   UNL     1       8.497   2.698  25.313  0.00  0.00    -0.384 OA
ATOM     10  H   UNL     1       8.241   3.560  25.702  0.00  0.00    +0.210 HD
ENDBRANCH   2   9
BRANCH   3  11
ATOM     11  O   UNL     1      11.088   3.207  22.712  0.00  0.00    -0.386 OA
ATOM     12  H   UNL     1      10.366   3.399  22.078  0.00  0.00    +0.210 HD
ENDBRANCH   3  11
BRANCH   4  13
ATOM     13  O   UNL     1      10.422   0.635  25.226  0.00  0.00    -0.386 OA
ATOM     14  H   UNL     1      10.510   1.393  25.841  0.00  0.00    +0.210 HD
ENDBRANCH   4  13
BRANCH   5  15
ATOM     15  C   UNL     1      10.134  -1.062  22.862  0.00  0.00    +0.337 C 
ATOM     16  O   UNL     1      10.087  -1.749  23.878  0.00  0.00    -0.248 OA
BRANCH  15  17
ATOM     17  O   UNL     1      10.362  -1.581  21.630  0.00  0.00    -0.479 OA
ATOM     18  H   UNL     1      10.922  -0.941  21.130  0.00  0.00    +0.295 HD
ENDBRANCH  15  17
ENDBRANCH   5  15
TORSDOF 6
ENDMDL
MODEL 3
REMARK VINA RESULT:      -4.8      4.769      6.039
REMARK  Name = 
REMARK  6 active torsions:
REMARK  status: ('A' for Active; 'I' for Inactive)
REMARK    1  A    between atoms: O_1  and  C_2
REMARK    2  A    between atoms: C_5  and  C_16
REMARK    3  A    between atoms: C_7  and  O_9
REMARK    4  A    between atoms: C_10  and  O_12
REMARK    5  A    between atoms: C_13  and  O_15
REMARK    6  A    between atoms: C_16  and  O_17
REMARK                            x       y       z     vdW  Elec       q    Type
REMARK                         _______ _______ _______ _____ _____    ______ ____
ROOT
ATOM      1  C   UNL     1       9.595  -4.044  24.985  0.00  0.00    +0.280 C 
ATOM      2  C   UNL     1       8.719  -3.743  26.224  0.00  0.00    +0.201 C 
ATOM      3  C   UNL     1       7.595  -4.792  26.346  0.00  0.00    +0.179 C 
ATOM      4  C   UNL     1       6.838  -4.942  25.016  0.00  0.00    +0.185 C 
ATOM      5  C   UNL     1       7.842  -5.230  23.892  0.00  0.00    +0.260 C 
ATOM      6  O   UNL     1       8.835  -4.191  23.783  0.00  0.00    -0.332 OA
ENDROOT
BRANCH   1   7
ATOM      7  O   UNL     1      10.336  -5.240  25.204  0.00  0.00    -0.365 OA
ATOM      8  H   UNL     1      11.173  -5.120  24.719  0.00  0.00    +0.213 HD
ENDBRANCH   1   7
BRANCH   2   9
ATOM      9  O   UNL     1       8.208  -2.407  26.166  0.00  0.00    -0.384 OA
ATOM     10  H   UNL     1       8.970  -1.792  26.121  0.00  0.00    +0.210 HD
ENDBRANCH   2   9
BRANCH   3  11
ATOM     11  O   UNL     1       8.104  -6.064  26.760  0.00  0.00    -0.386 OA
ATOM     12  H   UNL     1       7.387  -6.554  27.212  0.00  0.00    +0.210 HD
ENDBRANCH   3  11
BRANCH   4  13
ATOM     13  O   UNL     1       6.124  -3.712  24.778  0.00  0.00    -0.386 OA
ATOM     14  H   UNL     1       6.379  -3.405  23.884  0.00  0.00    +0.210 HD
ENDBRANCH   4  13
BRANCH   5  15
ATOM     15  C   UNL     1       7.109  -5.342  22.560  0.00  0.00    +0.337 C 
ATOM     16  O   UNL     1       6.709  -6.395  22.072  0.00  0.00    -0.248 OA
BRANCH  15  17
ATOM     17  O   UNL     1       6.920  -4.136  21.969  0.00  0.00    -0.479 OA
ATOM     18  H   UNL     1       6.459  -3.551  22.614  0.00  0.00    +0.295 HD
ENDBRANCH  15  17
ENDBRANCH   5  15
TORSDOF 6
ENDMDL
MODEL 4
REMARK VINA RESULT:      -4.7      1.717      4.090
REMARK  Name = 
REMARK  6 active torsions:
REMARK  status: ('A' for Active; 'I' for Inactive)
REMARK    1  A    between atoms: O_1  and  C_2
REMARK    2  A    between atoms: C_5  and  C_16
REMARK    3  A    between atoms: C_7  and  O_9
REMARK    4  A    between atoms: C_10  and  O_12
REMARK    5  A    between atoms: C_13  and  O_15
REMARK    6  A    between atoms: C_16  and  O_17
REMARK                            x       y       z     vdW  Elec       q    Type
REMARK                         _______ _______ _______ _____ _____    ______ ____
ROOT
ATOM      1  C   UNL     1       8.767   1.169  24.805  0.00  0.00    +0.280 C 
ATOM      2  C   UNL     1       8.396   0.349  23.547  0.00  0.00    +0.201 C 
ATOM      3  C   UNL     1       9.589   0.310  22.570  0.00  0.00    +0.179 C 
ATOM      4  C   UNL     1      10.130   1.725  22.307  0.00  0.00    +0.185 C 
ATOM      5  C   UNL     1      10.442   2.404  23.648  0.00  0.00    +0.260 C 
ATOM      6  O   UNL     1       9.280   2.467  24.499  0.00  0.00    -0.332 OA
ENDROOT
BRANCH   1   7
ATOM      7  O   UNL     1       9.740   0.461  25.566  0.00  0.00    -0.365 OA
ATOM      8  H   UNL     1      10.406   1.126  25.821  0.00  0.00    +0.213 HD
ENDBRANCH   1   7
BRANCH   2   9
ATOM      9  O   UNL     1       7.213   0.875  22.935  0.00  0.00    -0.384 OA
ATOM     10  H   UNL     1       6.537   0.166  22.923  0.00  0.00    +0.210 HD
ENDBRANCH   2   9
BRANCH   3  11
ATOM     11  O   UNL     1      10.641  -0.529  23.057  0.00  0.00    -0.386 OA
ATOM     12  H   UNL     1      10.368  -1.464  22.950  0.00  0.00    +0.210 HD
ENDBRANCH   3  11
BRANCH   4  13
ATOM     13  O   UNL     1       9.122   2.450  21.576  0.00  0.00    -0.386 OA
ATOM     14  H   UNL     1       8.646   1.795  21.024  0.00  0.00    +0.210 HD
ENDBRANCH   4  13
BRANCH   5  15
ATOM     15  C   UNL     1      10.943   3.823  23.405  0.00  0.00    +0.337 C 
ATOM     16  O   UNL     1      12.126   4.141  23.329  0.00  0.00    -0.248 OA
BRANCH  15  17
ATOM     17  O   UNL     1       9.929   4.712  23.255  0.00  0.00    -0.479 OA
ATOM     18  H   UNL     1      10.262   5.462  22.710  0.00  0.00    +0.295 HD
ENDBRANCH  15  17
ENDBRANCH   5  15
TORSDOF 6
ENDMDL
MODEL 5
REMARK VINA RESULT:      -4.7      1.546      4.121
REMARK  Name = 
REMARK  6 active torsions:
REMARK  status: ('A' for Active; 'I' for Inactive)
REMARK    1  A    between atoms: O_1  and  C_2
REMARK    2  A    between atoms: C_5  and  C_16
REMARK    3  A    between atoms: C_7  and  O_9
REMARK    4  A    between atoms: C_10  and  O_12
REMARK    5  A    between atoms: C_13  and  O_15
REMARK    6  A    between atoms: C_16  and  O_17
REMARK                            x       y       z     vdW  Elec       q    Type
REMARK                         _______ _______ _______ _____ _____    ______ ____
ROOT
ATOM      1  C   UNL     1       8.216  -0.382  23.029  0.00  0.00    +0.280 C 
ATOM      2  C   UNL     1       9.757  -0.481  22.949  0.00  0.00    +0.201 C 
ATOM      3  C   UNL     1      10.401   0.790  23.542  0.00  0.00    +0.179 C 
ATOM      4  C   UNL     1       9.783   2.056  22.927  0.00  0.00    +0.185 C 
ATOM      5  C   UNL     1       8.257   1.999  23.079  0.00  0.00    +0.260 C 
ATOM      6  O   UNL     1       7.701   0.823  22.458  0.00  0.00    -0.332 OA
ENDROOT
BRANCH   1   7
ATOM      7  O   UNL     1       7.803  -0.456  24.389  0.00  0.00    -0.365 OA
ATOM      8  H   UNL     1       6.872  -0.164  24.395  0.00  0.00    +0.213 HD
ENDBRANCH   1   7
BRANCH   2   9
ATOM      9  O   UNL     1      10.178  -0.721  21.602  0.00  0.00    -0.384 OA
ATOM     10  H   UNL     1       9.496  -0.355  21.002  0.00  0.00    +0.210 HD
ENDBRANCH   2   9
BRANCH   3  11
ATOM     11  O   UNL     1      10.272   0.830  24.967  0.00  0.00    -0.386 OA
ATOM     12  H   UNL     1       9.670   1.565  25.204  0.00  0.00    +0.210 HD
ENDBRANCH   3  11
BRANCH   4  13
ATOM     13  O   UNL     1      10.169   2.101  21.539  0.00  0.00    -0.386 OA
ATOM     14  H   UNL     1      10.580   2.978  21.387  0.00  0.00    +0.210 HD
ENDBRANCH   4  13
BRANCH   5  15
ATOM     15  C   UNL     1       7.626   3.230  22.439  0.00  0.00    +0.337 C 
ATOM     16  O   UNL     1       6.515   3.253  21.918  0.00  0.00    -0.248 OA
BRANCH  15  17
ATOM     17  O   UNL     1       8.423   4.325  22.525  0.00  0.00    -0.479 OA
ATOM     18  H   UNL     1       8.913   4.276  23.379  0.00  0.00    +0.295 HD
ENDBRANCH  15  17
ENDBRANCH   5  15
TORSDOF 6
ENDMDL
MODEL 6
REMARK VINA RESULT:      -4.7      1.326      2.490
REMARK  Name = 
REMARK  6 active torsions:
REMARK  status: ('A' for Active; 'I' for Inactive)
REMARK    1  A    between atoms: O_1  and  C_2
REMARK    2  A    between atoms: C_5  and  C_16
REMARK    3  A    between atoms: C_7  and  O_9
REMARK    4  A    between atoms: C_10  and  O_12
REMARK    5  A    between atoms: C_13  and  O_15
REMARK    6  A    between atoms: C_16  and  O_17
REMARK                            x       y       z     vdW  Elec       q    Type
REMARK                         _______ _______ _______ _____ _____    ______ ____
ROOT
ATOM      1  C   UNL     1       8.408   1.604  21.622  0.00  0.00    +0.280 C 
ATOM      2  C   UNL     1       7.441   1.953  22.778  0.00  0.00    +0.201 C 
ATOM      3  C   UNL     1       8.088   1.601  24.134  0.00  0.00    +0.179 C 
ATOM      4  C   UNL     1       8.627   0.161  24.127  0.00  0.00    +0.185 C 
ATOM      5  C   UNL     1       9.559  -0.025  22.923  0.00  0.00    +0.260 C 
ATOM      6  O   UNL     1       8.889   0.259  21.679  0.00  0.00    -0.332 OA
ENDROOT
BRANCH   1   7
ATOM      7  O   UNL     1       9.522   2.489  21.649  0.00  0.00    -0.365 OA
ATOM      8  H   UNL     1      10.159   2.126  21.006  0.00  0.00    +0.213 HD
ENDBRANCH   1   7
BRANCH   2   9
ATOM      9  O   UNL     1       6.181   1.298  22.595  0.00  0.00    -0.384 OA
ATOM     10  H   UNL     1       5.686   1.352  23.439  0.00  0.00    +0.210 HD
ENDBRANCH   2   9
BRANCH   3  11
ATOM     11  O   UNL     1       9.141   2.511  24.466  0.00  0.00    -0.386 OA
ATOM     12  H   UNL     1       9.835   2.450  23.777  0.00  0.00    +0.210 HD
ENDBRANCH   3  11
BRANCH   4  13
ATOM     13  O   UNL     1       7.495  -0.729  24.055  0.00  0.00    -0.386 OA
ATOM     14  H   UNL     1       6.986  -0.608  24.884  0.00  0.00    +0.210 HD
ENDBRANCH   4  13
BRANCH   5  15
ATOM     15  C   UNL     1      10.071  -1.461  22.881  0.00  0.00    +0.337 C 
ATOM     16  O   UNL     1      10.081  -2.225  23.841  0.00  0.00    -0.248 OA
BRANCH  15  17
ATOM     17  O   UNL     1      10.499  -1.822  21.645  0.00  0.00    -0.479 OA
ATOM     18  H   UNL     1       9.844  -1.489  20.988  0.00  0.00    +0.295 HD
ENDBRANCH  15  17
ENDBRANCH   5  15
TORSDOF 6
ENDMDL
MODEL 7
REMARK VINA RESULT:      -4.7      1.337      2.525
REMARK  Name = 
REMARK  6 active torsions:
REMARK  status: ('A' for Active; 'I' for Inactive)
REMARK    1  A    between atoms: O_1  and  C_2
REMARK    2  A    between atoms: C_5  and  C_16
REMARK    3  A    between atoms: C_7  and  O_9
REMARK    4  A    between atoms: C_10  and  O_12
REMARK    5  A    between atoms: C_13  and  O_15
REMARK    6  A    between atoms: C_16  and  O_17
REMARK                            x       y       z     vdW  Elec       q    Type
REMARK                         _______ _______ _______ _____ _____    ______ ____
ROOT
ATOM      1  C   UNL     1       7.183   1.073  23.690  0.00  0.00    +0.280 C 
ATOM      2  C   UNL     1       8.281   2.132  23.943  0.00  0.00    +0.201 C 
ATOM      3  C   UNL     1       9.303   2.121  22.787  0.00  0.00    +0.179 C 
ATOM      4  C   UNL     1       9.804   0.694  22.511  0.00  0.00    +0.185 C 
ATOM      5  C   UNL     1       8.600  -0.231  22.290  0.00  0.00    +0.260 C 
ATOM      6  O   UNL     1       7.709  -0.228  23.423  0.00  0.00    -0.332 OA
ENDROOT
BRANCH   1   7
ATOM      7  O   UNL     1       6.377   1.476  22.588  0.00  0.00    -0.365 OA
ATOM      8  H   UNL     1       6.091   0.649  22.158  0.00  0.00    +0.213 HD
ENDBRANCH   1   7
BRANCH   2   9
ATOM      9  O   UNL     1       8.903   1.920  25.215  0.00  0.00    -0.384 OA
ATOM     10  H   UNL     1       9.468   2.696  25.409  0.00  0.00    +0.210 HD
ENDBRANCH   2   9
BRANCH   3  11
ATOM     11  O   UNL     1       8.751   2.681  21.591  0.00  0.00    -0.386 OA
ATOM     12  H   UNL     1       9.353   2.479  20.846  0.00  0.00    +0.210 HD
ENDBRANCH   3  11
BRANCH   4  13
ATOM     13  O   UNL     1      10.583   0.277  23.650  0.00  0.00    -0.386 OA
ATOM     14  H   UNL     1      10.070  -0.425  24.102  0.00  0.00    +0.210 HD
ENDBRANCH   4  13
BRANCH   5  15
ATOM     15  C   UNL     1       9.081  -1.658  22.054  0.00  0.00    +0.337 C 
ATOM     16  O   UNL     1       8.406  -2.663  22.257  0.00  0.00    -0.248 OA
BRANCH  15  17
ATOM     17  O   UNL     1      10.345  -1.705  21.565  0.00  0.00    -0.479 OA
ATOM     18  H   UNL     1      10.396  -1.088  20.798  0.00  0.00    +0.295 HD
ENDBRANCH  15  17
ENDBRANCH   5  15
TORSDOF 6
ENDMDL
MODEL 8
REMARK VINA RESULT:      -4.6      1.880      3.572
REMARK  Name = 
REMARK  6 active torsions:
REMARK  status: ('A' for Active; 'I' for Inactive)
REMARK    1  A    between atoms: O_1  and  C_2
REMARK    2  A    between atoms: C_5  and  C_16
REMARK    3  A    between atoms: C_7  and  O_9
REMARK    4  A    between atoms: C_10  and  O_12
REMARK    5  A    between atoms: C_13  and  O_15
REMARK    6  A    between atoms: C_16  and  O_17
REMARK                            x       y       z     vdW  Elec       q    Type
REMARK                         _______ _______ _______ _____ _____    ______ ____
ROOT
ATOM      1  C   UNL     1       8.845  -1.667  22.087  0.00  0.00    +0.280 C 
ATOM      2  C   UNL     1       8.469  -0.409  22.904  0.00  0.00    +0.201 C 
ATOM      3  C   UNL     1       9.187  -0.430  24.269  0.00  0.00    +0.179 C 
ATOM      4  C   UNL     1       8.972  -1.775  24.981  0.00  0.00    +0.185 C 
ATOM      5  C   UNL     1       9.382  -2.916  24.042  0.00  0.00    +0.260 C 
ATOM      6  O   UNL     1       8.641  -2.885  22.806  0.00  0.00    -0.332 OA
ENDROOT
BRANCH   1   7
ATOM      7  O   UNL     1      10.212  -1.591  21.696  0.00  0.00    -0.365 OA
ATOM      8  H   UNL     1      10.250  -1.982  20.804  0.00  0.00    +0.213 HD
ENDBRANCH   1   7
BRANCH   2   9
ATOM      9  O   UNL     1       7.048  -0.304  23.042  0.00  0.00    -0.384 OA
ATOM     10  H   UNL     1       6.821   0.645  23.129  0.00  0.00    +0.210 HD
ENDBRANCH   2   9
BRANCH   3  11
ATOM     11  O   UNL     1      10.588  -0.173  24.131  0.00  0.00    -0.386 OA
ATOM     12  H   UNL     1      10.949   0.067  25.010  0.00  0.00    +0.210 HD
ENDBRANCH   3  11
BRANCH   4  13
ATOM     13  O   UNL     1       7.578  -1.865  25.335  0.00  0.00    -0.386 OA
ATOM     14  H   UNL     1       7.369  -1.070  25.869  0.00  0.00    +0.210 HD
ENDBRANCH   4  13
BRANCH   5  15
ATOM     15  C   UNL     1       9.138  -4.259  24.720  0.00  0.00    +0.337 C 
ATOM     16  O   UNL     1       8.035  -4.678  25.058  0.00  0.00    -0.248 OA
BRANCH  15  17
ATOM     17  O   UNL     1      10.281  -4.968  24.894  0.00  0.00    -0.479 OA
ATOM     18  H   UNL     1      10.033  -5.892  25.130  0.00  0.00    +0.295 HD
ENDBRANCH  15  17
ENDBRANCH   5  15
TORSDOF 6
ENDMDL
MODEL 9
REMARK VINA RESULT:      -4.6      2.785      5.585
REMARK  Name = 
REMARK  6 active torsions:
REMARK  status: ('A' for Active; 'I' for Inactive)
REMARK    1  A    between atoms: O_1  and  C_2
REMARK    2  A    between atoms: C_5  and  C_16
REMARK    3  A    between atoms: C_7  and  O_9
REMARK    4  A    between atoms: C_10  and  O_12
REMARK    5  A    between atoms: C_13  and  O_15
REMARK    6  A    between atoms: C_16  and  O_17
REMARK                            x       y       z     vdW  Elec       q    Type
REMARK                         _______ _______ _______ _____ _____    ______ ____
ROOT
ATOM      1  C   UNL     1       9.069  -5.310  24.744  0.00  0.00    +0.280 C 
ATOM      2  C   UNL     1       7.993  -5.106  25.837  0.00  0.00    +0.201 C 
ATOM      3  C   UNL     1       7.117  -3.883  25.495  0.00  0.00    +0.179 C 
ATOM      4  C   UNL     1       7.987  -2.655  25.180  0.00  0.00    +0.185 C 
ATOM      5  C   UNL     1       9.002  -3.021  24.089  0.00  0.00    +0.260 C 
ATOM      6  O   UNL     1       9.833  -4.131  24.482  0.00  0.00    -0.332 OA
ENDROOT
BRANCH   1   7
ATOM      7  O   UNL     1       8.446  -5.729  23.534  0.00  0.00    -0.365 OA
ATOM      8  H   UNL     1       9.157  -6.132  23.002  0.00  0.00    +0.213 HD
ENDBRANCH   1   7
BRANCH   2   9
ATOM      9  O   UNL     1       8.602  -4.991  27.127  0.00  0.00    -0.384 OA
ATOM     10  H   UNL     1       8.195  -4.227  27.587  0.00  0.00    +0.210 HD
ENDBRANCH   2   9
BRANCH   3  11
ATOM     11  O   UNL     1       6.242  -4.153  24.395  0.00  0.00    -0.386 OA
ATOM     12  H   UNL     1       6.555  -4.962  23.940  0.00  0.00    +0.210 HD
ENDBRANCH   3  11
BRANCH   4  13
ATOM     13  O   UNL     1       8.648  -2.263  26.399  0.00  0.00    -0.386 OA
ATOM     14  H   UNL     1       8.655  -3.050  26.984  0.00  0.00    +0.210 HD
ENDBRANCH   4  13
BRANCH   5  15
ATOM     15  C   UNL     1       9.899  -1.824  23.793  0.00  0.00    +0.337 C 
ATOM     16  O   UNL     1      10.034  -0.855  24.534  0.00  0.00    -0.248 OA
BRANCH  15  17
ATOM     17  O   UNL     1      10.562  -1.952  22.617  0.00  0.00    -0.479 OA
ATOM     18  H   UNL     1      10.182  -2.725  22.137  0.00  0.00    +0.295 HD
ENDBRANCH  15  17
ENDBRANCH   5  15
TORSDOF 6
ENDMDL
