MODEL 1
REMARK VINA RESULT:      -6.1      0.000      0.000
REMARK  Name = 
REMARK  6 active torsions:
REMARK  status: ('A' for Active; 'I' for Inactive)
REMARK    1  A    between atoms: C_1  and  C_2
REMARK    2  A    between atoms: C_2  and  C_3
REMARK    3  A    between atoms: C_2  and  C_4
REMARK    4  A    between atoms: C_5  and  O_6
REMARK    5  A    between atoms: O_6  and  C_7
REMARK    6  A    between atoms: C_8  and  C_9
REMARK                            x       y       z     vdW  Elec       q    Type
REMARK                         _______ _______ _______ _____ _____    ______ ____
ROOT
ATOM      1  C   UNL     1       6.778  -1.592  25.187  0.00  0.00    +0.063 A 
ATOM      2  C   UNL     1       5.283  -1.687  25.313  0.00  0.00    +0.256 A 
ATOM      3  O   UNL     1       4.622  -0.857  25.934  0.00  0.00    -0.267 OA
ATOM      4  N   UNL     1       4.652  -2.744  24.738  0.00  0.00    -0.322 N 
ATOM      5  H   UNL     1       3.653  -2.781  24.888  0.00  0.00    +0.169 HD
ATOM      6  C   UNL     1       5.287  -3.693  23.948  0.00  0.00    +0.053 A 
ATOM      7  C   UNL     1       6.667  -3.579  23.715  0.00  0.00    +0.045 A 
ATOM      8  C   UNL     1       7.259  -4.548  22.888  0.00  0.00    +0.052 A 
ATOM      9  C   UNL     1       6.486  -5.568  22.333  0.00  0.00    +0.124 A 
ATOM     10  C   UNL     1       5.124  -5.670  22.581  0.00  0.00    +0.040 A 
ATOM     11  F   UNL     1       7.068  -6.480  21.539  0.00  0.00    -0.205 F 
ATOM     12  C   UNL     1       4.516  -4.721  23.400  0.00  0.00    +0.029 A 
ATOM     13  C   UNL     1       7.415  -2.470  24.365  0.00  0.00    +0.159 A 
ENDROOT
BRANCH   1  15
ATOM     14  C   UNL     1       8.582  -0.826  26.924  0.00  0.00    +0.012 C 
ATOM     15  C   UNL     1       7.359  -0.486  26.069  0.00  0.00    +0.022 C 
ATOM     16  C   UNL     1       7.590   0.796  25.263  0.00  0.00    +0.012 C 
ENDBRANCH   1  15
BRANCH  13  17
ATOM     17  O   UNL     1       8.793  -2.498  24.177  0.00  0.00    -0.405 OA
BRANCH  17  18
ATOM     18  C   UNL     1       9.200  -1.594  23.272  0.00  0.00    +0.117 C 
ATOM     19  C   UNL     1       9.562  -0.740  22.508  0.00  0.00    -0.056 C 
BRANCH  19  20
ATOM     20  C   UNL     1       9.803   0.361  21.625  0.00  0.00    +0.067 C 
ATOM     21  C   UNL     1      10.021   1.791  22.048  0.00  0.00    +0.017 C 
ATOM     22  C   UNL     1       8.686   1.373  21.514  0.00  0.00    +0.017 C 
ENDBRANCH  19  20
ENDBRANCH  17  18
ENDBRANCH  13  17
TORSDOF 4
ENDMDL
MODEL 2
REMARK VINA RESULT:      -5.9      1.934      2.471
REMARK  Name = 
REMARK  6 active torsions:
REMARK  status: ('A' for Active; 'I' for Inactive)
REMARK    1  A    between atoms: C_1  and  C_2
REMARK    2  A    between atoms: C_2  and  C_3
REMARK    3  A    between atoms: C_2  and  C_4
REMARK    4  A    between atoms: C_5  and  O_6
REMARK    5  A    between atoms: O_6  and  C_7
REMARK    6  A    between atoms: C_8  and  C_9
REMARK                            x       y       z     vdW  Elec       q    Type
REMARK                         _______ _______ _______ _____ _____    ______ ____
ROOT
ATOM      1  C   UNL     1       7.467  -2.673  25.517  0.00  0.00    +0.063 A 
ATOM      2  C   UNL     1       8.136  -3.972  25.873  0.00  0.00    +0.256 A 
ATOM      3  O   UNL     1       8.644  -4.168  26.975  0.00  0.00    -0.267 OA
ATOM      4  N   UNL     1       8.197  -4.947  24.929  0.00  0.00    -0.322 N 
ATOM      5  H   UNL     1       8.694  -5.783  25.206  0.00  0.00    +0.169 HD
ATOM      6  C   UNL     1       7.589  -4.863  23.684  0.00  0.00    +0.053 A 
ATOM      7  C   UNL     1       6.861  -3.709  23.352  0.00  0.00    +0.045 A 
ATOM      8  C   UNL     1       6.242  -3.683  22.092  0.00  0.00    +0.052 A 
ATOM      9  C   UNL     1       6.359  -4.771  21.226  0.00  0.00    +0.124 A 
ATOM     10  C   UNL     1       7.090  -5.900  21.567  0.00  0.00    +0.040 A 
ATOM     11  F   UNL     1       5.754  -4.730  20.029  0.00  0.00    -0.205 F 
ATOM     12  C   UNL     1       7.715  -5.947  22.811  0.00  0.00    +0.029 A 
ATOM     13  C   UNL     1       6.807  -2.590  24.330  0.00  0.00    +0.159 A 
ENDROOT
BRANCH   1  15
ATOM     14  C   UNL     1       8.760  -0.553  26.349  0.00  0.00    +0.012 C 
ATOM     15  C   UNL     1       7.677  -1.607  26.592  0.00  0.00    +0.022 C 
ATOM     16  C   UNL     1       6.348  -0.950  26.982  0.00  0.00    +0.012 C 
ENDBRANCH   1  15
BRANCH  13  17
ATOM     17  O   UNL     1       6.165  -1.442  23.877  0.00  0.00    -0.405 OA
BRANCH  17  18
ATOM     18  C   UNL     1       7.008  -0.599  23.259  0.00  0.00    +0.117 C 
ATOM     19  C   UNL     1       7.722   0.157  22.657  0.00  0.00    -0.056 C 
BRANCH  19  20
ATOM     20  C   UNL     1       8.598   0.901  21.803  0.00  0.00    +0.067 C 
ATOM     21  C   UNL     1      10.043   1.215  22.092  0.00  0.00    +0.017 C 
ATOM     22  C   UNL     1       9.000   2.269  22.304  0.00  0.00    +0.017 C 
ENDBRANCH  19  20
ENDBRANCH  17  18
ENDBRANCH  13  17
TORSDOF 4
ENDMDL
MODEL 3
REMARK VINA RESULT:      -5.8      3.345      5.861
REMARK  Name = 
REMARK  6 active torsions:
REMARK  status: ('A' for Active; 'I' for Inactive)
REMARK    1  A    between atoms: C_1  and  C_2
REMARK    2  A    between atoms: C_2  and  C_3
REMARK    3  A    between atoms: C_2  and  C_4
REMARK    4  A    between atoms: C_5  and  O_6
REMARK    5  A    between atoms: O_6  and  C_7
REMARK    6  A    between atoms: C_8  and  C_9
REMARK                            x       y       z     vdW  Elec       q    Type
REMARK                         _______ _______ _______ _____ _____    ______ ____
ROOT
ATOM      1  C   UNL     1       8.442  -2.768  24.227  0.00  0.00    +0.063 A 
ATOM      2  C   UNL     1       8.124  -2.812  22.758  0.00  0.00    +0.256 A 
ATOM      3  O   UNL     1       7.540  -3.762  22.241  0.00  0.00    -0.267 OA
ATOM      4  N   UNL     1       8.521  -1.772  21.980  0.00  0.00    -0.322 N 
ATOM      5  H   UNL     1       8.320  -1.872  20.994  0.00  0.00    +0.169 HD
ATOM      6  C   UNL     1       9.114  -0.616  22.470  0.00  0.00    +0.053 A 
ATOM      7  C   UNL     1       9.330  -0.488  23.851  0.00  0.00    +0.045 A 
ATOM      8  C   UNL     1       9.908   0.710  24.301  0.00  0.00    +0.052 A 
ATOM      9  C   UNL     1      10.242   1.715  23.393  0.00  0.00    +0.124 A 
ATOM     10  C   UNL     1      10.029   1.569  22.029  0.00  0.00    +0.040 A 
ATOM     11  F   UNL     1      10.786   2.857  23.842  0.00  0.00    -0.205 F 
ATOM     12  C   UNL     1       9.459   0.387  21.561  0.00  0.00    +0.029 A 
ATOM     13  C   UNL     1       8.961  -1.621  24.742  0.00  0.00    +0.159 A 
ENDROOT
BRANCH   1  15
ATOM     14  C   UNL     1       9.289  -4.811  25.630  0.00  0.00    +0.012 C 
ATOM     15  C   UNL     1       8.137  -4.097  24.920  0.00  0.00    +0.022 C 
ATOM     16  C   UNL     1       6.918  -3.970  25.840  0.00  0.00    +0.012 C 
ENDBRANCH   1  15
BRANCH  13  17
ATOM     17  O   UNL     1       9.315  -1.459  26.077  0.00  0.00    -0.405 OA
BRANCH  17  18
ATOM     18  C   UNL     1       8.406  -0.745  26.760  0.00  0.00    +0.117 C 
ATOM     19  C   UNL     1       7.565  -0.090  27.315  0.00  0.00    -0.056 C 
BRANCH  19  20
ATOM     20  C   UNL     1       6.653   0.856  27.884  0.00  0.00    +0.067 C 
ATOM     21  C   UNL     1       6.868   2.345  27.955  0.00  0.00    +0.017 C 
ATOM     22  C   UNL     1       7.098   1.506  29.174  0.00  0.00    +0.017 C 
ENDBRANCH  19  20
ENDBRANCH  17  18
ENDBRANCH  13  17
TORSDOF 4
ENDMDL
MODEL 4
REMARK VINA RESULT:      -5.8      2.868      6.076
REMARK  Name = 
REMARK  6 active torsions:
REMARK  status: ('A' for Active; 'I' for Inactive)
REMARK    1  A    between atoms: C_1  and  C_2
REMARK    2  A    between atoms: C_2  and  C_3
REMARK    3  A    between atoms: C_2  and  C_4
REMARK    4  A    between atoms: C_5  and  O_6
REMARK    5  A    between atoms: O_6  and  C_7
REMARK    6  A    between atoms: C_8  and  C_9
REMARK                            x       y       z     vdW  Elec       q    Type
REMARK                         _______ _______ _______ _____ _____    ______ ____
ROOT
ATOM      1  C   UNL     1       8.677  -2.198  24.100  0.00  0.00    +0.063 A 
ATOM      2  C   UNL     1       9.883  -1.905  23.251  0.00  0.00    +0.256 A 
ATOM      3  O   UNL     1      10.839  -2.676  23.182  0.00  0.00    -0.267 OA
ATOM      4  N   UNL     1       9.919  -0.737  22.560  0.00  0.00    -0.322 N 
ATOM      5  H   UNL     1      10.770  -0.571  22.040  0.00  0.00    +0.169 HD
ATOM      6  C   UNL     1       8.865   0.165  22.503  0.00  0.00    +0.053 A 
ATOM      7  C   UNL     1       7.677  -0.122  23.194  0.00  0.00    +0.045 A 
ATOM      8  C   UNL     1       6.631   0.808  23.084  0.00  0.00    +0.052 A 
ATOM      9  C   UNL     1       6.790   1.959  22.312  0.00  0.00    +0.124 A 
ATOM     10  C   UNL     1       7.975   2.232  21.642  0.00  0.00    +0.040 A 
ATOM     11  F   UNL     1       5.776   2.833  22.212  0.00  0.00    -0.205 F 
ATOM     12  C   UNL     1       9.027   1.325  21.740  0.00  0.00    +0.029 A 
ATOM     13  C   UNL     1       7.605  -1.364  24.009  0.00  0.00    +0.159 A 
ENDROOT
BRANCH   1  15
ATOM     14  C   UNL     1       8.439  -3.338  26.446  0.00  0.00    +0.012 C 
ATOM     15  C   UNL     1       8.882  -3.429  24.983  0.00  0.00    +0.022 C 
ATOM     16  C   UNL     1       8.316  -4.687  24.315  0.00  0.00    +0.012 C 
ENDBRANCH   1  15
BRANCH  13  17
ATOM     17  O   UNL     1       6.439  -1.514  24.752  0.00  0.00    -0.405 OA
BRANCH  17  18
ATOM     18  C   UNL     1       5.642  -2.475  24.259  0.00  0.00    +0.117 C 
ATOM     19  C   UNL     1       4.972  -3.379  23.837  0.00  0.00    -0.056 C 
BRANCH  19  20
ATOM     20  C   UNL     1       4.330  -4.488  23.199  0.00  0.00    +0.067 C 
ATOM     21  C   UNL     1       4.498  -5.936  23.582  0.00  0.00    +0.017 C 
ATOM     22  C   UNL     1       5.231  -5.395  22.392  0.00  0.00    +0.017 C 
ENDBRANCH  19  20
ENDBRANCH  17  18
ENDBRANCH  13  17
TORSDOF 4
ENDMDL
MODEL 5
REMARK VINA RESULT:      -5.8      3.171      6.193
REMARK  Name = 
REMARK  6 active torsions:
REMARK  status: ('A' for Active; 'I' for Inactive)
REMARK    1  A    between atoms: C_1  and  C_2
REMARK    2  A    between atoms: C_2  and  C_3
REMARK    3  A    between atoms: C_2  and  C_4
REMARK    4  A    between atoms: C_5  and  O_6
REMARK    5  A    between atoms: O_6  and  C_7
REMARK    6  A    between atoms: C_8  and  C_9
REMARK                            x       y       z     vdW  Elec       q    Type
REMARK                         _______ _______ _______ _____ _____    ______ ____
ROOT
ATOM      1  C   UNL     1       7.145  -4.064  23.170  0.00  0.00    +0.063 A 
ATOM      2  C   UNL     1       6.341  -3.089  22.355  0.00  0.00    +0.256 A 
ATOM      3  O   UNL     1       5.344  -3.430  21.721  0.00  0.00    -0.267 OA
ATOM      4  N   UNL     1       6.750  -1.795  22.306  0.00  0.00    -0.322 N 
ATOM      5  H   UNL     1       6.198  -1.192  21.711  0.00  0.00    +0.169 HD
ATOM      6  C   UNL     1       7.810  -1.286  23.044  0.00  0.00    +0.053 A 
ATOM      7  C   UNL     1       8.522  -2.140  23.902  0.00  0.00    +0.045 A 
ATOM      8  C   UNL     1       9.568  -1.573  24.647  0.00  0.00    +0.052 A 
ATOM      9  C   UNL     1       9.866  -0.216  24.524  0.00  0.00    +0.124 A 
ATOM     10  C   UNL     1       9.157   0.613  23.665  0.00  0.00    +0.040 A 
ATOM     11  F   UNL     1      10.864   0.310  25.251  0.00  0.00    -0.205 F 
ATOM     12  C   UNL     1       8.117   0.071  22.913  0.00  0.00    +0.029 A 
ATOM     13  C   UNL     1       8.147  -3.579  23.954  0.00  0.00    +0.159 A 
ENDROOT
BRANCH   1  15
ATOM     14  C   UNL     1       5.335  -5.925  23.511  0.00  0.00    +0.012 C 
ATOM     15  C   UNL     1       6.695  -5.508  22.946  0.00  0.00    +0.022 C 
ATOM     16  C   UNL     1       6.822  -5.901  21.470  0.00  0.00    +0.012 C 
ENDBRANCH   1  15
BRANCH  13  17
ATOM     17  O   UNL     1       8.974  -4.375  24.738  0.00  0.00    -0.405 OA
BRANCH  17  18
ATOM     18  C   UNL     1       8.344  -4.843  25.827  0.00  0.00    +0.117 C 
ATOM     19  C   UNL     1       7.738  -5.290  26.764  0.00  0.00    -0.056 C 
BRANCH  19  20
ATOM     20  C   UNL     1       6.859  -5.696  27.819  0.00  0.00    +0.067 C 
ATOM     21  C   UNL     1       5.450  -6.198  27.639  0.00  0.00    +0.017 C 
ATOM     22  C   UNL     1       5.682  -4.786  28.082  0.00  0.00    +0.017 C 
ENDBRANCH  19  20
ENDBRANCH  17  18
ENDBRANCH  13  17
TORSDOF 4
ENDMDL
MODEL 6
REMARK VINA RESULT:      -5.7      3.045      3.957
REMARK  Name = 
REMARK  6 active torsions:
REMARK  status: ('A' for Active; 'I' for Inactive)
REMARK    1  A    between atoms: C_1  and  C_2
REMARK    2  A    between atoms: C_2  and  C_3
REMARK    3  A    between atoms: C_2  and  C_4
REMARK    4  A    between atoms: C_5  and  O_6
REMARK    5  A    between atoms: O_6  and  C_7
REMARK    6  A    between atoms: C_8  and  C_9
REMARK                            x       y       z     vdW  Elec       q    Type
REMARK                         _______ _______ _______ _____ _____    ______ ____
ROOT
ATOM      1  C   UNL     1       7.162  -5.268  25.910  0.00  0.00    +0.063 A 
ATOM      2  C   UNL     1       6.568  -5.964  27.104  0.00  0.00    +0.256 A 
ATOM      3  O   UNL     1       7.113  -5.956  28.206  0.00  0.00    -0.267 OA
ATOM      4  N   UNL     1       5.401  -6.641  26.943  0.00  0.00    -0.322 N 
ATOM      5  H   UNL     1       5.069  -7.125  27.766  0.00  0.00    +0.169 HD
ATOM      6  C   UNL     1       4.663  -6.648  25.768  0.00  0.00    +0.053 A 
ATOM      7  C   UNL     1       5.127  -5.921  24.660  0.00  0.00    +0.045 A 
ATOM      8  C   UNL     1       4.332  -5.938  23.503  0.00  0.00    +0.052 A 
ATOM      9  C   UNL     1       3.134  -6.653  23.482  0.00  0.00    +0.124 A 
ATOM     10  C   UNL     1       2.693  -7.374  24.583  0.00  0.00    +0.040 A 
ATOM     11  F   UNL     1       2.383  -6.651  22.370  0.00  0.00    -0.205 F 
ATOM     12  C   UNL     1       3.468  -7.373  25.741  0.00  0.00    +0.029 A 
ATOM     13  C   UNL     1       6.426  -5.205  24.767  0.00  0.00    +0.159 A 
ENDROOT
BRANCH   1  15
ATOM     14  C   UNL     1       9.681  -5.127  25.206  0.00  0.00    +0.012 C 
ATOM     15  C   UNL     1       8.572  -4.749  26.192  0.00  0.00    +0.022 C 
ATOM     16  C   UNL     1       8.560  -3.239  26.454  0.00  0.00    +0.012 C 
ENDBRANCH   1  15
BRANCH  13  17
ATOM     17  O   UNL     1       6.869  -4.608  23.591  0.00  0.00    -0.405 OA
BRANCH  17  18
ATOM     18  C   UNL     1       6.654  -3.283  23.583  0.00  0.00    +0.117 C 
ATOM     19  C   UNL     1       6.521  -2.088  23.550  0.00  0.00    -0.056 C 
BRANCH  19  20
ATOM     20  C   UNL     1       6.516  -0.660  23.652  0.00  0.00    +0.067 C 
ATOM     21  C   UNL     1       7.633   0.252  23.216  0.00  0.00    +0.017 C 
ATOM     22  C   UNL     1       7.466  -0.070  24.670  0.00  0.00    +0.017 C 
ENDBRANCH  19  20
ENDBRANCH  17  18
ENDBRANCH  13  17
TORSDOF 4
ENDMDL
MODEL 7
REMARK VINA RESULT:      -5.6      4.903      8.052
REMARK  Name = 
REMARK  6 active torsions:
REMARK  status: ('A' for Active; 'I' for Inactive)
REMARK    1  A    between atoms: C_1  and  C_2
REMARK    2  A    between atoms: C_2  and  C_3
REMARK    3  A    between atoms: C_2  and  C_4
REMARK    4  A    between atoms: C_5  and  O_6
REMARK    5  A    between atoms: O_6  and  C_7
REMARK    6  A    between atoms: C_8  and  C_9
REMARK                            x       y       z     vdW  Elec       q    Type
REMARK                         _______ _______ _______ _____ _____    ______ ____
ROOT
ATOM      1  C   UNL     1       7.983   3.545  23.857  0.00  0.00    +0.063 A 
ATOM      2  C   UNL     1       7.748   4.706  24.783  0.00  0.00    +0.256 A 
ATOM      3  O   UNL     1       6.670   4.888  25.347  0.00  0.00    -0.267 OA
ATOM      4  N   UNL     1       8.759   5.592  24.980  0.00  0.00    -0.322 N 
ATOM      5  H   UNL     1       8.533   6.375  25.578  0.00  0.00    +0.169 HD
ATOM      6  C   UNL     1      10.037   5.440  24.460  0.00  0.00    +0.053 A 
ATOM      7  C   UNL     1      10.330   4.312  23.677  0.00  0.00    +0.045 A 
ATOM      8  C   UNL     1      11.644   4.191  23.196  0.00  0.00    +0.052 A 
ATOM      9  C   UNL     1      12.598   5.162  23.499  0.00  0.00    +0.124 A 
ATOM     10  C   UNL     1      12.289   6.275  24.268  0.00  0.00    +0.040 A 
ATOM     11  F   UNL     1      13.851   5.024  23.037  0.00  0.00    -0.205 F 
ATOM     12  C   UNL     1      10.991   6.418  24.753  0.00  0.00    +0.029 A 
ATOM     13  C   UNL     1       9.244   3.338  23.388  0.00  0.00    +0.159 A 
ENDROOT
BRANCH   1  15
ATOM     14  C   UNL     1       6.389   2.428  22.105  0.00  0.00    +0.012 C 
ATOM     15  C   UNL     1       6.695   2.774  23.564  0.00  0.00    +0.022 C 
ATOM     16  C   UNL     1       6.580   1.537  24.460  0.00  0.00    +0.012 C 
ENDBRANCH   1  15
BRANCH  13  17
ATOM     17  O   UNL     1       9.588   2.314  22.512  0.00  0.00    -0.405 OA
BRANCH  17  18
ATOM     18  C   UNL     1       9.795   1.150  23.148  0.00  0.00    +0.117 C 
ATOM     19  C   UNL     1       9.927   0.085  23.689  0.00  0.00    -0.056 C 
BRANCH  19  20
ATOM     20  C   UNL     1       9.906  -1.138  24.433  0.00  0.00    +0.067 C 
ATOM     21  C   UNL     1       9.838  -2.522  23.840  0.00  0.00    +0.017 C 
ATOM     22  C   UNL     1       8.601  -1.900  24.411  0.00  0.00    +0.017 C 
ENDBRANCH  19  20
ENDBRANCH  17  18
ENDBRANCH  13  17
TORSDOF 4
ENDMDL
MODEL 8
REMARK VINA RESULT:      -5.5      2.833      5.592
REMARK  Name = 
REMARK  6 active torsions:
REMARK  status: ('A' for Active; 'I' for Inactive)
REMARK    1  A    between atoms: C_1  and  C_2
REMARK    2  A    between atoms: C_2  and  C_3
REMARK    3  A    between atoms: C_2  and  C_4
REMARK    4  A    between atoms: C_5  and  O_6
REMARK    5  A    between atoms: O_6  and  C_7
REMARK    6  A    between atoms: C_8  and  C_9
REMARK                            x       y       z     vdW  Elec       q    Type
REMARK                         _______ _______ _______ _____ _____    ______ ____
ROOT
ATOM      1  C   UNL     1       7.911  -2.963  24.468  0.00  0.00    +0.063 A 
ATOM      2  C   UNL     1       9.372  -3.153  24.164  0.00  0.00    +0.256 A 
ATOM      3  O   UNL     1       9.988  -4.160  24.506  0.00  0.00    -0.267 OA
ATOM      4  N   UNL     1      10.030  -2.161  23.508  0.00  0.00    -0.322 N 
ATOM      5  H   UNL     1      11.018  -2.322  23.367  0.00  0.00    +0.169 HD
ATOM      6  C   UNL     1       9.416  -1.021  23.006  0.00  0.00    +0.053 A 
ATOM      7  C   UNL     1       8.032  -0.856  23.173  0.00  0.00    +0.045 A 
ATOM      8  C   UNL     1       7.454   0.300  22.625  0.00  0.00    +0.052 A 
ATOM      9  C   UNL     1       8.243   1.228  21.946  0.00  0.00    +0.124 A 
ATOM     10  C   UNL     1       9.612   1.054  21.797  0.00  0.00    +0.040 A 
ATOM     11  F   UNL     1       7.672   2.323  21.421  0.00  0.00    -0.205 F 
ATOM     12  C   UNL     1      10.208  -0.085  22.335  0.00  0.00    +0.029 A 
ATOM     13  C   UNL     1       7.273  -1.888  23.930  0.00  0.00    +0.159 A 
ENDROOT
BRANCH   1  15
ATOM     14  C   UNL     1       6.964  -3.639  26.814  0.00  0.00    +0.012 C 
ATOM     15  C   UNL     1       7.373  -4.051  25.397  0.00  0.00    +0.022 C 
ATOM     16  C   UNL     1       6.262  -4.857  24.716  0.00  0.00    +0.012 C 
ENDBRANCH   1  15
BRANCH  13  17
ATOM     17  O   UNL     1       5.933  -1.591  24.149  0.00  0.00    -0.405 OA
BRANCH  17  18
ATOM     18  C   UNL     1       5.761  -0.754  25.185  0.00  0.00    +0.117 C 
ATOM     19  C   UNL     1       5.672  -0.001  26.118  0.00  0.00    -0.056 C 
BRANCH  19  20
ATOM     20  C   UNL     1       5.649   0.740  27.343  0.00  0.00    +0.067 C 
ATOM     21  C   UNL     1       6.393   2.025  27.601  0.00  0.00    +0.017 C 
ATOM     22  C   UNL     1       6.934   0.735  28.139  0.00  0.00    +0.017 C 
ENDBRANCH  19  20
ENDBRANCH  17  18
ENDBRANCH  13  17
TORSDOF 4
ENDMDL
MODEL 9
REMARK VINA RESULT:      -5.5      2.421      4.338
REMARK  Name = 
REMARK  6 active torsions:
REMARK  status: ('A' for Active; 'I' for Inactive)
REMARK    1  A    between atoms: C_1  and  C_2
REMARK    2  A    between atoms: C_2  and  C_3
REMARK    3  A    between atoms: C_2  and  C_4
REMARK    4  A    between atoms: C_5  and  O_6
REMARK    5  A    between atoms: O_6  and  C_7
REMARK    6  A    between atoms: C_8  and  C_9
REMARK                            x       y       z     vdW  Elec       q    Type
REMARK                         _______ _______ _______ _____ _____    ______ ____
ROOT
ATOM      1  C   UNL     1       9.330  -0.649  23.711  0.00  0.00    +0.063 A 
ATOM      2  C   UNL     1       9.010  -1.023  22.290  0.00  0.00    +0.256 A 
ATOM      3  O   UNL     1       9.348  -0.326  21.336  0.00  0.00    -0.267 OA
ATOM      4  N   UNL     1       8.304  -2.161  22.065  0.00  0.00    -0.322 N 
ATOM      5  H   UNL     1       8.080  -2.343  21.096  0.00  0.00    +0.169 HD
ATOM      6  C   UNL     1       7.943  -3.061  23.058  0.00  0.00    +0.053 A 
ATOM      7  C   UNL     1       8.316  -2.804  24.387  0.00  0.00    +0.045 A 
ATOM      8  C   UNL     1       7.951  -3.757  25.351  0.00  0.00    +0.052 A 
ATOM      9  C   UNL     1       7.249  -4.904  24.978  0.00  0.00    +0.124 A 
ATOM     10  C   UNL     1       6.880  -5.138  23.661  0.00  0.00    +0.040 A 
ATOM     11  F   UNL     1       6.915  -5.807  25.912  0.00  0.00    -0.205 F 
ATOM     12  C   UNL     1       7.229  -4.205  22.688  0.00  0.00    +0.029 A 
ATOM     13  C   UNL     1       9.046  -1.545  24.695  0.00  0.00    +0.159 A 
ENDROOT
BRANCH   1  15
ATOM     14  C   UNL     1       9.004   1.886  24.284  0.00  0.00    +0.012 C 
ATOM     15  C   UNL     1       9.925   0.756  23.814  0.00  0.00    +0.022 C 
ATOM     16  C   UNL     1      11.232   0.743  24.613  0.00  0.00    +0.012 C 
ENDBRANCH   1  15
BRANCH  13  17
ATOM     17  O   UNL     1       9.275  -1.313  26.047  0.00  0.00    -0.405 OA
BRANCH  17  18
ATOM     18  C   UNL     1       8.298  -0.584  26.609  0.00  0.00    +0.117 C 
ATOM     19  C   UNL     1       7.426   0.108  27.062  0.00  0.00    -0.056 C 
BRANCH  19  20
ATOM     20  C   UNL     1       6.534   1.080  27.618  0.00  0.00    +0.067 C 
ATOM     21  C   UNL     1       6.820   2.553  27.753  0.00  0.00    +0.017 C 
ATOM     22  C   UNL     1       6.944   1.662  28.951  0.00  0.00    +0.017 C 
ENDBRANCH  19  20
ENDBRANCH  17  18
ENDBRANCH  13  17
TORSDOF 4
ENDMDL
