MODEL 1
REMARK VINA RESULT:      -7.3      0.000      0.000
REMARK  Name = 
REMARK  7 active torsions:
REMARK  status: ('A' for Active; 'I' for Inactive)
REMARK    1  A    between atoms: O_1  and  C_2
REMARK    2  A    between atoms: C_2  and  CA_4
REMARK    3  A    between atoms: CA_4  and  N_5
REMARK    4  A    between atoms: C_6  and  C_8
REMARK    5  A    between atoms: C_14  and  C_15
REMARK    6  A    between atoms: C_18  and  O_19
REMARK    7  A    between atoms: O_19  and  C_20
REMARK                            x       y       z     vdW  Elec       q    Type
REMARK                         _______ _______ _______ _____ _____    ______ ____
ROOT
ATOM      1  CA  UNL     1      11.380   4.549  23.338  0.00  0.00    +0.119 C 
ATOM      2  C   UNL     1      11.527   3.203  23.356  0.00  0.00    +0.038 C 
ENDROOT
BRANCH   2   3
ATOM      3  C   UNL     1      10.423   2.239  23.257  0.00  0.00    -0.023 A 
ATOM      4  C   UNL     1       9.797   1.771  24.416  0.00  0.00    +0.011 A 
ATOM      5  C   UNL     1       8.667   0.951  24.325  0.00  0.00    +0.047 A 
ATOM      6  C   UNL     1       8.184   0.556  23.073  0.00  0.00    +0.129 A 
ATOM      7  C   UNL     1       8.815   1.019  21.916  0.00  0.00    +0.047 A 
ATOM      8  C   UNL     1       9.932   1.855  22.006  0.00  0.00    +0.011 A 
BRANCH   6   9
ATOM      9  O   UNL     1       7.064  -0.224  22.869  0.00  0.00    -0.455 OA
BRANCH   9  10
ATOM     10  C   UNL     1       7.102  -1.567  23.172  0.00  0.00    +0.142 A 
ATOM     11  C   UNL     1       6.493  -2.014  24.353  0.00  0.00    +0.060 A 
ATOM     12 BR   UNL     1       5.536  -0.832  25.489  0.00  0.00    -0.046 Br
ATOM     13  C   UNL     1       6.557  -3.364  24.713  0.00  0.00    +0.019 A 
ATOM     14  C   UNL     1       7.199  -4.277  23.874  0.00  0.00    +0.001 A 
ATOM     15  C   UNL     1       7.734  -3.852  22.660  0.00  0.00    +0.004 A 
ATOM     16  C   UNL     1       7.668  -2.506  22.302  0.00  0.00    +0.047 A 
ENDBRANCH   9  10
ENDBRANCH   6   9
ENDBRANCH   2   3
BRANCH   1  17
ATOM     17  N   UNL     1      10.107   5.093  23.221  0.00  0.00    -0.276 N 
ATOM     18  H   UNL     1       9.651   4.889  22.340  0.00  0.00    +0.155 HD
ATOM     19  C   UNL     1       9.371   5.836  24.114  0.00  0.00    +0.248 C 
ATOM     20  O   UNL     1       9.741   6.105  25.252  0.00  0.00    -0.270 OA
BRANCH  19  21
ATOM     21  C   UNL     1       8.004   6.244  23.670  0.00  0.00    +0.037 A 
ATOM     22  C   UNL     1       6.961   6.517  24.565  0.00  0.00    +0.013 A 
ATOM     23  C   UNL     1       5.723   6.953  24.086  0.00  0.00    +0.001 A 
ATOM     24  C   UNL     1       5.517   7.108  22.716  0.00  0.00    +0.000 A 
ATOM     25  C   UNL     1       6.539   6.806  21.818  0.00  0.00    +0.001 A 
ATOM     26  C   UNL     1       7.777   6.370  22.291  0.00  0.00    +0.013 A 
ENDBRANCH  19  21
ENDBRANCH   1  17
BRANCH   1  27
ATOM     27  C   UNL     1      12.684   5.295  23.475  0.00  0.00    +0.351 C 
ATOM     28  OXT UNL     1      13.647   5.067  22.751  0.00  0.00    -0.244 OA
BRANCH  27  29
ATOM     29  O   UNL     1      12.800   6.136  24.516  0.00  0.00    -0.476 OA
ATOM     30  H   UNL     1      12.230   5.897  25.283  0.00  0.00    +0.295 HD
ENDBRANCH  27  29
ENDBRANCH   1  27
TORSDOF 7
ENDMDL
MODEL 2
REMARK VINA RESULT:      -7.2      0.847      1.255
REMARK  Name = 
REMARK  7 active torsions:
REMARK  status: ('A' for Active; 'I' for Inactive)
REMARK    1  A    between atoms: O_1  and  C_2
REMARK    2  A    between atoms: C_2  and  CA_4
REMARK    3  A    between atoms: CA_4  and  N_5
REMARK    4  A    between atoms: C_6  and  C_8
REMARK    5  A    between atoms: C_14  and  C_15
REMARK    6  A    between atoms: C_18  and  O_19
REMARK    7  A    between atoms: O_19  and  C_20
REMARK                            x       y       z     vdW  Elec       q    Type
REMARK                         _______ _______ _______ _____ _____    ______ ____
ROOT
ATOM      1  CA  UNL     1      11.455   4.682  23.359  0.00  0.00    +0.119 C 
ATOM      2  C   UNL     1      11.633   3.339  23.394  0.00  0.00    +0.038 C 
ENDROOT
BRANCH   2   3
ATOM      3  C   UNL     1      10.550   2.350  23.318  0.00  0.00    -0.023 A 
ATOM      4  C   UNL     1      10.171   1.821  22.081  0.00  0.00    +0.011 A 
ATOM      5  C   UNL     1       9.227   0.790  22.015  0.00  0.00    +0.047 A 
ATOM      6  C   UNL     1       8.623   0.314  23.183  0.00  0.00    +0.129 A 
ATOM      7  C   UNL     1       8.998   0.848  24.417  0.00  0.00    +0.047 A 
ATOM      8  C   UNL     1       9.955   1.864  24.487  0.00  0.00    +0.011 A 
BRANCH   6   9
ATOM      9  O   UNL     1       7.705  -0.715  23.232  0.00  0.00    -0.455 OA
BRANCH   9  10
ATOM     10  C   UNL     1       7.982  -1.844  23.972  0.00  0.00    +0.142 A 
ATOM     11  C   UNL     1       7.081  -2.239  24.971  0.00  0.00    +0.060 A 
ATOM     12 BR   UNL     1       5.448  -1.316  25.261  0.00  0.00    -0.046 Br
ATOM     13  C   UNL     1       7.359  -3.352  25.771  0.00  0.00    +0.019 A 
ATOM     14  C   UNL     1       8.521  -4.094  25.550  0.00  0.00    +0.001 A 
ATOM     15  C   UNL     1       9.377  -3.754  24.505  0.00  0.00    +0.004 A 
ATOM     16  C   UNL     1       9.098  -2.646  23.707  0.00  0.00    +0.047 A 
ENDBRANCH   9  10
ENDBRANCH   6   9
ENDBRANCH   2   3
BRANCH   1  17
ATOM     17  N   UNL     1      10.170   5.196  23.246  0.00  0.00    -0.276 N 
ATOM     18  H   UNL     1       9.737   5.028  22.345  0.00  0.00    +0.155 HD
ATOM     19  C   UNL     1       9.396   5.867  24.163  0.00  0.00    +0.248 C 
ATOM     20  O   UNL     1       9.736   6.082  25.321  0.00  0.00    -0.270 OA
BRANCH  19  21
ATOM     21  C   UNL     1       8.026   6.261  23.713  0.00  0.00    +0.037 A 
ATOM     22  C   UNL     1       6.977   6.524  24.605  0.00  0.00    +0.013 A 
ATOM     23  C   UNL     1       5.737   6.947  24.121  0.00  0.00    +0.001 A 
ATOM     24  C   UNL     1       5.534   7.099  22.749  0.00  0.00    +0.000 A 
ATOM     25  C   UNL     1       6.562   6.806  21.856  0.00  0.00    +0.001 A 
ATOM     26  C   UNL     1       7.802   6.382  22.334  0.00  0.00    +0.013 A 
ENDBRANCH  19  21
ENDBRANCH   1  17
BRANCH   1  27
ATOM     27  C   UNL     1      12.743   5.458  23.475  0.00  0.00    +0.351 C 
ATOM     28  OXT UNL     1      13.719   5.215  22.773  0.00  0.00    -0.244 OA
BRANCH  27  29
ATOM     29  O   UNL     1      12.831   6.350  24.476  0.00  0.00    -0.476 OA
ATOM     30  H   UNL     1      12.798   7.287  24.176  0.00  0.00    +0.295 HD
ENDBRANCH  27  29
ENDBRANCH   1  27
TORSDOF 7
ENDMDL
MODEL 3
REMARK VINA RESULT:      -7.0      3.491      7.494
REMARK  Name = 
REMARK  7 active torsions:
REMARK  status: ('A' for Active; 'I' for Inactive)
REMARK    1  A    between atoms: O_1  and  C_2
REMARK    2  A    between atoms: C_2  and  CA_4
REMARK    3  A    between atoms: CA_4  and  N_5
REMARK    4  A    between atoms: C_6  and  C_8
REMARK    5  A    between atoms: C_14  and  C_15
REMARK    6  A    between atoms: C_18  and  O_19
REMARK    7  A    between atoms: O_19  and  C_20
REMARK                            x       y       z     vdW  Elec       q    Type
REMARK                         _______ _______ _______ _____ _____    ______ ____
ROOT
ATOM      1  CA  UNL     1       8.919  -2.953  24.391  0.00  0.00    +0.119 C 
ATOM      2  C   UNL     1       9.970  -2.412  23.730  0.00  0.00    +0.038 C 
ENDROOT
BRANCH   2   3
ATOM      3  C   UNL     1      10.136  -0.980  23.452  0.00  0.00    -0.023 A 
ATOM      4  C   UNL     1       9.769  -0.461  22.206  0.00  0.00    +0.011 A 
ATOM      5  C   UNL     1       9.808   0.918  21.977  0.00  0.00    +0.047 A 
ATOM      6  C   UNL     1      10.259   1.784  22.979  0.00  0.00    +0.129 A 
ATOM      7  C   UNL     1      10.632   1.264  24.220  0.00  0.00    +0.047 A 
ATOM      8  C   UNL     1      10.574  -0.112  24.457  0.00  0.00    +0.011 A 
BRANCH   6   9
ATOM      9  O   UNL     1      10.310   3.159  22.869  0.00  0.00    -0.455 OA
BRANCH   9  10
ATOM     10  C   UNL     1       9.559   3.941  23.717  0.00  0.00    +0.142 A 
ATOM     11  C   UNL     1      10.115   5.127  24.218  0.00  0.00    +0.060 A 
ATOM     12 BR   UNL     1      11.834   5.726  23.678  0.00  0.00    -0.046 Br
ATOM     13  C   UNL     1       9.395   5.918  25.119  0.00  0.00    +0.019 A 
ATOM     14  C   UNL     1       8.104   5.544  25.495  0.00  0.00    +0.001 A 
ATOM     15  C   UNL     1       7.516   4.411  24.937  0.00  0.00    +0.004 A 
ATOM     16  C   UNL     1       8.233   3.625  24.036  0.00  0.00    +0.047 A 
ENDBRANCH   9  10
ENDBRANCH   6   9
ENDBRANCH   2   3
BRANCH   1  17
ATOM     17  N   UNL     1       7.905  -2.123  24.852  0.00  0.00    -0.276 N 
ATOM     18  H   UNL     1       8.069  -1.746  25.778  0.00  0.00    +0.155 HD
ATOM     19  C   UNL     1       6.739  -1.720  24.244  0.00  0.00    +0.248 C 
ATOM     20  O   UNL     1       6.425  -2.019  23.097  0.00  0.00    -0.270 OA
BRANCH  19  21
ATOM     21  C   UNL     1       5.871  -0.787  25.025  0.00  0.00    +0.037 A 
ATOM     22  C   UNL     1       5.045  -1.212  26.074  0.00  0.00    +0.013 A 
ATOM     23  C   UNL     1       4.305  -0.279  26.804  0.00  0.00    +0.001 A 
ATOM     24  C   UNL     1       4.376   1.077  26.484  0.00  0.00    +0.000 A 
ATOM     25  C   UNL     1       5.168   1.502  25.421  0.00  0.00    +0.001 A 
ATOM     26  C   UNL     1       5.910   0.574  24.689  0.00  0.00    +0.013 A 
ENDBRANCH  19  21
ENDBRANCH   1  17
BRANCH   1  27
ATOM     27  C   UNL     1       9.000  -4.454  24.517  0.00  0.00    +0.351 C 
ATOM     28  OXT UNL     1       8.015  -5.175  24.394  0.00  0.00    -0.244 OA
BRANCH  27  29
ATOM     29  O   UNL     1      10.177  -4.972  24.905  0.00  0.00    -0.476 OA
ATOM     30  H   UNL     1      10.503  -4.614  25.763  0.00  0.00    +0.295 HD
ENDBRANCH  27  29
ENDBRANCH   1  27
TORSDOF 7
ENDMDL
MODEL 4
REMARK VINA RESULT:      -6.9      2.650      3.080
REMARK  Name = 
REMARK  7 active torsions:
REMARK  status: ('A' for Active; 'I' for Inactive)
REMARK    1  A    between atoms: O_1  and  C_2
REMARK    2  A    between atoms: C_2  and  CA_4
REMARK    3  A    between atoms: CA_4  and  N_5
REMARK    4  A    between atoms: C_6  and  C_8
REMARK    5  A    between atoms: C_14  and  C_15
REMARK    6  A    between atoms: C_18  and  O_19
REMARK    7  A    between atoms: O_19  and  C_20
REMARK                            x       y       z     vdW  Elec       q    Type
REMARK                         _______ _______ _______ _____ _____    ______ ____
ROOT
ATOM      1  CA  UNL     1       9.817   4.076  23.742  0.00  0.00    +0.119 C 
ATOM      2  C   UNL     1      10.653   3.064  23.409  0.00  0.00    +0.038 C 
ENDROOT
BRANCH   2   3
ATOM      3  C   UNL     1      10.254   1.656  23.283  0.00  0.00    -0.023 A 
ATOM      4  C   UNL     1       9.973   1.118  22.024  0.00  0.00    +0.011 A 
ATOM      5  C   UNL     1       9.714  -0.250  21.884  0.00  0.00    +0.047 A 
ATOM      6  C   UNL     1       9.689  -1.080  23.009  0.00  0.00    +0.129 A 
ATOM      7  C   UNL     1       9.963  -0.539  24.267  0.00  0.00    +0.047 A 
ATOM      8  C   UNL     1      10.242   0.823  24.406  0.00  0.00    +0.011 A 
BRANCH   6   9
ATOM      9  O   UNL     1       9.473  -2.442  22.980  0.00  0.00    -0.455 OA
BRANCH   9  10
ATOM     10  C   UNL     1       8.202  -2.938  23.172  0.00  0.00    +0.142 A 
ATOM     11  C   UNL     1       8.009  -3.967  24.104  0.00  0.00    +0.060 A 
ATOM     12 BR   UNL     1       9.434  -4.623  25.173  0.00  0.00    -0.046 Br
ATOM     13  C   UNL     1       6.739  -4.524  24.286  0.00  0.00    +0.019 A 
ATOM     14  C   UNL     1       5.652  -4.029  23.563  0.00  0.00    +0.001 A 
ATOM     15  C   UNL     1       5.824  -2.951  22.697  0.00  0.00    +0.004 A 
ATOM     16  C   UNL     1       7.090  -2.395  22.518  0.00  0.00    +0.047 A 
ENDBRANCH   9  10
ENDBRANCH   6   9
ENDBRANCH   2   3
BRANCH   1  17
ATOM     17  N   UNL     1       8.479   3.799  23.991  0.00  0.00    -0.276 N 
ATOM     18  H   UNL     1       8.292   3.483  24.936  0.00  0.00    +0.155 HD
ATOM     19  C   UNL     1       7.380   3.907  23.172  0.00  0.00    +0.248 C 
ATOM     20  O   UNL     1       7.417   4.346  22.028  0.00  0.00    -0.270 OA
BRANCH  19  21
ATOM     21  C   UNL     1       6.062   3.545  23.778  0.00  0.00    +0.037 A 
ATOM     22  C   UNL     1       5.921   3.147  25.114  0.00  0.00    +0.013 A 
ATOM     23  C   UNL     1       4.652   2.882  25.635  0.00  0.00    +0.001 A 
ATOM     24  C   UNL     1       3.523   3.001  24.825  0.00  0.00    +0.000 A 
ATOM     25  C   UNL     1       3.659   3.362  23.486  0.00  0.00    +0.001 A 
ATOM     26  C   UNL     1       4.925   3.629  22.961  0.00  0.00    +0.013 A 
ENDBRANCH  19  21
ENDBRANCH   1  17
BRANCH   1  27
ATOM     27  C   UNL     1      10.501   5.418  23.816  0.00  0.00    +0.351 C 
ATOM     28  OXT UNL     1      10.085   6.327  24.526  0.00  0.00    -0.244 OA
BRANCH  27  29
ATOM     29  O   UNL     1      11.520   5.631  22.966  0.00  0.00    -0.476 OA
ATOM     30  H   UNL     1      11.527   5.019  22.196  0.00  0.00    +0.295 HD
ENDBRANCH  27  29
ENDBRANCH   1  27
TORSDOF 7
ENDMDL
MODEL 5
REMARK VINA RESULT:      -6.8      2.538      3.161
REMARK  Name = 
REMARK  7 active torsions:
REMARK  status: ('A' for Active; 'I' for Inactive)
REMARK    1  A    between atoms: O_1  and  C_2
REMARK    2  A    between atoms: C_2  and  CA_4
REMARK    3  A    between atoms: CA_4  and  N_5
REMARK    4  A    between atoms: C_6  and  C_8
REMARK    5  A    between atoms: C_14  and  C_15
REMARK    6  A    between atoms: C_18  and  O_19
REMARK    7  A    between atoms: O_19  and  C_20
REMARK                            x       y       z     vdW  Elec       q    Type
REMARK                         _______ _______ _______ _____ _____    ______ ____
ROOT
ATOM      1  CA  UNL     1       9.954   3.909  23.700  0.00  0.00    +0.119 C 
ATOM      2  C   UNL     1      10.794   2.921  23.308  0.00  0.00    +0.038 C 
ENDROOT
BRANCH   2   3
ATOM      3  C   UNL     1      10.446   1.495  23.264  0.00  0.00    -0.023 A 
ATOM      4  C   UNL     1      10.539   0.715  24.420  0.00  0.00    +0.011 A 
ATOM      5  C   UNL     1      10.092  -0.611  24.414  0.00  0.00    +0.047 A 
ATOM      6  C   UNL     1       9.591  -1.179  23.238  0.00  0.00    +0.129 A 
ATOM      7  C   UNL     1       9.506  -0.400  22.082  0.00  0.00    +0.047 A 
ATOM      8  C   UNL     1       9.933   0.931  22.092  0.00  0.00    +0.011 A 
BRANCH   6   9
ATOM      9  O   UNL     1       9.099  -2.463  23.130  0.00  0.00    -0.455 OA
BRANCH   9  10
ATOM     10  C   UNL     1       8.714  -3.146  24.263  0.00  0.00    +0.142 A 
ATOM     11  C   UNL     1       7.420  -2.951  24.765  0.00  0.00    +0.060 A 
ATOM     12 BR   UNL     1       6.159  -1.850  23.870  0.00  0.00    -0.046 Br
ATOM     13  C   UNL     1       7.016  -3.592  25.941  0.00  0.00    +0.019 A 
ATOM     14  C   UNL     1       7.893  -4.458  26.597  0.00  0.00    +0.001 A 
ATOM     15  C   UNL     1       9.151  -4.718  26.056  0.00  0.00    +0.004 A 
ATOM     16  C   UNL     1       9.551  -4.081  24.883  0.00  0.00    +0.047 A 
ENDBRANCH   9  10
ENDBRANCH   6   9
ENDBRANCH   2   3
BRANCH   1  17
ATOM     17  N   UNL     1       8.663   3.586  24.097  0.00  0.00    -0.276 N 
ATOM     18  H   UNL     1       8.579   3.359  25.081  0.00  0.00    +0.155 HD
ATOM     19  C   UNL     1       7.493   3.550  23.376  0.00  0.00    +0.248 C 
ATOM     20  O   UNL     1       7.404   3.871  22.195  0.00  0.00    -0.270 OA
BRANCH  19  21
ATOM     21  C   UNL     1       6.258   3.181  24.132  0.00  0.00    +0.037 A 
ATOM     22  C   UNL     1       5.040   3.858  23.981  0.00  0.00    +0.013 A 
ATOM     23  C   UNL     1       3.907   3.424  24.673  0.00  0.00    +0.001 A 
ATOM     24  C   UNL     1       3.986   2.324  25.526  0.00  0.00    +0.000 A 
ATOM     25  C   UNL     1       5.201   1.667  25.708  0.00  0.00    +0.001 A 
ATOM     26  C   UNL     1       6.336   2.097  25.019  0.00  0.00    +0.013 A 
ENDBRANCH  19  21
ENDBRANCH   1  17
BRANCH   1  27
ATOM     27  C   UNL     1      10.584   5.279  23.664  0.00  0.00    +0.351 C 
ATOM     28  OXT UNL     1      10.073   6.249  24.214  0.00  0.00    -0.244 OA
BRANCH  27  29
ATOM     29  O   UNL     1      11.671   5.432  22.889  0.00  0.00    -0.476 OA
ATOM     30  H   UNL     1      11.981   6.363  22.822  0.00  0.00    +0.295 HD
ENDBRANCH  27  29
ENDBRANCH   1  27
TORSDOF 7
ENDMDL
MODEL 6
REMARK VINA RESULT:      -6.7      3.703      9.374
REMARK  Name = 
REMARK  7 active torsions:
REMARK  status: ('A' for Active; 'I' for Inactive)
REMARK    1  A    between atoms: O_1  and  C_2
REMARK    2  A    between atoms: C_2  and  CA_4
REMARK    3  A    between atoms: CA_4  and  N_5
REMARK    4  A    between atoms: C_6  and  C_8
REMARK    5  A    between atoms: C_14  and  C_15
REMARK    6  A    between atoms: C_18  and  O_19
REMARK    7  A    between atoms: O_19  and  C_20
REMARK                            x       y       z     vdW  Elec       q    Type
REMARK                         _______ _______ _______ _____ _____    ______ ____
ROOT
ATOM      1  CA  UNL     1       6.710  -4.764  22.549  0.00  0.00    +0.119 C 
ATOM      2  C   UNL     1       7.335  -3.692  22.006  0.00  0.00    +0.038 C 
ENDROOT
BRANCH   2   3
ATOM      3  C   UNL     1       7.776  -2.511  22.759  0.00  0.00    -0.023 A 
ATOM      4  C   UNL     1       6.880  -1.469  23.015  0.00  0.00    +0.011 A 
ATOM      5  C   UNL     1       7.258  -0.400  23.835  0.00  0.00    +0.047 A 
ATOM      6  C   UNL     1       8.550  -0.345  24.367  0.00  0.00    +0.129 A 
ATOM      7  C   UNL     1       9.446  -1.383  24.105  0.00  0.00    +0.047 A 
ATOM      8  C   UNL     1       9.064  -2.461  23.302  0.00  0.00    +0.011 A 
BRANCH   6   9
ATOM      9  O   UNL     1       9.015   0.645  25.209  0.00  0.00    -0.455 OA
BRANCH   9  10
ATOM     10  C   UNL     1       9.380   1.868  24.690  0.00  0.00    +0.142 A 
ATOM     11  C   UNL     1       8.621   2.999  25.021  0.00  0.00    +0.060 A 
ATOM     12 BR   UNL     1       7.168   2.903  26.238  0.00  0.00    -0.046 Br
ATOM     13  C   UNL     1       8.938   4.246  24.471  0.00  0.00    +0.019 A 
ATOM     14  C   UNL     1      10.036   4.371  23.618  0.00  0.00    +0.001 A 
ATOM     15  C   UNL     1      10.842   3.266  23.353  0.00  0.00    +0.004 A 
ATOM     16  C   UNL     1      10.527   2.025  23.903  0.00  0.00    +0.047 A 
ENDBRANCH   9  10
ENDBRANCH   6   9
ENDBRANCH   2   3
BRANCH   1  17
ATOM     17  N   UNL     1       6.450  -4.781  23.913  0.00  0.00    -0.276 N 
ATOM     18  H   UNL     1       7.272  -4.926  24.488  0.00  0.00    +0.155 HD
ATOM     19  C   UNL     1       5.269  -4.610  24.596  0.00  0.00    +0.248 C 
ATOM     20  O   UNL     1       4.198  -4.348  24.060  0.00  0.00    -0.270 OA
BRANCH  19  21
ATOM     21  C   UNL     1       5.351  -4.663  26.087  0.00  0.00    +0.037 A 
ATOM     22  C   UNL     1       4.631  -3.797  26.922  0.00  0.00    +0.013 A 
ATOM     23  C   UNL     1       4.706  -3.939  28.309  0.00  0.00    +0.001 A 
ATOM     24  C   UNL     1       5.506  -4.935  28.870  0.00  0.00    +0.000 A 
ATOM     25  C   UNL     1       6.252  -5.776  28.047  0.00  0.00    +0.001 A 
ATOM     26  C   UNL     1       6.180  -5.638  26.660  0.00  0.00    +0.013 A 
ENDBRANCH  19  21
ENDBRANCH   1  17
BRANCH   1  27
ATOM     27  C   UNL     1       6.354  -5.824  21.536  0.00  0.00    +0.351 C 
ATOM     28  OXT UNL     1       5.950  -5.546  20.412  0.00  0.00    -0.244 OA
BRANCH  27  29
ATOM     29  O   UNL     1       6.367  -7.100  21.958  0.00  0.00    -0.476 OA
ATOM     30  H   UNL     1       7.173  -7.597  21.687  0.00  0.00    +0.295 HD
ENDBRANCH  27  29
ENDBRANCH   1  27
TORSDOF 7
ENDMDL
MODEL 7
REMARK VINA RESULT:      -6.6      3.431      5.194
REMARK  Name = 
REMARK  7 active torsions:
REMARK  status: ('A' for Active; 'I' for Inactive)
REMARK    1  A    between atoms: O_1  and  C_2
REMARK    2  A    between atoms: C_2  and  CA_4
REMARK    3  A    between atoms: CA_4  and  N_5
REMARK    4  A    between atoms: C_6  and  C_8
REMARK    5  A    between atoms: C_14  and  C_15
REMARK    6  A    between atoms: C_18  and  O_19
REMARK    7  A    between atoms: O_19  and  C_20
REMARK                            x       y       z     vdW  Elec       q    Type
REMARK                         _______ _______ _______ _____ _____    ______ ____
ROOT
ATOM      1  CA  UNL     1       9.412   0.792  23.195  0.00  0.00    +0.119 C 
ATOM      2  C   UNL     1       9.935  -0.378  22.755  0.00  0.00    +0.038 C 
ENDROOT
BRANCH   2   3
ATOM      3  C   UNL     1       9.371  -1.704  23.037  0.00  0.00    -0.023 A 
ATOM      4  C   UNL     1       9.880  -2.472  24.089  0.00  0.00    +0.011 A 
ATOM      5  C   UNL     1       9.267  -3.680  24.441  0.00  0.00    +0.047 A 
ATOM      6  C   UNL     1       8.169  -4.149  23.713  0.00  0.00    +0.129 A 
ATOM      7  C   UNL     1       7.666  -3.384  22.659  0.00  0.00    +0.047 A 
ATOM      8  C   UNL     1       8.265  -2.168  22.319  0.00  0.00    +0.011 A 
BRANCH   6   9
ATOM      9  O   UNL     1       7.475  -5.309  23.993  0.00  0.00    -0.455 OA
BRANCH   9  10
ATOM     10  C   UNL     1       6.628  -5.354  25.078  0.00  0.00    +0.142 A 
ATOM     11  C   UNL     1       5.244  -5.390  24.857  0.00  0.00    +0.060 A 
ATOM     12 BR   UNL     1       4.516  -5.478  23.106  0.00  0.00    -0.046 Br
ATOM     13  C   UNL     1       4.358  -5.388  25.939  0.00  0.00    +0.019 A 
ATOM     14  C   UNL     1       4.853  -5.386  27.244  0.00  0.00    +0.001 A 
ATOM     15  C   UNL     1       6.228  -5.433  27.468  0.00  0.00    +0.004 A 
ATOM     16  C   UNL     1       7.110  -5.438  26.389  0.00  0.00    +0.047 A 
ENDBRANCH   9  10
ENDBRANCH   6   9
ENDBRANCH   2   3
BRANCH   1  17
ATOM     17  N   UNL     1       8.262   0.774  23.973  0.00  0.00    -0.276 N 
ATOM     18  H   UNL     1       8.434   0.615  24.959  0.00  0.00    +0.155 HD
ATOM     19  C   UNL     1       6.946   0.959  23.620  0.00  0.00    +0.248 C 
ATOM     20  O   UNL     1       6.572   1.239  22.487  0.00  0.00    -0.270 OA
BRANCH  19  21
ATOM     21  C   UNL     1       5.947   0.900  24.731  0.00  0.00    +0.037 A 
ATOM     22  C   UNL     1       5.610  -0.289  25.391  0.00  0.00    +0.013 A 
ATOM     23  C   UNL     1       4.713  -0.265  26.462  0.00  0.00    +0.001 A 
ATOM     24  C   UNL     1       4.141   0.939  26.870  0.00  0.00    +0.000 A 
ATOM     25  C   UNL     1       4.445   2.120  26.196  0.00  0.00    +0.001 A 
ATOM     26  C   UNL     1       5.340   2.101  25.126  0.00  0.00    +0.013 A 
ENDBRANCH  19  21
ENDBRANCH   1  17
BRANCH   1  27
ATOM     27  C   UNL     1      10.210   2.000  22.769  0.00  0.00    +0.351 C 
ATOM     28  OXT UNL     1      10.746   2.748  23.579  0.00  0.00    -0.244 OA
BRANCH  27  29
ATOM     29  O   UNL     1      10.202   2.307  21.461  0.00  0.00    -0.476 OA
ATOM     30  H   UNL     1       9.591   3.044  21.232  0.00  0.00    +0.295 HD
ENDBRANCH  27  29
ENDBRANCH   1  27
TORSDOF 7
ENDMDL
MODEL 8
REMARK VINA RESULT:      -6.6      4.545      9.185
REMARK  Name = 
REMARK  7 active torsions:
REMARK  status: ('A' for Active; 'I' for Inactive)
REMARK    1  A    between atoms: O_1  and  C_2
REMARK    2  A    between atoms: C_2  and  CA_4
REMARK    3  A    between atoms: CA_4  and  N_5
REMARK    4  A    between atoms: C_6  and  C_8
REMARK    5  A    between atoms: C_14  and  C_15
REMARK    6  A    between atoms: C_18  and  O_19
REMARK    7  A    between atoms: O_19  and  C_20
REMARK                            x       y       z     vdW  Elec       q    Type
REMARK                         _______ _______ _______ _____ _____    ______ ____
ROOT
ATOM      1  CA  UNL     1       4.932  -5.606  24.183  0.00  0.00    +0.119 C 
ATOM      2  C   UNL     1       6.031  -5.690  23.396  0.00  0.00    +0.038 C 
ENDROOT
BRANCH   2   3
ATOM      3  C   UNL     1       7.119  -4.704  23.370  0.00  0.00    -0.023 A 
ATOM      4  C   UNL     1       7.069  -3.630  22.476  0.00  0.00    +0.011 A 
ATOM      5  C   UNL     1       8.038  -2.621  22.530  0.00  0.00    +0.047 A 
ATOM      6  C   UNL     1       9.087  -2.704  23.451  0.00  0.00    +0.129 A 
ATOM      7  C   UNL     1       9.139  -3.781  24.339  0.00  0.00    +0.047 A 
ATOM      8  C   UNL     1       8.161  -4.779  24.299  0.00  0.00    +0.011 A 
BRANCH   6   9
ATOM      9  O   UNL     1      10.075  -1.754  23.608  0.00  0.00    -0.455 OA
BRANCH   9  10
ATOM     10  C   UNL     1       9.785  -0.424  23.395  0.00  0.00    +0.142 A 
ATOM     11  C   UNL     1       9.196   0.316  24.430  0.00  0.00    +0.060 A 
ATOM     12 BR   UNL     1       8.880  -0.441  26.142  0.00  0.00    -0.046 Br
ATOM     13  C   UNL     1       8.845   1.655  24.227  0.00  0.00    +0.019 A 
ATOM     14  C   UNL     1       9.116   2.267  23.002  0.00  0.00    +0.001 A 
ATOM     15  C   UNL     1       9.775   1.559  22.000  0.00  0.00    +0.004 A 
ATOM     16  C   UNL     1      10.127   0.226  22.203  0.00  0.00    +0.047 A 
ENDBRANCH   9  10
ENDBRANCH   6   9
ENDBRANCH   2   3
BRANCH   1  17
ATOM     17  N   UNL     1       4.789  -4.521  25.038  0.00  0.00    -0.276 N 
ATOM     18  H   UNL     1       4.354  -3.713  24.609  0.00  0.00    +0.155 HD
ATOM     19  C   UNL     1       5.119  -4.385  26.366  0.00  0.00    +0.248 C 
ATOM     20  O   UNL     1       5.578  -5.290  27.055  0.00  0.00    -0.270 OA
BRANCH  19  21
ATOM     21  C   UNL     1       4.798  -3.070  26.998  0.00  0.00    +0.037 A 
ATOM     22  C   UNL     1       4.241  -2.955  28.279  0.00  0.00    +0.013 A 
ATOM     23  C   UNL     1       4.022  -1.693  28.836  0.00  0.00    +0.001 A 
ATOM     24  C   UNL     1       4.346  -0.543  28.116  0.00  0.00    +0.000 A 
ATOM     25  C   UNL     1       4.868  -0.649  26.829  0.00  0.00    +0.001 A 
ATOM     26  C   UNL     1       5.089  -1.908  26.268  0.00  0.00    +0.013 A 
ENDBRANCH  19  21
ENDBRANCH   1  17
BRANCH   1  27
ATOM     27  C   UNL     1       3.969  -6.751  23.988  0.00  0.00    +0.351 C 
ATOM     28  OXT UNL     1       3.957  -7.729  24.728  0.00  0.00    -0.244 OA
BRANCH  27  29
ATOM     29  O   UNL     1       3.203  -6.724  22.885  0.00  0.00    -0.476 OA
ATOM     30  H   UNL     1       2.714  -7.562  22.722  0.00  0.00    +0.295 HD
ENDBRANCH  27  29
ENDBRANCH   1  27
TORSDOF 7
ENDMDL
MODEL 9
REMARK VINA RESULT:      -6.5      4.070      8.127
REMARK  Name = 
REMARK  7 active torsions:
REMARK  status: ('A' for Active; 'I' for Inactive)
REMARK    1  A    between atoms: O_1  and  C_2
REMARK    2  A    between atoms: C_2  and  CA_4
REMARK    3  A    between atoms: CA_4  and  N_5
REMARK    4  A    between atoms: C_6  and  C_8
REMARK    5  A    between atoms: C_14  and  C_15
REMARK    6  A    between atoms: C_18  and  O_19
REMARK    7  A    between atoms: O_19  and  C_20
REMARK                            x       y       z     vdW  Elec       q    Type
REMARK                         _______ _______ _______ _____ _____    ______ ____
ROOT
ATOM      1  CA  UNL     1       7.080  -4.685  26.346  0.00  0.00    +0.119 C 
ATOM      2  C   UNL     1       7.748  -4.912  25.190  0.00  0.00    +0.038 C 
ENDROOT
BRANCH   2   3
ATOM      3  C   UNL     1       8.271  -3.862  24.306  0.00  0.00    -0.023 A 
ATOM      4  C   UNL     1       7.426  -3.238  23.384  0.00  0.00    +0.011 A 
ATOM      5  C   UNL     1       7.885  -2.154  22.627  0.00  0.00    +0.047 A 
ATOM      6  C   UNL     1       9.207  -1.717  22.756  0.00  0.00    +0.129 A 
ATOM      7  C   UNL     1      10.052  -2.346  23.673  0.00  0.00    +0.047 A 
ATOM      8  C   UNL     1       9.589  -3.416  24.444  0.00  0.00    +0.011 A 
BRANCH   6   9
ATOM      9  O   UNL     1       9.752  -0.644  22.082  0.00  0.00    -0.455 OA
BRANCH   9  10
ATOM     10  C   UNL     1       9.236   0.619  22.274  0.00  0.00    +0.142 A 
ATOM     11  C   UNL     1       9.684   1.377  23.364  0.00  0.00    +0.060 A 
ATOM     12 BR   UNL     1      11.052   0.747  24.520  0.00  0.00    -0.046 Br
ATOM     13  C   UNL     1       9.143   2.642  23.614  0.00  0.00    +0.019 A 
ATOM     14  C   UNL     1       8.178   3.168  22.753  0.00  0.00    +0.001 A 
ATOM     15  C   UNL     1       7.789   2.453  21.622  0.00  0.00    +0.004 A 
ATOM     16  C   UNL     1       8.331   1.193  21.373  0.00  0.00    +0.047 A 
ENDBRANCH   9  10
ENDBRANCH   6   9
ENDBRANCH   2   3
BRANCH   1  17
ATOM     17  N   UNL     1       6.853  -3.378  26.756  0.00  0.00    -0.276 N 
ATOM     18  H   UNL     1       7.647  -2.944  27.211  0.00  0.00    +0.155 HD
ATOM     19  C   UNL     1       5.738  -2.584  26.620  0.00  0.00    +0.248 C 
ATOM     20  O   UNL     1       4.721  -2.925  26.026  0.00  0.00    -0.270 OA
BRANCH  19  21
ATOM     21  C   UNL     1       5.844  -1.194  27.160  0.00  0.00    +0.037 A 
ATOM     22  C   UNL     1       4.912  -0.651  28.056  0.00  0.00    +0.013 A 
ATOM     23  C   UNL     1       5.102   0.633  28.570  0.00  0.00    +0.001 A 
ATOM     24  C   UNL     1       6.213   1.385  28.186  0.00  0.00    +0.000 A 
ATOM     25  C   UNL     1       7.125   0.865  27.270  0.00  0.00    +0.001 A 
ATOM     26  C   UNL     1       6.939  -0.418  26.753  0.00  0.00    +0.013 A 
ENDBRANCH  19  21
ENDBRANCH   1  17
BRANCH   1  27
ATOM     27  C   UNL     1       6.642  -5.951  27.041  0.00  0.00    +0.351 C 
ATOM     28  OXT UNL     1       5.649  -6.579  26.691  0.00  0.00    -0.244 OA
BRANCH  27  29
ATOM     29  O   UNL     1       7.310  -6.298  28.154  0.00  0.00    -0.476 OA
ATOM     30  H   UNL     1       8.288  -6.288  28.048  0.00  0.00    +0.295 HD
ENDBRANCH  27  29
ENDBRANCH   1  27
TORSDOF 7
ENDMDL
