MODEL 1
REMARK VINA RESULT:      -6.5      0.000      0.000
REMARK  Name = 
REMARK  10 active torsions:
REMARK  status: ('A' for Active; 'I' for Inactive)
REMARK    1  A    between atoms: O_1  and  P_2
REMARK    2  A    between atoms: P_2  and  O_3
REMARK    3  A    between atoms: P_2  and  O_5
REMARK    4  A    between atoms: O_5  and  C_6
REMARK    5  A    between atoms: C_6  and  C_7
REMARK    6  A    between atoms: C_7  and  N_8
REMARK    7  A    between atoms: N_8  and  S_9
REMARK    8  A    between atoms: S_9  and  C_12
REMARK    9  A    between atoms: C_15  and  O_16
REMARK   10  A    between atoms: O_16  and  C_17
REMARK                            x       y       z     vdW  Elec       q    Type
REMARK                         _______ _______ _______ _____ _____    ______ ____
ROOT
ATOM      1  S   UNL     1       8.089  -4.858  23.925  0.00  0.00    +0.058 S 
ATOM      2  O   UNL     1       7.482  -5.329  22.698  0.00  0.00    -0.153 OA
ATOM      3  O   UNL     1       9.261  -5.477  24.494  0.00  0.00    -0.153 OA
ENDROOT
BRANCH   1   4
ATOM      4  C   UNL     1       8.400  -3.124  23.704  0.00  0.00    +0.105 A 
ATOM      5  C   UNL     1       7.353  -2.290  23.295  0.00  0.00    +0.032 A 
ATOM      6  C   UNL     1       7.582  -0.922  23.106  0.00  0.00    +0.048 A 
ATOM      7  C   UNL     1       8.864  -0.398  23.275  0.00  0.00    +0.130 A 
ATOM      8  C   UNL     1       9.900  -1.246  23.690  0.00  0.00    +0.048 A 
ATOM      9  C   UNL     1       9.679  -2.608  23.901  0.00  0.00    +0.032 A 
BRANCH   7  10
ATOM     10  O   UNL     1       9.235   0.901  23.114  0.00  0.00    -0.406 OA
BRANCH  10  11
ATOM     11  C   UNL     1       9.382   1.451  21.812  0.00  0.00    +0.575 C 
ATOM     12  F   UNL     1       9.342   0.439  20.916  0.00  0.00    -0.133 F 
ATOM     13  F   UNL     1      10.585   2.054  21.714  0.00  0.00    -0.133 F 
ATOM     14  F   UNL     1       8.421   2.337  21.474  0.00  0.00    -0.133 F 
ENDBRANCH  10  11
ENDBRANCH   7  10
ENDBRANCH   1   4
BRANCH   1  15
ATOM     15  N   UNL     1       6.870  -4.865  25.100  0.00  0.00    -0.188 NA
ATOM     16  H   UNL     1       7.194  -5.306  25.962  0.00  0.00    +0.148 HD
BRANCH  15  17
ATOM     17  C   UNL     1       5.524  -5.306  24.674  0.00  0.00    +0.134 C 
BRANCH  17  18
ATOM     18  C   UNL     1       4.771  -5.856  25.895  0.00  0.00    +0.189 C 
BRANCH  18  19
ATOM     19  O   UNL     1       5.555  -6.751  26.693  0.00  0.00    -0.285 OA
BRANCH  19  20
ATOM     20  P   UNL     1       5.944  -6.213  28.291  0.00  0.00    +0.472 P 
ATOM     21  O   UNL     1       5.890  -7.617  28.898  0.00  0.00    -0.228 OA
BRANCH  20  22
ATOM     22  O   UNL     1       6.334  -5.674  29.888  0.00  0.00    -0.303 OA
ATOM     23  H   UNL     1       5.872  -6.345  30.436  0.00  0.00    +0.222 HD
ENDBRANCH  20  22
BRANCH  20  24
ATOM     24  O   UNL     1       7.498  -5.970  27.873  0.00  0.00    -0.303 OA
ATOM     25  H   UNL     1       7.655  -5.060  27.569  0.00  0.00    +0.222 HD
ENDBRANCH  20  24
ENDBRANCH  19  20
ENDBRANCH  18  19
ENDBRANCH  17  18
ENDBRANCH  15  17
ENDBRANCH   1  15
TORSDOF 10
ENDMDL
MODEL 2
REMARK VINA RESULT:      -6.3      5.492      8.989
REMARK  Name = 
REMARK  10 active torsions:
REMARK  status: ('A' for Active; 'I' for Inactive)
REMARK    1  A    between atoms: O_1  and  P_2
REMARK    2  A    between atoms: P_2  and  O_3
REMARK    3  A    between atoms: P_2  and  O_5
REMARK    4  A    between atoms: O_5  and  C_6
REMARK    5  A    between atoms: C_6  and  C_7
REMARK    6  A    between atoms: C_7  and  N_8
REMARK    7  A    between atoms: N_8  and  S_9
REMARK    8  A    between atoms: S_9  and  C_12
REMARK    9  A    between atoms: C_15  and  O_16
REMARK   10  A    between atoms: O_16  and  C_17
REMARK                            x       y       z     vdW  Elec       q    Type
REMARK                         _______ _______ _______ _____ _____    ______ ____
ROOT
ATOM      1  S   UNL     1       9.265   2.001  22.317  0.00  0.00    +0.058 S 
ATOM      2  O   UNL     1      10.555   2.354  21.765  0.00  0.00    -0.153 OA
ATOM      3  O   UNL     1       8.035   2.174  21.582  0.00  0.00    -0.153 OA
ENDROOT
BRANCH   1   4
ATOM      4  C   UNL     1       9.387   0.310  22.849  0.00  0.00    +0.105 A 
ATOM      5  C   UNL     1       9.237  -0.713  21.907  0.00  0.00    +0.032 A 
ATOM      6  C   UNL     1       9.321  -2.052  22.309  0.00  0.00    +0.048 A 
ATOM      7  C   UNL     1       9.501  -2.366  23.656  0.00  0.00    +0.130 A 
ATOM      8  C   UNL     1       9.654  -1.329  24.587  0.00  0.00    +0.048 A 
ATOM      9  C   UNL     1       9.593   0.009  24.193  0.00  0.00    +0.032 A 
BRANCH   7  10
ATOM     10  O   UNL     1       9.586  -3.614  24.191  0.00  0.00    -0.406 OA
BRANCH  10  11
ATOM     11  C   UNL     1       8.412  -4.379  24.425  0.00  0.00    +0.575 C 
ATOM     12  F   UNL     1       8.408  -4.765  25.720  0.00  0.00    -0.133 F 
ATOM     13  F   UNL     1       8.439  -5.487  23.655  0.00  0.00    -0.133 F 
ATOM     14  F   UNL     1       7.263  -3.713  24.190  0.00  0.00    -0.133 F 
ENDBRANCH  10  11
ENDBRANCH   7  10
ENDBRANCH   1   4
BRANCH   1  15
ATOM     15  N   UNL     1       9.122   2.836  23.783  0.00  0.00    -0.188 NA
ATOM     16  H   UNL     1       8.565   2.305  24.454  0.00  0.00    +0.148 HD
BRANCH  15  17
ATOM     17  C   UNL     1       8.764   4.269  23.710  0.00  0.00    +0.134 C 
BRANCH  17  18
ATOM     18  C   UNL     1       9.918   5.100  24.292  0.00  0.00    +0.189 C 
BRANCH  18  19
ATOM     19  O   UNL     1      10.675   5.800  23.296  0.00  0.00    -0.285 OA
BRANCH  19  20
ATOM     20  P   UNL     1      12.367   5.446  23.230  0.00  0.00    +0.472 P 
ATOM     21  O   UNL     1      12.661   6.047  24.607  0.00  0.00    -0.228 OA
BRANCH  20  22
ATOM     22  O   UNL     1      14.059   5.091  23.164  0.00  0.00    -0.303 OA
ATOM     23  H   UNL     1      14.383   5.541  23.974  0.00  0.00    +0.222 HD
ENDBRANCH  20  22
BRANCH  20  24
ATOM     24  O   UNL     1      12.087   3.864  23.488  0.00  0.00    -0.303 OA
ATOM     25  H   UNL     1      12.360   3.317  22.732  0.00  0.00    +0.222 HD
ENDBRANCH  20  24
ENDBRANCH  19  20
ENDBRANCH  18  19
ENDBRANCH  17  18
ENDBRANCH  15  17
ENDBRANCH   1  15
TORSDOF 10
ENDMDL
MODEL 3
REMARK VINA RESULT:      -6.2      1.304      1.896
REMARK  Name = 
REMARK  10 active torsions:
REMARK  status: ('A' for Active; 'I' for Inactive)
REMARK    1  A    between atoms: O_1  and  P_2
REMARK    2  A    between atoms: P_2  and  O_3
REMARK    3  A    between atoms: P_2  and  O_5
REMARK    4  A    between atoms: O_5  and  C_6
REMARK    5  A    between atoms: C_6  and  C_7
REMARK    6  A    between atoms: C_7  and  N_8
REMARK    7  A    between atoms: N_8  and  S_9
REMARK    8  A    between atoms: S_9  and  C_12
REMARK    9  A    between atoms: C_15  and  O_16
REMARK   10  A    between atoms: O_16  and  C_17
REMARK                            x       y       z     vdW  Elec       q    Type
REMARK                         _______ _______ _______ _____ _____    ______ ____
ROOT
ATOM      1  S   UNL     1       7.598  -4.833  24.093  0.00  0.00    +0.058 S 
ATOM      2  O   UNL     1       7.363  -5.731  22.983  0.00  0.00    -0.153 OA
ATOM      3  O   UNL     1       8.284  -5.249  25.292  0.00  0.00    -0.153 OA
ENDROOT
BRANCH   1   4
ATOM      4  C   UNL     1       8.417  -3.405  23.425  0.00  0.00    +0.105 A 
ATOM      5  C   UNL     1       9.530  -2.882  24.093  0.00  0.00    +0.032 A 
ATOM      6  C   UNL     1      10.182  -1.752  23.586  0.00  0.00    +0.048 A 
ATOM      7  C   UNL     1       9.692  -1.115  22.446  0.00  0.00    +0.130 A 
ATOM      8  C   UNL     1       8.579  -1.654  21.786  0.00  0.00    +0.048 A 
ATOM      9  C   UNL     1       7.933  -2.794  22.270  0.00  0.00    +0.032 A 
BRANCH   7  10
ATOM     10  O   UNL     1      10.211  -0.007  21.852  0.00  0.00    -0.406 OA
BRANCH  10  11
ATOM     11  C   UNL     1       9.581   1.257  22.011  0.00  0.00    +0.575 C 
ATOM     12  F   UNL     1      10.526   2.218  21.905  0.00  0.00    -0.133 F 
ATOM     13  F   UNL     1       9.039   1.335  23.245  0.00  0.00    -0.133 F 
ATOM     14  F   UNL     1       8.624   1.517  21.097  0.00  0.00    -0.133 F 
ENDBRANCH  10  11
ENDBRANCH   7  10
ENDBRANCH   1   4
BRANCH   1  15
ATOM     15  N   UNL     1       6.088  -4.212  24.541  0.00  0.00    -0.188 NA
ATOM     16  H   UNL     1       5.503  -4.045  23.721  0.00  0.00    +0.148 HD
BRANCH  15  17
ATOM     17  C   UNL     1       6.078  -3.102  25.518  0.00  0.00    +0.134 C 
BRANCH  17  18
ATOM     18  C   UNL     1       5.383  -3.578  26.804  0.00  0.00    +0.189 C 
BRANCH  18  19
ATOM     19  O   UNL     1       6.266  -4.242  27.717  0.00  0.00    -0.285 OA
BRANCH  19  20
ATOM     20  P   UNL     1       5.883  -5.886  28.095  0.00  0.00    +0.472 P 
ATOM     21  O   UNL     1       5.312  -6.191  26.708  0.00  0.00    -0.228 OA
BRANCH  20  22
ATOM     22  O   UNL     1       5.500  -7.530  28.474  0.00  0.00    -0.303 OA
ATOM     23  H   UNL     1       5.053  -7.820  27.650  0.00  0.00    +0.222 HD
ENDBRANCH  20  22
BRANCH  20  24
ATOM     24  O   UNL     1       7.453  -6.309  28.032  0.00  0.00    -0.303 OA
ATOM     25  H   UNL     1       7.621  -7.155  28.480  0.00  0.00    +0.222 HD
ENDBRANCH  20  24
ENDBRANCH  19  20
ENDBRANCH  18  19
ENDBRANCH  17  18
ENDBRANCH  15  17
ENDBRANCH   1  15
TORSDOF 10
ENDMDL
MODEL 4
REMARK VINA RESULT:      -6.2      2.274      3.125
REMARK  Name = 
REMARK  10 active torsions:
REMARK  status: ('A' for Active; 'I' for Inactive)
REMARK    1  A    between atoms: O_1  and  P_2
REMARK    2  A    between atoms: P_2  and  O_3
REMARK    3  A    between atoms: P_2  and  O_5
REMARK    4  A    between atoms: O_5  and  C_6
REMARK    5  A    between atoms: C_6  and  C_7
REMARK    6  A    between atoms: C_7  and  N_8
REMARK    7  A    between atoms: N_8  and  S_9
REMARK    8  A    between atoms: S_9  and  C_12
REMARK    9  A    between atoms: C_15  and  O_16
REMARK   10  A    between atoms: O_16  and  C_17
REMARK                            x       y       z     vdW  Elec       q    Type
REMARK                         _______ _______ _______ _____ _____    ______ ____
ROOT
ATOM      1  S   UNL     1       8.721  -4.738  25.293  0.00  0.00    +0.058 S 
ATOM      2  O   UNL     1       9.520  -5.832  24.785  0.00  0.00    -0.153 OA
ATOM      3  O   UNL     1       8.910  -4.191  26.614  0.00  0.00    -0.153 OA
ENDROOT
BRANCH   1   4
ATOM      4  C   UNL     1       8.842  -3.426  24.101  0.00  0.00    +0.105 A 
ATOM      5  C   UNL     1       7.742  -3.146  23.282  0.00  0.00    +0.032 A 
ATOM      6  C   UNL     1       7.822  -2.122  22.331  0.00  0.00    +0.048 A 
ATOM      7  C   UNL     1       9.014  -1.417  22.162  0.00  0.00    +0.130 A 
ATOM      8  C   UNL     1      10.104  -1.706  22.994  0.00  0.00    +0.048 A 
ATOM      9  C   UNL     1      10.029  -2.711  23.961  0.00  0.00    +0.032 A 
BRANCH   7  10
ATOM     10  O   UNL     1       9.240  -0.412  21.273  0.00  0.00    -0.406 OA
BRANCH  10  11
ATOM     11  C   UNL     1       9.075   0.945  21.663  0.00  0.00    +0.575 C 
ATOM     12  F   UNL     1       8.246   1.542  20.778  0.00  0.00    -0.133 F 
ATOM     13  F   UNL     1      10.268   1.574  21.615  0.00  0.00    -0.133 F 
ATOM     14  F   UNL     1       8.546   1.106  22.894  0.00  0.00    -0.133 F 
ENDBRANCH  10  11
ENDBRANCH   7  10
ENDBRANCH   1   4
BRANCH   1  15
ATOM     15  N   UNL     1       7.103  -5.214  25.149  0.00  0.00    -0.188 NA
ATOM     16  H   UNL     1       6.572  -4.544  24.591  0.00  0.00    +0.148 HD
BRANCH  15  17
ATOM     17  C   UNL     1       6.413  -5.642  26.386  0.00  0.00    +0.134 C 
BRANCH  17  18
ATOM     18  C   UNL     1       4.899  -5.673  26.126  0.00  0.00    +0.189 C 
BRANCH  18  19
ATOM     19  O   UNL     1       4.524  -5.097  24.868  0.00  0.00    -0.285 OA
BRANCH  19  20
ATOM     20  P   UNL     1       3.593  -6.101  23.811  0.00  0.00    +0.472 P 
ATOM     21  O   UNL     1       3.810  -5.208  22.587  0.00  0.00    -0.228 OA
BRANCH  20  22
ATOM     22  O   UNL     1       2.662  -7.107  22.756  0.00  0.00    -0.303 OA
ATOM     23  H   UNL     1       2.018  -6.461  22.392  0.00  0.00    +0.222 HD
ENDBRANCH  20  22
BRANCH  20  24
ATOM     24  O   UNL     1       4.777  -7.216  23.763  0.00  0.00    -0.303 OA
ATOM     25  H   UNL     1       4.990  -7.559  24.647  0.00  0.00    +0.222 HD
ENDBRANCH  20  24
ENDBRANCH  19  20
ENDBRANCH  18  19
ENDBRANCH  17  18
ENDBRANCH  15  17
ENDBRANCH   1  15
TORSDOF 10
ENDMDL
MODEL 5
REMARK VINA RESULT:      -6.2      3.506      4.566
REMARK  Name = 
REMARK  10 active torsions:
REMARK  status: ('A' for Active; 'I' for Inactive)
REMARK    1  A    between atoms: O_1  and  P_2
REMARK    2  A    between atoms: P_2  and  O_3
REMARK    3  A    between atoms: P_2  and  O_5
REMARK    4  A    between atoms: O_5  and  C_6
REMARK    5  A    between atoms: C_6  and  C_7
REMARK    6  A    between atoms: C_7  and  N_8
REMARK    7  A    between atoms: N_8  and  S_9
REMARK    8  A    between atoms: S_9  and  C_12
REMARK    9  A    between atoms: C_15  and  O_16
REMARK   10  A    between atoms: O_16  and  C_17
REMARK                            x       y       z     vdW  Elec       q    Type
REMARK                         _______ _______ _______ _____ _____    ______ ____
ROOT
ATOM      1  S   UNL     1       9.267  -1.985  23.005  0.00  0.00    +0.058 S 
ATOM      2  O   UNL     1       8.793  -2.167  21.650  0.00  0.00    -0.153 OA
ATOM      3  O   UNL     1      10.318  -2.795  23.572  0.00  0.00    -0.153 OA
ENDROOT
BRANCH   1   4
ATOM      4  C   UNL     1       9.709  -0.272  23.161  0.00  0.00    +0.105 A 
ATOM      5  C   UNL     1       9.950   0.257  24.434  0.00  0.00    +0.032 A 
ATOM      6  C   UNL     1      10.290   1.607  24.578  0.00  0.00    +0.048 A 
ATOM      7  C   UNL     1      10.337   2.438  23.459  0.00  0.00    +0.130 A 
ATOM      8  C   UNL     1      10.098   1.893  22.190  0.00  0.00    +0.048 A 
ATOM      9  C   UNL     1       9.779   0.542  22.033  0.00  0.00    +0.032 A 
BRANCH   7  10
ATOM     10  O   UNL     1      10.638   3.765  23.448  0.00  0.00    -0.406 OA
BRANCH  10  11
ATOM     11  C   UNL     1       9.633   4.733  23.720  0.00  0.00    +0.575 C 
ATOM     12  F   UNL     1      10.126   5.954  23.415  0.00  0.00    -0.133 F 
ATOM     13  F   UNL     1       9.339   4.714  25.038  0.00  0.00    -0.133 F 
ATOM     14  F   UNL     1       8.495   4.561  23.017  0.00  0.00    -0.133 F 
ENDBRANCH  10  11
ENDBRANCH   7  10
ENDBRANCH   1   4
BRANCH   1  15
ATOM     15  N   UNL     1       7.911  -2.106  24.011  0.00  0.00    -0.188 NA
ATOM     16  H   UNL     1       7.670  -1.198  24.411  0.00  0.00    +0.148 HD
BRANCH  15  17
ATOM     17  C   UNL     1       7.894  -3.215  24.990  0.00  0.00    +0.134 C 
BRANCH  17  18
ATOM     18  C   UNL     1       7.044  -4.364  24.426  0.00  0.00    +0.189 C 
BRANCH  18  19
ATOM     19  O   UNL     1       7.718  -5.133  23.422  0.00  0.00    -0.285 OA
BRANCH  19  20
ATOM     20  P   UNL     1       6.846  -5.411  21.954  0.00  0.00    +0.472 P 
ATOM     21  O   UNL     1       5.689  -6.136  22.647  0.00  0.00    -0.228 OA
BRANCH  20  22
ATOM     22  O   UNL     1       5.975  -5.688  20.486  0.00  0.00    -0.303 OA
ATOM     23  H   UNL     1       5.402  -6.444  20.741  0.00  0.00    +0.222 HD
ENDBRANCH  20  22
BRANCH  20  24
ATOM     24  O   UNL     1       6.406  -3.847  21.873  0.00  0.00    -0.303 OA
ATOM     25  H   UNL     1       5.960  -3.551  22.685  0.00  0.00    +0.222 HD
ENDBRANCH  20  24
ENDBRANCH  19  20
ENDBRANCH  18  19
ENDBRANCH  17  18
ENDBRANCH  15  17
ENDBRANCH   1  15
TORSDOF 10
ENDMDL
MODEL 6
REMARK VINA RESULT:      -6.1      2.747      3.645
REMARK  Name = 
REMARK  10 active torsions:
REMARK  status: ('A' for Active; 'I' for Inactive)
REMARK    1  A    between atoms: O_1  and  P_2
REMARK    2  A    between atoms: P_2  and  O_3
REMARK    3  A    between atoms: P_2  and  O_5
REMARK    4  A    between atoms: O_5  and  C_6
REMARK    5  A    between atoms: C_6  and  C_7
REMARK    6  A    between atoms: C_7  and  N_8
REMARK    7  A    between atoms: N_8  and  S_9
REMARK    8  A    between atoms: S_9  and  C_12
REMARK    9  A    between atoms: C_15  and  O_16
REMARK   10  A    between atoms: O_16  and  C_17
REMARK                            x       y       z     vdW  Elec       q    Type
REMARK                         _______ _______ _______ _____ _____    ______ ____
ROOT
ATOM      1  S   UNL     1       9.136  -1.956  22.988  0.00  0.00    +0.058 S 
ATOM      2  O   UNL     1       8.709  -2.168  21.622  0.00  0.00    -0.153 OA
ATOM      3  O   UNL     1      10.184  -2.736  23.601  0.00  0.00    -0.153 OA
ENDROOT
BRANCH   1   4
ATOM      4  C   UNL     1       9.538  -0.232  23.132  0.00  0.00    +0.105 A 
ATOM      5  C   UNL     1       9.773   0.512  21.971  0.00  0.00    +0.032 A 
ATOM      6  C   UNL     1      10.101   1.870  22.065  0.00  0.00    +0.048 A 
ATOM      7  C   UNL     1      10.246   2.468  23.317  0.00  0.00    +0.130 A 
ATOM      8  C   UNL     1      10.003   1.710  24.470  0.00  0.00    +0.048 A 
ATOM      9  C   UNL     1       9.655   0.360  24.388  0.00  0.00    +0.032 A 
BRANCH   7  10
ATOM     10  O   UNL     1      10.573   3.766  23.560  0.00  0.00    -0.406 OA
BRANCH  10  11
ATOM     11  C   UNL     1       9.557   4.741  23.751  0.00  0.00    +0.575 C 
ATOM     12  F   UNL     1       9.294   4.826  25.074  0.00  0.00    -0.133 F 
ATOM     13  F   UNL     1       8.431   4.342  23.123  0.00  0.00    -0.133 F 
ATOM     14  F   UNL     1       9.885   5.975  23.317  0.00  0.00    -0.133 F 
ENDBRANCH  10  11
ENDBRANCH   7  10
ENDBRANCH   1   4
BRANCH   1  15
ATOM     15  N   UNL     1       7.750  -2.090  23.953  0.00  0.00    -0.188 NA
ATOM     16  H   UNL     1       7.999  -2.235  24.932  0.00  0.00    +0.148 HD
BRANCH  15  17
ATOM     17  C   UNL     1       6.676  -2.984  23.469  0.00  0.00    +0.134 C 
BRANCH  17  18
ATOM     18  C   UNL     1       7.084  -4.441  23.736  0.00  0.00    +0.189 C 
BRANCH  18  19
ATOM     19  O   UNL     1       6.922  -4.838  25.104  0.00  0.00    -0.285 OA
BRANCH  19  20
ATOM     20  P   UNL     1       8.359  -4.875  26.067  0.00  0.00    +0.472 P 
ATOM     21  O   UNL     1       8.120  -3.492  26.678  0.00  0.00    -0.228 OA
BRANCH  20  22
ATOM     22  O   UNL     1       9.795  -4.913  27.030  0.00  0.00    -0.303 OA
ATOM     23  H   UNL     1       9.730  -5.803  27.439  0.00  0.00    +0.222 HD
ENDBRANCH  20  22
BRANCH  20  24
ATOM     24  O   UNL     1       7.687  -5.938  27.099  0.00  0.00    -0.303 OA
ATOM     25  H   UNL     1       6.976  -5.536  27.626  0.00  0.00    +0.222 HD
ENDBRANCH  20  24
ENDBRANCH  19  20
ENDBRANCH  18  19
ENDBRANCH  17  18
ENDBRANCH  15  17
ENDBRANCH   1  15
TORSDOF 10
ENDMDL
MODEL 7
REMARK VINA RESULT:      -6.1      1.728      2.102
REMARK  Name = 
REMARK  10 active torsions:
REMARK  status: ('A' for Active; 'I' for Inactive)
REMARK    1  A    between atoms: O_1  and  P_2
REMARK    2  A    between atoms: P_2  and  O_3
REMARK    3  A    between atoms: P_2  and  O_5
REMARK    4  A    between atoms: O_5  and  C_6
REMARK    5  A    between atoms: C_6  and  C_7
REMARK    6  A    between atoms: C_7  and  N_8
REMARK    7  A    between atoms: N_8  and  S_9
REMARK    8  A    between atoms: S_9  and  C_12
REMARK    9  A    between atoms: C_15  and  O_16
REMARK   10  A    between atoms: O_16  and  C_17
REMARK                            x       y       z     vdW  Elec       q    Type
REMARK                         _______ _______ _______ _____ _____    ______ ____
ROOT
ATOM      1  S   UNL     1       6.410  -4.323  22.117  0.00  0.00    +0.058 S 
ATOM      2  O   UNL     1       5.692  -3.598  21.091  0.00  0.00    -0.153 OA
ATOM      3  O   UNL     1       7.240  -5.465  21.820  0.00  0.00    -0.153 OA
ENDROOT
BRANCH   1   4
ATOM      4  C   UNL     1       7.372  -3.123  23.006  0.00  0.00    +0.105 A 
ATOM      5  C   UNL     1       6.962  -1.786  23.006  0.00  0.00    +0.032 A 
ATOM      6  C   UNL     1       7.714  -0.825  23.693  0.00  0.00    +0.048 A 
ATOM      7  C   UNL     1       8.898  -1.190  24.332  0.00  0.00    +0.130 A 
ATOM      8  C   UNL     1       9.293  -2.535  24.326  0.00  0.00    +0.048 A 
ATOM      9  C   UNL     1       8.540  -3.506  23.662  0.00  0.00    +0.032 A 
BRANCH   7  10
ATOM     10  O   UNL     1       9.733  -0.366  25.022  0.00  0.00    -0.406 OA
BRANCH  10  11
ATOM     11  C   UNL     1      10.500   0.616  24.340  0.00  0.00    +0.575 C 
ATOM     12  F   UNL     1      11.737   0.643  24.886  0.00  0.00    -0.133 F 
ATOM     13  F   UNL     1       9.935   1.829  24.517  0.00  0.00    -0.133 F 
ATOM     14  F   UNL     1      10.640   0.389  23.018  0.00  0.00    -0.133 F 
ENDBRANCH  10  11
ENDBRANCH   7  10
ENDBRANCH   1   4
BRANCH   1  15
ATOM     15  N   UNL     1       5.261  -4.795  23.268  0.00  0.00    -0.188 NA
ATOM     16  H   UNL     1       4.922  -3.991  23.798  0.00  0.00    +0.148 HD
BRANCH  15  17
ATOM     17  C   UNL     1       5.588  -5.969  24.105  0.00  0.00    +0.134 C 
BRANCH  17  18
ATOM     18  C   UNL     1       5.140  -5.691  25.549  0.00  0.00    +0.189 C 
BRANCH  18  19
ATOM     19  O   UNL     1       5.605  -6.668  26.489  0.00  0.00    -0.285 OA
BRANCH  19  20
ATOM     20  P   UNL     1       5.937  -6.097  28.088  0.00  0.00    +0.472 P 
ATOM     21  O   UNL     1       5.685  -7.455  28.747  0.00  0.00    -0.228 OA
BRANCH  20  22
ATOM     22  O   UNL     1       6.270  -5.525  29.685  0.00  0.00    -0.303 OA
ATOM     23  H   UNL     1       6.437  -4.572  29.518  0.00  0.00    +0.222 HD
ENDBRANCH  20  22
BRANCH  20  24
ATOM     24  O   UNL     1       7.534  -6.043  27.779  0.00  0.00    -0.303 OA
ATOM     25  H   UNL     1       7.969  -5.306  28.240  0.00  0.00    +0.222 HD
ENDBRANCH  20  24
ENDBRANCH  19  20
ENDBRANCH  18  19
ENDBRANCH  17  18
ENDBRANCH  15  17
ENDBRANCH   1  15
TORSDOF 10
ENDMDL
MODEL 8
REMARK VINA RESULT:      -6.0      2.157      2.814
REMARK  Name = 
REMARK  10 active torsions:
REMARK  status: ('A' for Active; 'I' for Inactive)
REMARK    1  A    between atoms: O_1  and  P_2
REMARK    2  A    between atoms: P_2  and  O_3
REMARK    3  A    between atoms: P_2  and  O_5
REMARK    4  A    between atoms: O_5  and  C_6
REMARK    5  A    between atoms: C_6  and  C_7
REMARK    6  A    between atoms: C_7  and  N_8
REMARK    7  A    between atoms: N_8  and  S_9
REMARK    8  A    between atoms: S_9  and  C_12
REMARK    9  A    between atoms: C_15  and  O_16
REMARK   10  A    between atoms: O_16  and  C_17
REMARK                            x       y       z     vdW  Elec       q    Type
REMARK                         _______ _______ _______ _____ _____    ______ ____
ROOT
ATOM      1  S   UNL     1       6.547  -3.583  22.443  0.00  0.00    +0.058 S 
ATOM      2  O   UNL     1       5.613  -3.375  21.357  0.00  0.00    -0.153 OA
ATOM      3  O   UNL     1       7.429  -4.724  22.496  0.00  0.00    -0.153 OA
ENDROOT
BRANCH   1   4
ATOM      4  C   UNL     1       7.513  -2.098  22.572  0.00  0.00    +0.105 A 
ATOM      5  C   UNL     1       6.910  -0.933  23.059  0.00  0.00    +0.032 A 
ATOM      6  C   UNL     1       7.654   0.249  23.159  0.00  0.00    +0.048 A 
ATOM      7  C   UNL     1       8.979   0.280  22.725  0.00  0.00    +0.130 A 
ATOM      8  C   UNL     1       9.569  -0.897  22.244  0.00  0.00    +0.048 A 
ATOM      9  C   UNL     1       8.843  -2.087  22.159  0.00  0.00    +0.032 A 
BRANCH   7  10
ATOM     10  O   UNL     1       9.813   1.354  22.748  0.00  0.00    -0.406 OA
BRANCH  10  11
ATOM     11  C   UNL     1      10.516   1.693  23.935  0.00  0.00    +0.575 C 
ATOM     12  F   UNL     1       9.611   1.999  24.892  0.00  0.00    -0.133 F 
ATOM     13  F   UNL     1      11.276   2.785  23.710  0.00  0.00    -0.133 F 
ATOM     14  F   UNL     1      11.302   0.706  24.414  0.00  0.00    -0.133 F 
ENDBRANCH  10  11
ENDBRANCH   7  10
ENDBRANCH   1   4
BRANCH   1  15
ATOM     15  N   UNL     1       5.639  -3.555  23.872  0.00  0.00    -0.188 NA
ATOM     16  H   UNL     1       5.859  -2.728  24.429  0.00  0.00    +0.148 HD
BRANCH  15  17
ATOM     17  C   UNL     1       5.579  -4.806  24.658  0.00  0.00    +0.134 C 
BRANCH  17  18
ATOM     18  C   UNL     1       5.679  -4.461  26.152  0.00  0.00    +0.189 C 
BRANCH  18  19
ATOM     19  O   UNL     1       6.977  -3.999  26.545  0.00  0.00    -0.285 OA
BRANCH  19  20
ATOM     20  P   UNL     1       8.314  -5.009  26.113  0.00  0.00    +0.472 P 
ATOM     21  O   UNL     1       9.360  -4.085  26.741  0.00  0.00    -0.228 OA
BRANCH  20  22
ATOM     22  O   UNL     1       9.649  -6.020  25.681  0.00  0.00    -0.303 OA
ATOM     23  H   UNL     1      10.207  -5.958  26.487  0.00  0.00    +0.222 HD
ENDBRANCH  20  22
BRANCH  20  24
ATOM     24  O   UNL     1       7.923  -6.087  27.267  0.00  0.00    -0.303 OA
ATOM     25  H   UNL     1       6.969  -6.270  27.287  0.00  0.00    +0.222 HD
ENDBRANCH  20  24
ENDBRANCH  19  20
ENDBRANCH  18  19
ENDBRANCH  17  18
ENDBRANCH  15  17
ENDBRANCH   1  15
TORSDOF 10
ENDMDL
MODEL 9
REMARK VINA RESULT:      -6.0      3.701      4.628
REMARK  Name = 
REMARK  10 active torsions:
REMARK  status: ('A' for Active; 'I' for Inactive)
REMARK    1  A    between atoms: O_1  and  P_2
REMARK    2  A    between atoms: P_2  and  O_3
REMARK    3  A    between atoms: P_2  and  O_5
REMARK    4  A    between atoms: O_5  and  C_6
REMARK    5  A    between atoms: C_6  and  C_7
REMARK    6  A    between atoms: C_7  and  N_8
REMARK    7  A    between atoms: N_8  and  S_9
REMARK    8  A    between atoms: S_9  and  C_12
REMARK    9  A    between atoms: C_15  and  O_16
REMARK   10  A    between atoms: O_16  and  C_17
REMARK                            x       y       z     vdW  Elec       q    Type
REMARK                         _______ _______ _______ _____ _____    ______ ____
ROOT
ATOM      1  S   UNL     1       9.355  -1.546  23.027  0.00  0.00    +0.058 S 
ATOM      2  O   UNL     1       9.618  -1.900  21.649  0.00  0.00    -0.153 OA
ATOM      3  O   UNL     1      10.010  -2.204  24.132  0.00  0.00    -0.153 OA
ENDROOT
BRANCH   1   4
ATOM      4  C   UNL     1       9.616   0.205  23.161  0.00  0.00    +0.105 A 
ATOM      5  C   UNL     1       9.998   0.926  22.024  0.00  0.00    +0.032 A 
ATOM      6  C   UNL     1      10.217   2.306  22.112  0.00  0.00    +0.048 A 
ATOM      7  C   UNL     1      10.107   2.954  23.342  0.00  0.00    +0.130 A 
ATOM      8  C   UNL     1       9.719   2.218  24.471  0.00  0.00    +0.048 A 
ATOM      9  C   UNL     1       9.477   0.845  24.390  0.00  0.00    +0.032 A 
BRANCH   7  10
ATOM     10  O   UNL     1      10.304   4.279  23.580  0.00  0.00    -0.406 OA
BRANCH  10  11
ATOM     11  C   UNL     1      11.606   4.840  23.495  0.00  0.00    +0.575 C 
ATOM     12  F   UNL     1      12.507   3.836  23.581  0.00  0.00    -0.133 F 
ATOM     13  F   UNL     1      11.804   5.673  24.538  0.00  0.00    -0.133 F 
ATOM     14  F   UNL     1      11.846   5.511  22.349  0.00  0.00    -0.133 F 
ENDBRANCH  10  11
ENDBRANCH   7  10
ENDBRANCH   1   4
BRANCH   1  15
ATOM     15  N   UNL     1       7.683  -1.685  23.250  0.00  0.00    -0.188 NA
ATOM     16  H   UNL     1       7.454  -1.807  24.238  0.00  0.00    +0.148 HD
BRANCH  15  17
ATOM     17  C   UNL     1       6.956  -2.608  22.351  0.00  0.00    +0.134 C 
BRANCH  17  18
ATOM     18  C   UNL     1       5.696  -3.115  23.070  0.00  0.00    +0.189 C 
BRANCH  18  19
ATOM     19  O   UNL     1       4.954  -4.077  22.310  0.00  0.00    -0.285 OA
BRANCH  19  20
ATOM     20  P   UNL     1       4.830  -5.662  22.992  0.00  0.00    +0.472 P 
ATOM     21  O   UNL     1       3.322  -5.768  22.756  0.00  0.00    -0.228 OA
BRANCH  20  22
ATOM     22  O   UNL     1       4.708  -7.247  23.673  0.00  0.00    -0.303 OA
ATOM     23  H   UNL     1       4.285  -7.054  24.537  0.00  0.00    +0.222 HD
ENDBRANCH  20  22
BRANCH  20  24
ATOM     24  O   UNL     1       5.532  -6.323  21.681  0.00  0.00    -0.303 OA
ATOM     25  H   UNL     1       5.140  -7.183  21.452  0.00  0.00    +0.222 HD
ENDBRANCH  20  24
ENDBRANCH  19  20
ENDBRANCH  18  19
ENDBRANCH  17  18
ENDBRANCH  15  17
ENDBRANCH   1  15
TORSDOF 10
ENDMDL
