MODEL 1
REMARK VINA RESULT:      -7.6      0.000      0.000
REMARK  Name = 
REMARK  12 active torsions:
REMARK  status: ('A' for Active; 'I' for Inactive)
REMARK    1  A    between atoms: C_1  and  O_2
REMARK    2  A    between atoms: O_2  and  C_3
REMARK    3  A    between atoms: C_12  and  O_13
REMARK    4  A    between atoms: C_17  and  O_18
REMARK    5  A    between atoms: C_17  and  C_36
REMARK    6  A    between atoms: C_20  and  O_22
REMARK    7  A    between atoms: O_22  and  C_23
REMARK    8  A    between atoms: C_26  and  N_28
REMARK    9  A    between atoms: C_29  and  O_31
REMARK   10  A    between atoms: C_32  and  C_34
REMARK   11  A    between atoms: C_36  and  C_37
REMARK   12  A    between atoms: C_39  and  O_40
REMARK                            x       y       z     vdW  Elec       q    Type
REMARK                         _______ _______ _______ _____ _____    ______ ____
ROOT
ATOM      1  C   UNL     1      11.111   5.123  23.751  0.00  0.00    +0.132 A 
ATOM      2  C   UNL     1       9.917   4.441  24.088  0.00  0.00    +0.075 A 
ATOM      3  C   UNL     1       9.532   3.141  23.480  0.00  0.00    +0.202 C 
ATOM      4  C   UNL     1       8.380   2.377  24.018  0.00  0.00    +0.078 A 
ATOM      5  C   UNL     1       7.572   2.918  25.016  0.00  0.00    +0.078 A 
ATOM      6  C   UNL     1       7.831   4.306  25.473  0.00  0.00    +0.198 C 
ATOM      7  O   UNL     1       7.065   4.913  26.209  0.00  0.00    -0.286 OA
ATOM      8  C   UNL     1       6.520   2.145  25.552  0.00  0.00    +0.132 A 
ATOM      9  C   UNL     1       6.302   0.811  25.152  0.00  0.00    +0.007 A 
ATOM     10  C   UNL     1       5.170  -0.005  25.768  0.00  0.00    +0.082 C 
ATOM     11  C   UNL     1       5.263  -1.513  25.520  0.00  0.00    +0.130 C 
ATOM     12  C   UNL     1       5.638  -1.762  24.056  0.00  0.00    +0.079 C 
ATOM     13  C   UNL     1       7.034  -1.214  23.768  0.00  0.00    +0.158 C 
ATOM     14  C   UNL     1       7.127   0.260  24.146  0.00  0.00    +0.030 A 
ATOM     15  C   UNL     1       8.118   1.070  23.559  0.00  0.00    +0.134 A 
ATOM     16  O   UNL     1      10.145   2.653  22.536  0.00  0.00    -0.286 OA
ATOM     17  C   UNL     1       9.061   4.997  25.035  0.00  0.00    +0.037 A 
ATOM     18  C   UNL     1       9.345   6.252  25.602  0.00  0.00    +0.012 A 
ATOM     19  C   UNL     1      10.495   6.940  25.245  0.00  0.00    +0.004 A 
ATOM     20  C   UNL     1      11.376   6.378  24.325  0.00  0.00    +0.046 A 
ENDROOT
BRANCH  11  21
ATOM     21  C   UNL     1       3.909  -2.182  25.813  0.00  0.00    +0.162 C 
ATOM     22  O   UNL     1       3.041  -1.625  26.489  0.00  0.00    -0.295 OA
ATOM     23  C   UNL     1       3.696  -3.582  25.290  0.00  0.00    +0.089 C 
ENDBRANCH  11  21
BRANCH   1  25
ATOM     24  C   UNL     1      13.179   5.250  22.584  0.00  0.00    +0.277 C 
ATOM     25  O   UNL     1      11.964   4.550  22.844  0.00  0.00    -0.494 OA
ENDBRANCH   1  25
BRANCH   8  26
ATOM     26  O   UNL     1       5.731   2.698  26.524  0.00  0.00    -0.506 OA
ATOM     27  H   UNL     1       5.090   2.067  26.881  0.00  0.00    +0.292 HD
ENDBRANCH   8  26
BRANCH  11  28
ATOM     28  O   UNL     1       6.214  -2.079  26.426  0.00  0.00    -0.381 OA
ATOM     29  H   UNL     1       6.794  -1.368  26.771  0.00  0.00    +0.211 HD
ENDBRANCH  11  28
BRANCH  15  30
ATOM     30  O   UNL     1       8.808   0.531  22.493  0.00  0.00    -0.506 OA
ATOM     31  H   UNL     1       9.458  -0.122  22.846  0.00  0.00    +0.292 HD
ENDBRANCH  15  30
BRANCH  13  32
ATOM     32  O   UNL     1       8.042  -1.903  24.544  0.00  0.00    -0.343 OA
BRANCH  32  33
ATOM     33  C   UNL     1       8.938  -2.743  23.799  0.00  0.00    +0.253 C 
ATOM     34  O   UNL     1       8.225  -3.644  22.951  0.00  0.00    -0.346 OA
ATOM     35  C   UNL     1       7.550  -4.734  23.597  0.00  0.00    +0.148 C 
ATOM     36  C   UNL     1       7.144  -5.703  22.486  0.00  0.00    +0.041 C 
ATOM     37  C   UNL     1       8.387  -5.453  24.681  0.00  0.00    +0.160 C 
ATOM     38  C   UNL     1       9.099  -4.430  25.580  0.00  0.00    +0.087 C 
ATOM     39  C   UNL     1       9.912  -3.500  24.684  0.00  0.00    +0.082 C 
BRANCH  38  40
ATOM     40  N   UNL     1       9.977  -5.098  26.560  0.00  0.00    -0.325 NA
ATOM     41  H   UNL     1      10.906  -4.677  26.535  0.00  0.00    +0.119 HD
ATOM     42  H   UNL     1       9.625  -4.867  27.493  0.00  0.00    +0.119 HD
ENDBRANCH  38  40
BRANCH  37  43
ATOM     43  O   UNL     1       9.388  -6.305  24.102  0.00  0.00    -0.388 OA
ATOM     44  H   UNL     1      10.168  -6.178  24.680  0.00  0.00    +0.210 HD
ENDBRANCH  37  43
ENDBRANCH  32  33
ENDBRANCH  13  32
TORSDOF 9
ENDMDL
MODEL 2
REMARK VINA RESULT:      -7.1      2.718      4.873
REMARK  Name = 
REMARK  12 active torsions:
REMARK  status: ('A' for Active; 'I' for Inactive)
REMARK    1  A    between atoms: C_1  and  O_2
REMARK    2  A    between atoms: O_2  and  C_3
REMARK    3  A    between atoms: C_12  and  O_13
REMARK    4  A    between atoms: C_17  and  O_18
REMARK    5  A    between atoms: C_17  and  C_36
REMARK    6  A    between atoms: C_20  and  O_22
REMARK    7  A    between atoms: O_22  and  C_23
REMARK    8  A    between atoms: C_26  and  N_28
REMARK    9  A    between atoms: C_29  and  O_31
REMARK   10  A    between atoms: C_32  and  C_34
REMARK   11  A    between atoms: C_36  and  C_37
REMARK   12  A    between atoms: C_39  and  O_40
REMARK                            x       y       z     vdW  Elec       q    Type
REMARK                         _______ _______ _______ _____ _____    ______ ____
ROOT
ATOM      1  C   UNL     1       5.204   4.666  23.037  0.00  0.00    +0.132 A 
ATOM      2  C   UNL     1       6.080   3.634  23.449  0.00  0.00    +0.075 A 
ATOM      3  C   UNL     1       5.609   2.405  24.139  0.00  0.00    +0.202 C 
ATOM      4  C   UNL     1       6.539   1.271  24.363  0.00  0.00    +0.078 A 
ATOM      5  C   UNL     1       7.890   1.386  24.041  0.00  0.00    +0.078 A 
ATOM      6  C   UNL     1       8.401   2.690  23.550  0.00  0.00    +0.198 C 
ATOM      7  O   UNL     1       9.595   2.924  23.417  0.00  0.00    -0.286 OA
ATOM      8  C   UNL     1       8.740   0.272  24.207  0.00  0.00    +0.132 A 
ATOM      9  C   UNL     1       8.248  -0.980  24.631  0.00  0.00    +0.007 A 
ATOM     10  C   UNL     1       9.189  -2.170  24.778  0.00  0.00    +0.082 C 
ATOM     11  C   UNL     1       8.489  -3.528  24.891  0.00  0.00    +0.130 C 
ATOM     12  C   UNL     1       7.301  -3.404  25.850  0.00  0.00    +0.079 C 
ATOM     13  C   UNL     1       6.255  -2.451  25.277  0.00  0.00    +0.158 C 
ATOM     14  C   UNL     1       6.875  -1.098  24.948  0.00  0.00    +0.030 A 
ATOM     15  C   UNL     1       6.056   0.044  24.859  0.00  0.00    +0.134 A 
ATOM     16  O   UNL     1       4.454   2.277  24.533  0.00  0.00    -0.286 OA
ATOM     17  C   UNL     1       7.444   3.758  23.197  0.00  0.00    +0.037 A 
ATOM     18  C   UNL     1       7.954   4.924  22.600  0.00  0.00    +0.012 A 
ATOM     19  C   UNL     1       7.102   5.954  22.229  0.00  0.00    +0.004 A 
ATOM     20  C   UNL     1       5.732   5.826  22.444  0.00  0.00    +0.046 A 
ENDROOT
BRANCH  11  21
ATOM     21  C   UNL     1       9.466  -4.584  25.433  0.00  0.00    +0.162 C 
ATOM     22  O   UNL     1      10.481  -4.911  24.814  0.00  0.00    -0.295 OA
ATOM     23  C   UNL     1       9.110  -5.258  26.737  0.00  0.00    +0.089 C 
ENDBRANCH  11  21
BRANCH   1  25
ATOM     24  C   UNL     1       3.043   4.335  22.103  0.00  0.00    +0.277 C 
ATOM     25  O   UNL     1       3.859   4.518  23.258  0.00  0.00    -0.494 OA
ENDBRANCH   1  25
BRANCH   8  26
ATOM     26  O   UNL     1      10.066   0.408  23.897  0.00  0.00    -0.506 OA
ATOM     27  H   UNL     1      10.643   0.181  24.640  0.00  0.00    +0.292 HD
ENDBRANCH   8  26
BRANCH  11  28
ATOM     28  O   UNL     1       8.089  -3.958  23.587  0.00  0.00    -0.381 OA
ATOM     29  H   UNL     1       8.885  -4.072  23.026  0.00  0.00    +0.211 HD
ENDBRANCH  11  28
BRANCH  15  30
ATOM     30  O   UNL     1       4.757  -0.090  25.306  0.00  0.00    -0.506 OA
ATOM     31  H   UNL     1       4.492   0.758  25.738  0.00  0.00    +0.292 HD
ENDBRANCH  15  30
BRANCH  13  32
ATOM     32  O   UNL     1       5.699  -2.959  24.041  0.00  0.00    -0.343 OA
BRANCH  32  33
ATOM     33  C   UNL     1       4.485  -3.717  24.169  0.00  0.00    +0.253 C 
ATOM     34  O   UNL     1       4.510  -4.555  25.325  0.00  0.00    -0.346 OA
ATOM     35  C   UNL     1       5.365  -5.707  25.263  0.00  0.00    +0.148 C 
ATOM     36  C   UNL     1       4.984  -6.585  26.456  0.00  0.00    +0.041 C 
ATOM     37  C   UNL     1       5.271  -6.502  23.939  0.00  0.00    +0.160 C 
ATOM     38  C   UNL     1       5.284  -5.547  22.735  0.00  0.00    +0.087 C 
ATOM     39  C   UNL     1       4.163  -4.530  22.928  0.00  0.00    +0.082 C 
BRANCH  38  40
ATOM     40  N   UNL     1       5.101  -6.282  21.467  0.00  0.00    -0.325 NA
ATOM     41  H   UNL     1       4.518  -7.104  21.626  0.00  0.00    +0.119 HD
ATOM     42  H   UNL     1       4.535  -5.691  20.852  0.00  0.00    +0.119 HD
ENDBRANCH  38  40
BRANCH  37  43
ATOM     43  O   UNL     1       4.069  -7.284  23.870  0.00  0.00    -0.388 OA
ATOM     44  H   UNL     1       3.395  -6.652  23.546  0.00  0.00    +0.210 HD
ENDBRANCH  37  43
ENDBRANCH  32  33
ENDBRANCH  13  32
TORSDOF 9
ENDMDL
MODEL 3
REMARK VINA RESULT:      -7.0      2.295      5.069
REMARK  Name = 
REMARK  12 active torsions:
REMARK  status: ('A' for Active; 'I' for Inactive)
REMARK    1  A    between atoms: C_1  and  O_2
REMARK    2  A    between atoms: O_2  and  C_3
REMARK    3  A    between atoms: C_12  and  O_13
REMARK    4  A    between atoms: C_17  and  O_18
REMARK    5  A    between atoms: C_17  and  C_36
REMARK    6  A    between atoms: C_20  and  O_22
REMARK    7  A    between atoms: O_22  and  C_23
REMARK    8  A    between atoms: C_26  and  N_28
REMARK    9  A    between atoms: C_29  and  O_31
REMARK   10  A    between atoms: C_32  and  C_34
REMARK   11  A    between atoms: C_36  and  C_37
REMARK   12  A    between atoms: C_39  and  O_40
REMARK                            x       y       z     vdW  Elec       q    Type
REMARK                         _______ _______ _______ _____ _____    ______ ____
ROOT
ATOM      1  C   UNL     1       8.143   4.050  25.826  0.00  0.00    +0.132 A 
ATOM      2  C   UNL     1       8.322   2.818  25.153  0.00  0.00    +0.075 A 
ATOM      3  C   UNL     1       7.807   1.529  25.682  0.00  0.00    +0.202 C 
ATOM      4  C   UNL     1       7.845   0.308  24.839  0.00  0.00    +0.078 A 
ATOM      5  C   UNL     1       8.469   0.323  23.593  0.00  0.00    +0.078 A 
ATOM      6  C   UNL     1       9.170   1.556  23.159  0.00  0.00    +0.198 C 
ATOM      7  O   UNL     1       9.888   1.594  22.168  0.00  0.00    -0.286 OA
ATOM      8  C   UNL     1       8.436  -0.835  22.788  0.00  0.00    +0.132 A 
ATOM      9  C   UNL     1       7.732  -1.992  23.180  0.00  0.00    +0.007 A 
ATOM     10  C   UNL     1       7.698  -3.219  22.274  0.00  0.00    +0.082 C 
ATOM     11  C   UNL     1       6.627  -4.251  22.639  0.00  0.00    +0.130 C 
ATOM     12  C   UNL     1       6.619  -4.455  24.157  0.00  0.00    +0.079 C 
ATOM     13  C   UNL     1       6.201  -3.166  24.862  0.00  0.00    +0.158 C 
ATOM     14  C   UNL     1       7.091  -2.003  24.439  0.00  0.00    +0.030 A 
ATOM     15  C   UNL     1       7.203  -0.871  25.270  0.00  0.00    +0.134 A 
ATOM     16  O   UNL     1       7.330   1.426  26.807  0.00  0.00    -0.286 OA
ATOM     17  C   UNL     1       9.002   2.800  23.938  0.00  0.00    +0.037 A 
ATOM     18  C   UNL     1       9.562   3.980  23.417  0.00  0.00    +0.012 A 
ATOM     19  C   UNL     1       9.420   5.182  24.093  0.00  0.00    +0.004 A 
ATOM     20  C   UNL     1       8.712   5.219  25.292  0.00  0.00    +0.046 A 
ENDROOT
BRANCH  11  21
ATOM     21  C   UNL     1       6.930  -5.594  21.953  0.00  0.00    +0.162 C 
ATOM     22  O   UNL     1       7.846  -6.327  22.334  0.00  0.00    -0.295 OA
ATOM     23  C   UNL     1       6.098  -5.965  20.749  0.00  0.00    +0.089 C 
ENDBRANCH  11  21
BRANCH   1  25
ATOM     24  C   UNL     1       6.254   4.853  27.027  0.00  0.00    +0.277 C 
ATOM     25  O   UNL     1       7.441   4.063  27.003  0.00  0.00    -0.494 OA
ENDBRANCH   1  25
BRANCH   8  26
ATOM     26  O   UNL     1       9.065  -0.805  21.572  0.00  0.00    -0.506 OA
ATOM     27  H   UNL     1       9.716  -1.515  21.477  0.00  0.00    +0.292 HD
ENDBRANCH   8  26
BRANCH  11  28
ATOM     28  O   UNL     1       5.360  -3.806  22.146  0.00  0.00    -0.381 OA
ATOM     29  H   UNL     1       4.646  -4.205  22.687  0.00  0.00    +0.211 HD
ENDBRANCH  11  28
BRANCH  15  30
ATOM     30  O   UNL     1       6.675  -0.980  26.540  0.00  0.00    -0.506 OA
ATOM     31  H   UNL     1       5.730  -1.253  26.457  0.00  0.00    +0.292 HD
ENDBRANCH  15  30
BRANCH  13  32
ATOM     32  O   UNL     1       4.846  -2.792  24.518  0.00  0.00    -0.343 OA
BRANCH  32  33
ATOM     33  C   UNL     1       3.943  -2.635  25.624  0.00  0.00    +0.253 C 
ATOM     34  O   UNL     1       4.536  -3.066  26.849  0.00  0.00    -0.346 OA
ATOM     35  C   UNL     1       4.691  -4.483  27.022  0.00  0.00    +0.148 C 
ATOM     36  C   UNL     1       5.041  -4.697  28.495  0.00  0.00    +0.041 C 
ATOM     37  C   UNL     1       3.450  -5.316  26.622  0.00  0.00    +0.160 C 
ATOM     38  C   UNL     1       2.882  -4.826  25.280  0.00  0.00    +0.087 C 
ATOM     39  C   UNL     1       2.611  -3.330  25.402  0.00  0.00    +0.082 C 
BRANCH  38  40
ATOM     40  N   UNL     1       1.642  -5.547  24.929  0.00  0.00    -0.325 NA
ATOM     41  H   UNL     1       0.834  -5.044  25.297  0.00  0.00    +0.119 HD
ATOM     42  H   UNL     1       1.532  -5.487  23.913  0.00  0.00    +0.119 HD
ENDBRANCH  38  40
BRANCH  37  43
ATOM     43  O   UNL     1       2.407  -5.224  27.604  0.00  0.00    -0.388 OA
ATOM     44  H   UNL     1       2.691  -4.486  28.181  0.00  0.00    +0.210 HD
ENDBRANCH  37  43
ENDBRANCH  32  33
ENDBRANCH  13  32
TORSDOF 9
ENDMDL
MODEL 4
REMARK VINA RESULT:      -6.9      3.170      9.204
REMARK  Name = 
REMARK  12 active torsions:
REMARK  status: ('A' for Active; 'I' for Inactive)
REMARK    1  A    between atoms: C_1  and  O_2
REMARK    2  A    between atoms: O_2  and  C_3
REMARK    3  A    between atoms: C_12  and  O_13
REMARK    4  A    between atoms: C_17  and  O_18
REMARK    5  A    between atoms: C_17  and  C_36
REMARK    6  A    between atoms: C_20  and  O_22
REMARK    7  A    between atoms: O_22  and  C_23
REMARK    8  A    between atoms: C_26  and  N_28
REMARK    9  A    between atoms: C_29  and  O_31
REMARK   10  A    between atoms: C_32  and  C_34
REMARK   11  A    between atoms: C_36  and  C_37
REMARK   12  A    between atoms: C_39  and  O_40
REMARK                            x       y       z     vdW  Elec       q    Type
REMARK                         _______ _______ _______ _____ _____    ______ ____
ROOT
ATOM      1  C   UNL     1       3.419  -5.869  24.541  0.00  0.00    +0.132 A 
ATOM      2  C   UNL     1       4.647  -5.171  24.628  0.00  0.00    +0.075 A 
ATOM      3  C   UNL     1       5.038  -4.106  23.670  0.00  0.00    +0.202 C 
ATOM      4  C   UNL     1       6.238  -3.272  23.929  0.00  0.00    +0.078 A 
ATOM      5  C   UNL     1       7.080  -3.553  25.003  0.00  0.00    +0.078 A 
ATOM      6  C   UNL     1       6.805  -4.751  25.835  0.00  0.00    +0.198 C 
ATOM      7  O   UNL     1       7.590  -5.164  26.678  0.00  0.00    -0.286 OA
ATOM      8  C   UNL     1       8.180  -2.707  25.262  0.00  0.00    +0.132 A 
ATOM      9  C   UNL     1       8.416  -1.544  24.500  0.00  0.00    +0.007 A 
ATOM     10  C   UNL     1       9.601  -0.639  24.821  0.00  0.00    +0.082 C 
ATOM     11  C   UNL     1       9.540   0.747  24.171  0.00  0.00    +0.130 C 
ATOM     12  C   UNL     1       9.097   0.600  22.712  0.00  0.00    +0.079 C 
ATOM     13  C   UNL     1       7.673   0.054  22.644  0.00  0.00    +0.158 C 
ATOM     14  C   UNL     1       7.556  -1.255  23.417  0.00  0.00    +0.030 A 
ATOM     15  C   UNL     1       6.513  -2.153  23.117  0.00  0.00    +0.134 A 
ATOM     16  O   UNL     1       4.392  -3.869  22.655  0.00  0.00    -0.286 OA
ATOM     17  C   UNL     1       5.534  -5.482  25.656  0.00  0.00    +0.037 A 
ATOM     18  C   UNL     1       5.244  -6.521  26.558  0.00  0.00    +0.012 A 
ATOM     19  C   UNL     1       4.058  -7.232  26.451  0.00  0.00    +0.004 A 
ATOM     20  C   UNL     1       3.147  -6.907  25.450  0.00  0.00    +0.046 A 
ENDROOT
BRANCH  11  21
ATOM     21  C   UNL     1      10.925   1.413  24.213  0.00  0.00    +0.162 C 
ATOM     22  O   UNL     1      11.901   0.852  24.716  0.00  0.00    -0.295 OA
ATOM     23  C   UNL     1      11.041   2.814  23.662  0.00  0.00    +0.089 C 
ENDBRANCH  11  21
BRANCH   1  25
ATOM     24  C   UNL     1       1.834  -6.606  22.929  0.00  0.00    +0.277 C 
ATOM     25  O   UNL     1       2.537  -5.531  23.548  0.00  0.00    -0.494 OA
ENDBRANCH   1  25
BRANCH   8  26
ATOM     26  O   UNL     1       9.002  -3.006  26.315  0.00  0.00    -0.506 OA
ATOM     27  H   UNL     1       9.329  -3.916  26.279  0.00  0.00    +0.292 HD
ENDBRANCH   8  26
BRANCH  11  28
ATOM     28  O   UNL     1       8.653   1.578  24.925  0.00  0.00    -0.381 OA
ATOM     29  H   UNL     1       8.674   2.488  24.559  0.00  0.00    +0.211 HD
ENDBRANCH  11  28
BRANCH  15  30
ATOM     30  O   UNL     1       5.786  -1.898  21.973  0.00  0.00    -0.506 OA
ATOM     31  H   UNL     1       5.988  -0.978  21.679  0.00  0.00    +0.292 HD
ENDBRANCH  15  30
BRANCH  13  32
ATOM     32  O   UNL     1       6.726   0.970  23.242  0.00  0.00    -0.343 OA
BRANCH  32  33
ATOM     33  C   UNL     1       6.276   2.041  22.397  0.00  0.00    +0.253 C 
ATOM     34  O   UNL     1       7.200   3.131  22.396  0.00  0.00    -0.346 OA
ATOM     35  C   UNL     1       7.249   3.930  23.587  0.00  0.00    +0.148 C 
ATOM     36  C   UNL     1       8.054   5.180  23.229  0.00  0.00    +0.041 C 
ATOM     37  C   UNL     1       5.863   4.310  24.160  0.00  0.00    +0.160 C 
ATOM     38  C   UNL     1       4.929   3.089  24.167  0.00  0.00    +0.087 C 
ATOM     39  C   UNL     1       4.881   2.526  22.749  0.00  0.00    +0.082 C 
BRANCH  38  40
ATOM     40  N   UNL     1       3.573   3.455  24.622  0.00  0.00    -0.325 NA
ATOM     41  H   UNL     1       3.608   3.773  25.591  0.00  0.00    +0.119 HD
ATOM     42  H   UNL     1       3.290   4.288  24.098  0.00  0.00    +0.119 HD
ENDBRANCH  38  40
BRANCH  37  43
ATOM     43  O   UNL     1       5.233   5.345  23.389  0.00  0.00    -0.388 OA
ATOM     44  H   UNL     1       4.298   5.061  23.333  0.00  0.00    +0.210 HD
ENDBRANCH  37  43
ENDBRANCH  32  33
ENDBRANCH  13  32
TORSDOF 9
ENDMDL
MODEL 5
REMARK VINA RESULT:      -6.7      3.276      9.322
REMARK  Name = 
REMARK  12 active torsions:
REMARK  status: ('A' for Active; 'I' for Inactive)
REMARK    1  A    between atoms: C_1  and  O_2
REMARK    2  A    between atoms: O_2  and  C_3
REMARK    3  A    between atoms: C_12  and  O_13
REMARK    4  A    between atoms: C_17  and  O_18
REMARK    5  A    between atoms: C_17  and  C_36
REMARK    6  A    between atoms: C_20  and  O_22
REMARK    7  A    between atoms: O_22  and  C_23
REMARK    8  A    between atoms: C_26  and  N_28
REMARK    9  A    between atoms: C_29  and  O_31
REMARK   10  A    between atoms: C_32  and  C_34
REMARK   11  A    between atoms: C_36  and  C_37
REMARK   12  A    between atoms: C_39  and  O_40
REMARK                            x       y       z     vdW  Elec       q    Type
REMARK                         _______ _______ _______ _____ _____    ______ ____
ROOT
ATOM      1  C   UNL     1       3.051  -4.950  29.390  0.00  0.00    +0.132 A 
ATOM      2  C   UNL     1       4.109  -4.764  28.468  0.00  0.00    +0.075 A 
ATOM      3  C   UNL     1       4.042  -3.784  27.354  0.00  0.00    +0.202 C 
ATOM      4  C   UNL     1       5.252  -3.487  26.546  0.00  0.00    +0.078 A 
ATOM      5  C   UNL     1       6.430  -4.206  26.741  0.00  0.00    +0.078 A 
ATOM      6  C   UNL     1       6.430  -5.331  27.709  0.00  0.00    +0.198 C 
ATOM      7  O   UNL     1       7.363  -6.118  27.806  0.00  0.00    -0.286 OA
ATOM      8  C   UNL     1       7.582  -3.862  26.003  0.00  0.00    +0.132 A 
ATOM      9  C   UNL     1       7.595  -2.765  25.117  0.00  0.00    +0.007 A 
ATOM     10  C   UNL     1       8.865  -2.406  24.352  0.00  0.00    +0.082 C 
ATOM     11  C   UNL     1       8.853  -1.013  23.715  0.00  0.00    +0.130 C 
ATOM     12  C   UNL     1       7.496  -0.776  23.046  0.00  0.00    +0.079 C 
ATOM     13  C   UNL     1       6.386  -0.755  24.093  0.00  0.00    +0.158 C 
ATOM     14  C   UNL     1       6.403  -2.031  24.927  0.00  0.00    +0.030 A 
ATOM     15  C   UNL     1       5.238  -2.438  25.606  0.00  0.00    +0.134 A 
ATOM     16  O   UNL     1       3.010  -3.185  27.068  0.00  0.00    -0.286 OA
ATOM     17  C   UNL     1       5.270  -5.520  28.603  0.00  0.00    +0.037 A 
ATOM     18  C   UNL     1       5.367  -6.504  29.603  0.00  0.00    +0.012 A 
ATOM     19  C   UNL     1       4.318  -6.714  30.485  0.00  0.00    +0.004 A 
ATOM     20  C   UNL     1       3.165  -5.940  30.382  0.00  0.00    +0.046 A 
ENDROOT
BRANCH  11  21
ATOM     21  C   UNL     1       9.963  -0.905  22.656  0.00  0.00    +0.162 C 
ATOM     22  O   UNL     1      10.800  -1.797  22.498  0.00  0.00    -0.295 OA
ATOM     23  C   UNL     1      10.031   0.366  21.844  0.00  0.00    +0.089 C 
ENDBRANCH  11  21
BRANCH   1  25
ATOM     24  C   UNL     1       0.680  -4.867  29.235  0.00  0.00    +0.277 C 
ATOM     25  O   UNL     1       1.927  -4.176  29.270  0.00  0.00    -0.494 OA
ENDBRANCH   1  25
BRANCH   8  26
ATOM     26  O   UNL     1       8.726  -4.587  26.200  0.00  0.00    -0.506 OA
ATOM     27  H   UNL     1       8.547  -5.464  26.567  0.00  0.00    +0.292 HD
ENDBRANCH   8  26
BRANCH  11  28
ATOM     28  O   UNL     1       9.139  -0.036  24.721  0.00  0.00    -0.381 OA
ATOM     29  H   UNL     1       9.528  -0.482  25.502  0.00  0.00    +0.211 HD
ENDBRANCH  11  28
BRANCH  15  30
ATOM     30  O   UNL     1       4.071  -1.774  25.287  0.00  0.00    -0.506 OA
ATOM     31  H   UNL     1       3.689  -1.406  26.120  0.00  0.00    +0.292 HD
ENDBRANCH  15  30
BRANCH  13  32
ATOM     32  O   UNL     1       6.554   0.344  25.019  0.00  0.00    -0.343 OA
BRANCH  32  33
ATOM     33  C   UNL     1       5.735   1.498  24.772  0.00  0.00    +0.253 C 
ATOM     34  O   UNL     1       6.105   2.153  23.558  0.00  0.00    -0.346 OA
ATOM     35  C   UNL     1       7.341   2.884  23.576  0.00  0.00    +0.148 C 
ATOM     36  C   UNL     1       7.354   3.729  22.301  0.00  0.00    +0.041 C 
ATOM     37  C   UNL     1       7.543   3.769  24.828  0.00  0.00    +0.160 C 
ATOM     38  C   UNL     1       7.161   2.997  26.101  0.00  0.00    +0.087 C 
ATOM     39  C   UNL     1       5.735   2.482  25.930  0.00  0.00    +0.082 C 
BRANCH  38  40
ATOM     40  N   UNL     1       7.258   3.856  27.298  0.00  0.00    -0.325 NA
ATOM     41  H   UNL     1       8.217   4.189  27.407  0.00  0.00    +0.119 HD
ATOM     42  H   UNL     1       6.720   4.706  27.107  0.00  0.00    +0.119 HD
ENDBRANCH  38  40
BRANCH  37  43
ATOM     43  O   UNL     1       6.741   4.959  24.776  0.00  0.00    -0.388 OA
ATOM     44  H   UNL     1       6.868   5.289  23.863  0.00  0.00    +0.210 HD
ENDBRANCH  37  43
ENDBRANCH  32  33
ENDBRANCH  13  32
TORSDOF 9
ENDMDL
MODEL 6
REMARK VINA RESULT:      -6.7      2.683      8.548
REMARK  Name = 
REMARK  12 active torsions:
REMARK  status: ('A' for Active; 'I' for Inactive)
REMARK    1  A    between atoms: C_1  and  O_2
REMARK    2  A    between atoms: O_2  and  C_3
REMARK    3  A    between atoms: C_12  and  O_13
REMARK    4  A    between atoms: C_17  and  O_18
REMARK    5  A    between atoms: C_17  and  C_36
REMARK    6  A    between atoms: C_20  and  O_22
REMARK    7  A    between atoms: O_22  and  C_23
REMARK    8  A    between atoms: C_26  and  N_28
REMARK    9  A    between atoms: C_29  and  O_31
REMARK   10  A    between atoms: C_32  and  C_34
REMARK   11  A    between atoms: C_36  and  C_37
REMARK   12  A    between atoms: C_39  and  O_40
REMARK                            x       y       z     vdW  Elec       q    Type
REMARK                         _______ _______ _______ _____ _____    ______ ____
ROOT
ATOM      1  C   UNL     1       6.637  -4.088  25.125  0.00  0.00    +0.132 A 
ATOM      2  C   UNL     1       7.276  -2.900  24.696  0.00  0.00    +0.075 A 
ATOM      3  C   UNL     1       6.543  -1.628  24.467  0.00  0.00    +0.202 C 
ATOM      4  C   UNL     1       7.289  -0.371  24.217  0.00  0.00    +0.078 A 
ATOM      5  C   UNL     1       8.676  -0.383  24.075  0.00  0.00    +0.078 A 
ATOM      6  C   UNL     1       9.385  -1.686  24.092  0.00  0.00    +0.198 C 
ATOM      7  O   UNL     1      10.568  -1.798  23.798  0.00  0.00    -0.286 OA
ATOM      8  C   UNL     1       9.366   0.835  23.900  0.00  0.00    +0.132 A 
ATOM      9  C   UNL     1       8.698   2.077  23.929  0.00  0.00    +0.007 A 
ATOM     10  C   UNL     1       9.477   3.377  23.759  0.00  0.00    +0.082 C 
ATOM     11  C   UNL     1       8.709   4.639  24.163  0.00  0.00    +0.130 C 
ATOM     12  C   UNL     1       7.281   4.557  23.613  0.00  0.00    +0.079 C 
ATOM     13  C   UNL     1       6.530   3.397  24.261  0.00  0.00    +0.158 C 
ATOM     14  C   UNL     1       7.293   2.089  24.082  0.00  0.00    +0.030 A 
ATOM     15  C   UNL     1       6.607   0.862  24.171  0.00  0.00    +0.134 A 
ATOM     16  O   UNL     1       5.318  -1.566  24.485  0.00  0.00    -0.286 OA
ATOM     17  C   UNL     1       8.652  -2.907  24.483  0.00  0.00    +0.037 A 
ATOM     18  C   UNL     1       9.389  -4.096  24.628  0.00  0.00    +0.012 A 
ATOM     19  C   UNL     1       8.759  -5.270  25.012  0.00  0.00    +0.004 A 
ATOM     20  C   UNL     1       7.389  -5.267  25.262  0.00  0.00    +0.046 A 
ENDROOT
BRANCH  11  21
ATOM     21  C   UNL     1       9.399   5.886  23.587  0.00  0.00    +0.162 C 
ATOM     22  O   UNL     1       8.770   6.759  22.985  0.00  0.00    -0.295 OA
ATOM     23  C   UNL     1      10.899   5.983  23.735  0.00  0.00    +0.089 C 
ENDBRANCH  11  21
BRANCH   1  25
ATOM     24  C   UNL     1       4.505  -5.058  24.713  0.00  0.00    +0.277 C 
ATOM     25  O   UNL     1       5.288  -4.061  25.367  0.00  0.00    -0.494 OA
ENDBRANCH   1  25
BRANCH   8  26
ATOM     26  O   UNL     1      10.726   0.802  23.751  0.00  0.00    -0.506 OA
ATOM     27  H   UNL     1      11.084  -0.093  23.841  0.00  0.00    +0.292 HD
ENDBRANCH   8  26
BRANCH  11  28
ATOM     28  O   UNL     1       8.733   4.767  25.587  0.00  0.00    -0.381 OA
ATOM     29  H   UNL     1       8.095   4.133  25.979  0.00  0.00    +0.211 HD
ENDBRANCH  11  28
BRANCH  15  30
ATOM     30  O   UNL     1       5.229   0.922  24.185  0.00  0.00    -0.506 OA
ATOM     31  H   UNL     1       4.905   0.768  23.266  0.00  0.00    +0.292 HD
ENDBRANCH  15  30
BRANCH  13  32
ATOM     32  O   UNL     1       6.381   3.595  25.686  0.00  0.00    -0.343 OA
BRANCH  32  33
ATOM     33  C   UNL     1       5.220   4.336  26.095  0.00  0.00    +0.253 C 
ATOM     34  O   UNL     1       5.304   4.726  27.466  0.00  0.00    -0.346 OA
ATOM     35  C   UNL     1       5.132   3.686  28.440  0.00  0.00    +0.148 C 
ATOM     36  C   UNL     1       4.952   4.389  29.787  0.00  0.00    +0.041 C 
ATOM     37  C   UNL     1       3.950   2.730  28.153  0.00  0.00    +0.160 C 
ATOM     38  C   UNL     1       3.936   2.320  26.672  0.00  0.00    +0.087 C 
ATOM     39  C   UNL     1       3.922   3.593  25.831  0.00  0.00    +0.082 C 
BRANCH  38  40
ATOM     40  N   UNL     1       2.761   1.483  26.360  0.00  0.00    -0.325 NA
ATOM     41  H   UNL     1       2.162   1.965  25.689  0.00  0.00    +0.119 HD
ATOM     42  H   UNL     1       3.097   0.663  25.848  0.00  0.00    +0.119 HD
ENDBRANCH  38  40
BRANCH  37  43
ATOM     43  O   UNL     1       2.686   3.340  28.455  0.00  0.00    -0.388 OA
ATOM     44  H   UNL     1       2.034   2.768  28.002  0.00  0.00    +0.210 HD
ENDBRANCH  37  43
ENDBRANCH  32  33
ENDBRANCH  13  32
TORSDOF 9
ENDMDL
MODEL 7
REMARK VINA RESULT:      -6.7      3.212      8.893
REMARK  Name = 
REMARK  12 active torsions:
REMARK  status: ('A' for Active; 'I' for Inactive)
REMARK    1  A    between atoms: C_1  and  O_2
REMARK    2  A    between atoms: O_2  and  C_3
REMARK    3  A    between atoms: C_12  and  O_13
REMARK    4  A    between atoms: C_17  and  O_18
REMARK    5  A    between atoms: C_17  and  C_36
REMARK    6  A    between atoms: C_20  and  O_22
REMARK    7  A    between atoms: O_22  and  C_23
REMARK    8  A    between atoms: C_26  and  N_28
REMARK    9  A    between atoms: C_29  and  O_31
REMARK   10  A    between atoms: C_32  and  C_34
REMARK   11  A    between atoms: C_36  and  C_37
REMARK   12  A    between atoms: C_39  and  O_40
REMARK                            x       y       z     vdW  Elec       q    Type
REMARK                         _______ _______ _______ _____ _____    ______ ____
ROOT
ATOM      1  C   UNL     1       5.076  -4.819  25.049  0.00  0.00    +0.132 A 
ATOM      2  C   UNL     1       6.076  -3.819  24.989  0.00  0.00    +0.075 A 
ATOM      3  C   UNL     1       6.087  -2.751  23.957  0.00  0.00    +0.202 C 
ATOM      4  C   UNL     1       7.038  -1.618  24.065  0.00  0.00    +0.078 A 
ATOM      5  C   UNL     1       8.010  -1.598  25.063  0.00  0.00    +0.078 A 
ATOM      6  C   UNL     1       8.135  -2.771  25.964  0.00  0.00    +0.198 C 
ATOM      7  O   UNL     1       9.069  -2.909  26.743  0.00  0.00    -0.286 OA
ATOM      8  C   UNL     1       8.861  -0.479  25.181  0.00  0.00    +0.132 A 
ATOM      9  C   UNL     1       8.715   0.655  24.355  0.00  0.00    +0.007 A 
ATOM     10  C   UNL     1       9.637   1.858  24.524  0.00  0.00    +0.082 C 
ATOM     11  C   UNL     1       9.154   3.134  23.829  0.00  0.00    +0.130 C 
ATOM     12  C   UNL     1       8.647   2.784  22.426  0.00  0.00    +0.079 C 
ATOM     13  C   UNL     1       7.420   1.880  22.517  0.00  0.00    +0.158 C 
ATOM     14  C   UNL     1       7.722   0.638  23.349  0.00  0.00    +0.030 A 
ATOM     15  C   UNL     1       6.936  -0.519  23.187  0.00  0.00    +0.134 A 
ATOM     16  O   UNL     1       5.320  -2.757  23.000  0.00  0.00    -0.286 OA
ATOM     17  C   UNL     1       7.096  -3.820  25.937  0.00  0.00    +0.037 A 
ATOM     18  C   UNL     1       7.170  -4.840  26.903  0.00  0.00    +0.012 A 
ATOM     19  C   UNL     1       6.212  -5.842  26.940  0.00  0.00    +0.004 A 
ATOM     20  C   UNL     1       5.167  -5.832  26.019  0.00  0.00    +0.046 A 
ENDROOT
BRANCH  11  21
ATOM     21  C   UNL     1      10.309   4.142  23.710  0.00  0.00    +0.162 C 
ATOM     22  O   UNL     1      11.440   3.796  23.360  0.00  0.00    -0.295 OA
ATOM     23  C   UNL     1      10.026   5.575  24.093  0.00  0.00    +0.089 C 
ENDBRANCH  11  21
BRANCH   1  25
ATOM     24  C   UNL     1       3.865  -5.968  23.355  0.00  0.00    +0.277 C 
ATOM     25  O   UNL     1       4.057  -4.788  24.133  0.00  0.00    -0.494 OA
ENDBRANCH   1  25
BRANCH   8  26
ATOM     26  O   UNL     1       9.818  -0.483  26.160  0.00  0.00    -0.506 OA
ATOM     27  H   UNL     1       9.694   0.234  26.798  0.00  0.00    +0.292 HD
ENDBRANCH   8  26
BRANCH  11  28
ATOM     28  O   UNL     1       8.143   3.750  24.631  0.00  0.00    -0.381 OA
ATOM     29  H   UNL     1       7.923   3.159  25.383  0.00  0.00    +0.211 HD
ENDBRANCH  11  28
BRANCH  15  30
ATOM     30  O   UNL     1       6.075  -0.538  22.110  0.00  0.00    -0.506 OA
ATOM     31  H   UNL     1       6.479  -0.004  21.384  0.00  0.00    +0.292 HD
ENDBRANCH  15  30
BRANCH  13  32
ATOM     32  O   UNL     1       6.316   2.552  23.167  0.00  0.00    -0.343 OA
BRANCH  32  33
ATOM     33  C   UNL     1       5.653   3.559  22.388  0.00  0.00    +0.253 C 
ATOM     34  O   UNL     1       5.884   4.866  22.915  0.00  0.00    -0.346 OA
ATOM     35  C   UNL     1       5.205   5.194  24.136  0.00  0.00    +0.148 C 
ATOM     36  C   UNL     1       5.359   6.705  24.317  0.00  0.00    +0.041 C 
ATOM     37  C   UNL     1       3.715   4.781  24.170  0.00  0.00    +0.160 C 
ATOM     38  C   UNL     1       3.537   3.356  23.624  0.00  0.00    +0.087 C 
ATOM     39  C   UNL     1       4.164   3.303  22.234  0.00  0.00    +0.082 C 
BRANCH  38  40
ATOM     40  N   UNL     1       2.111   2.981  23.561  0.00  0.00    -0.325 NA
ATOM     41  H   UNL     1       1.870   2.402  24.367  0.00  0.00    +0.119 HD
ATOM     42  H   UNL     1       1.565   3.836  23.697  0.00  0.00    +0.119 HD
ENDBRANCH  38  40
BRANCH  37  43
ATOM     43  O   UNL     1       2.900   5.662  23.381  0.00  0.00    -0.388 OA
ATOM     44  H   UNL     1       2.171   5.912  23.984  0.00  0.00    +0.210 HD
ENDBRANCH  37  43
ENDBRANCH  32  33
ENDBRANCH  13  32
TORSDOF 9
ENDMDL
MODEL 8
REMARK VINA RESULT:      -6.6      2.538      8.258
REMARK  Name = 
REMARK  12 active torsions:
REMARK  status: ('A' for Active; 'I' for Inactive)
REMARK    1  A    between atoms: C_1  and  O_2
REMARK    2  A    between atoms: O_2  and  C_3
REMARK    3  A    between atoms: C_12  and  O_13
REMARK    4  A    between atoms: C_17  and  O_18
REMARK    5  A    between atoms: C_17  and  C_36
REMARK    6  A    between atoms: C_20  and  O_22
REMARK    7  A    between atoms: O_22  and  C_23
REMARK    8  A    between atoms: C_26  and  N_28
REMARK    9  A    between atoms: C_29  and  O_31
REMARK   10  A    between atoms: C_32  and  C_34
REMARK   11  A    between atoms: C_36  and  C_37
REMARK   12  A    between atoms: C_39  and  O_40
REMARK                            x       y       z     vdW  Elec       q    Type
REMARK                         _______ _______ _______ _____ _____    ______ ____
ROOT
ATOM      1  C   UNL     1       4.477  -5.964  23.084  0.00  0.00    +0.132 A 
ATOM      2  C   UNL     1       4.424  -4.906  24.022  0.00  0.00    +0.075 A 
ATOM      3  C   UNL     1       5.637  -4.207  24.518  0.00  0.00    +0.202 C 
ATOM      4  C   UNL     1       5.508  -2.979  25.340  0.00  0.00    +0.078 A 
ATOM      5  C   UNL     1       4.256  -2.532  25.758  0.00  0.00    +0.078 A 
ATOM      6  C   UNL     1       3.061  -3.351  25.440  0.00  0.00    +0.198 C 
ATOM      7  O   UNL     1       1.958  -3.124  25.921  0.00  0.00    -0.286 OA
ATOM      8  C   UNL     1       4.158  -1.327  26.486  0.00  0.00    +0.132 A 
ATOM      9  C   UNL     1       5.287  -0.525  26.750  0.00  0.00    +0.007 A 
ATOM     10  C   UNL     1       5.142   0.784  27.520  0.00  0.00    +0.082 C 
ATOM     11  C   UNL     1       6.354   1.716  27.426  0.00  0.00    +0.130 C 
ATOM     12  C   UNL     1       7.636   0.896  27.599  0.00  0.00    +0.079 C 
ATOM     13  C   UNL     1       7.792  -0.092  26.446  0.00  0.00    +0.158 C 
ATOM     14  C   UNL     1       6.555  -0.974  26.317  0.00  0.00    +0.030 A 
ATOM     15  C   UNL     1       6.650  -2.219  25.666  0.00  0.00    +0.134 A 
ATOM     16  O   UNL     1       6.771  -4.603  24.265  0.00  0.00    -0.286 OA
ATOM     17  C   UNL     1       3.187  -4.487  24.505  0.00  0.00    +0.037 A 
ATOM     18  C   UNL     1       2.009  -5.149  24.116  0.00  0.00    +0.012 A 
ATOM     19  C   UNL     1       2.062  -6.210  23.225  0.00  0.00    +0.004 A 
ATOM     20  C   UNL     1       3.290  -6.616  22.708  0.00  0.00    +0.046 A 
ENDROOT
BRANCH  11  21
ATOM     21  C   UNL     1       6.286   2.784  28.530  0.00  0.00    +0.162 C 
ATOM     22  O   UNL     1       7.303   3.299  29.000  0.00  0.00    -0.295 OA
ATOM     23  C   UNL     1       4.922   3.146  29.068  0.00  0.00    +0.089 C 
ENDBRANCH  11  21
BRANCH   1  25
ATOM     24  C   UNL     1       6.003  -5.922  21.261  0.00  0.00    +0.277 C 
ATOM     25  O   UNL     1       5.697  -6.345  22.588  0.00  0.00    -0.494 OA
ENDBRANCH   1  25
BRANCH   8  26
ATOM     26  O   UNL     1       2.921  -0.910  26.898  0.00  0.00    -0.506 OA
ATOM     27  H   UNL     1       2.313  -0.774  26.157  0.00  0.00    +0.292 HD
ENDBRANCH   8  26
BRANCH  11  28
ATOM     28  O   UNL     1       6.318   2.406  26.174  0.00  0.00    -0.381 OA
ATOM     29  H   UNL     1       5.846   1.855  25.515  0.00  0.00    +0.211 HD
ENDBRANCH  11  28
BRANCH  15  30
ATOM     30  O   UNL     1       7.921  -2.675  25.382  0.00  0.00    -0.506 OA
ATOM     31  H   UNL     1       8.041  -3.548  25.828  0.00  0.00    +0.292 HD
ENDBRANCH  15  30
BRANCH  13  32
ATOM     32  O   UNL     1       7.943   0.593  25.181  0.00  0.00    -0.343 OA
BRANCH  32  33
ATOM     33  C   UNL     1       9.263   1.074  24.885  0.00  0.00    +0.253 C 
ATOM     34  O   UNL     1       9.266   2.482  24.644  0.00  0.00    -0.346 OA
ATOM     35  C   UNL     1       8.698   2.920  23.401  0.00  0.00    +0.148 C 
ATOM     36  C   UNL     1       9.097   4.388  23.243  0.00  0.00    +0.041 C 
ATOM     37  C   UNL     1       9.138   2.093  22.170  0.00  0.00    +0.160 C 
ATOM     38  C   UNL     1       9.080   0.589  22.482  0.00  0.00    +0.087 C 
ATOM     39  C   UNL     1       9.918   0.335  23.732  0.00  0.00    +0.082 C 
BRANCH  38  40
ATOM     40  N   UNL     1       9.586  -0.213  21.351  0.00  0.00    -0.325 NA
ATOM     41  H   UNL     1       9.030  -1.064  21.254  0.00  0.00    +0.119 HD
ATOM     42  H   UNL     1       9.389   0.311  20.493  0.00  0.00    +0.119 HD
ENDBRANCH  38  40
BRANCH  37  43
ATOM     43  O   UNL     1      10.480   2.409  21.767  0.00  0.00    -0.388 OA
ATOM     44  H   UNL     1      10.594   3.342  22.038  0.00  0.00    +0.210 HD
ENDBRANCH  37  43
ENDBRANCH  32  33
ENDBRANCH  13  32
TORSDOF 9
ENDMDL
MODEL 9
REMARK VINA RESULT:      -6.6      2.758      8.511
REMARK  Name = 
REMARK  12 active torsions:
REMARK  status: ('A' for Active; 'I' for Inactive)
REMARK    1  A    between atoms: C_1  and  O_2
REMARK    2  A    between atoms: O_2  and  C_3
REMARK    3  A    between atoms: C_12  and  O_13
REMARK    4  A    between atoms: C_17  and  O_18
REMARK    5  A    between atoms: C_17  and  C_36
REMARK    6  A    between atoms: C_20  and  O_22
REMARK    7  A    between atoms: O_22  and  C_23
REMARK    8  A    between atoms: C_26  and  N_28
REMARK    9  A    between atoms: C_29  and  O_31
REMARK   10  A    between atoms: C_32  and  C_34
REMARK   11  A    between atoms: C_36  and  C_37
REMARK   12  A    between atoms: C_39  and  O_40
REMARK                            x       y       z     vdW  Elec       q    Type
REMARK                         _______ _______ _______ _____ _____    ______ ____
ROOT
ATOM      1  C   UNL     1       5.989  -4.171  24.687  0.00  0.00    +0.132 A 
ATOM      2  C   UNL     1       6.400  -2.951  24.099  0.00  0.00    +0.075 A 
ATOM      3  C   UNL     1       5.819  -1.638  24.478  0.00  0.00    +0.202 C 
ATOM      4  C   UNL     1       6.428  -0.380  23.979  0.00  0.00    +0.078 A 
ATOM      5  C   UNL     1       7.473  -0.412  23.058  0.00  0.00    +0.078 A 
ATOM      6  C   UNL     1       7.910  -1.723  22.518  0.00  0.00    +0.198 C 
ATOM      7  O   UNL     1       8.692  -1.824  21.581  0.00  0.00    -0.286 OA
ATOM      8  C   UNL     1       8.074   0.797  22.648  0.00  0.00    +0.132 A 
ATOM      9  C   UNL     1       7.690   2.039  23.195  0.00  0.00    +0.007 A 
ATOM     10  C   UNL     1       8.376   3.325  22.746  0.00  0.00    +0.082 C 
ATOM     11  C   UNL     1       8.126   4.532  23.656  0.00  0.00    +0.130 C 
ATOM     12  C   UNL     1       6.642   4.580  24.032  0.00  0.00    +0.079 C 
ATOM     13  C   UNL     1       6.267   3.357  24.865  0.00  0.00    +0.158 C 
ATOM     14  C   UNL     1       6.636   2.070  24.136  0.00  0.00    +0.030 A 
ATOM     15  C   UNL     1       5.988   0.866  24.473  0.00  0.00    +0.134 A 
ATOM     16  O   UNL     1       4.840  -1.541  25.211  0.00  0.00    -0.286 OA
ATOM     17  C   UNL     1       7.397  -2.967  23.127  0.00  0.00    +0.037 A 
ATOM     18  C   UNL     1       7.943  -4.186  22.686  0.00  0.00    +0.012 A 
ATOM     19  C   UNL     1       7.515  -5.385  23.234  0.00  0.00    +0.004 A 
ATOM     20  C   UNL     1       6.544  -5.380  24.232  0.00  0.00    +0.046 A 
ENDROOT
BRANCH  11  21
ATOM     21  C   UNL     1       8.502   5.832  22.926  0.00  0.00    +0.162 C 
ATOM     22  O   UNL     1       9.576   6.404  23.128  0.00  0.00    -0.295 OA
ATOM     23  C   UNL     1       7.480   6.424  21.985  0.00  0.00    +0.089 C 
ENDBRANCH  11  21
BRANCH   1  25
ATOM     24  C   UNL     1       5.462  -4.482  26.984  0.00  0.00    +0.277 C 
ATOM     25  O   UNL     1       5.033  -4.141  25.668  0.00  0.00    -0.494 OA
ENDBRANCH   1  25
BRANCH   8  26
ATOM     26  O   UNL     1       9.091   0.746  21.734  0.00  0.00    -0.506 OA
ATOM     27  H   UNL     1       9.838   1.310  21.982  0.00  0.00    +0.292 HD
ENDBRANCH   8  26
BRANCH  11  28
ATOM     28  O   UNL     1       8.972   4.437  24.804  0.00  0.00    -0.381 OA
ATOM     29  H   UNL     1       9.856   4.114  24.528  0.00  0.00    +0.211 HD
ENDBRANCH  11  28
BRANCH  15  30
ATOM     30  O   UNL     1       4.883   0.965  25.291  0.00  0.00    -0.506 OA
ATOM     31  H   UNL     1       4.864   1.875  25.674  0.00  0.00    +0.292 HD
ENDBRANCH  15  30
BRANCH  13  32
ATOM     32  O   UNL     1       6.982   3.336  26.123  0.00  0.00    -0.343 OA
BRANCH  32  33
ATOM     33  C   UNL     1       6.418   4.137  27.174  0.00  0.00    +0.253 C 
ATOM     34  O   UNL     1       7.145   3.986  28.394  0.00  0.00    -0.346 OA
ATOM     35  C   UNL     1       6.978   2.742  29.090  0.00  0.00    +0.148 C 
ATOM     36  C   UNL     1       7.586   2.944  30.479  0.00  0.00    +0.041 C 
ATOM     37  C   UNL     1       5.513   2.257  29.193  0.00  0.00    +0.160 C 
ATOM     38  C   UNL     1       4.797   2.413  27.841  0.00  0.00    +0.087 C 
ATOM     39  C   UNL     1       4.940   3.865  27.397  0.00  0.00    +0.082 C 
BRANCH  38  40
ATOM     40  N   UNL     1       3.371   2.044  27.945  0.00  0.00    -0.325 NA
ATOM     41  H   UNL     1       2.863   2.400  27.134  0.00  0.00    +0.119 HD
ATOM     42  H   UNL     1       3.312   1.027  27.849  0.00  0.00    +0.119 HD
ENDBRANCH  38  40
BRANCH  37  43
ATOM     43  O   UNL     1       4.773   3.002  30.173  0.00  0.00    -0.388 OA
ATOM     44  H   UNL     1       5.464   3.379  30.754  0.00  0.00    +0.210 HD
ENDBRANCH  37  43
ENDBRANCH  32  33
ENDBRANCH  13  32
TORSDOF 9
ENDMDL
