MODEL 1
REMARK VINA RESULT:      -5.5      0.000      0.000
REMARK  Name = 
REMARK  6 active torsions:
REMARK  status: ('A' for Active; 'I' for Inactive)
REMARK    1  A    between atoms: C_1  and  C_2
REMARK    2  A    between atoms: N_4  and  C_5
REMARK    3  A    between atoms: C_9  and  C_11
REMARK    4  A    between atoms: C_11  and  O_12
REMARK    5  A    between atoms: C_13  and  O_15
REMARK    6  A    between atoms: C_16  and  O_18
REMARK                            x       y       z     vdW  Elec       q    Type
REMARK                         _______ _______ _______ _____ _____    ______ ____
ROOT
ATOM      1  C   UNL     1       9.666  -1.218  23.330  0.00  0.00    +0.172 C 
ATOM      2  C   UNL     1       9.222  -0.234  22.222  0.00  0.00    +0.178 C 
ATOM      3  C   UNL     1      10.073   1.049  22.246  0.00  0.00    +0.153 C 
ATOM      4  C   UNL     1      10.089   1.648  23.663  0.00  0.00    +0.059 C 
ATOM      5  C   UNL     1      10.605   0.587  24.642  0.00  0.00    +0.091 C 
ATOM      6  N   UNL     1       9.737  -0.586  24.639  0.00  0.00    -0.296 NA
ATOM      7  H   UNL     1      10.101  -1.302  25.276  0.00  0.00    +0.124 HD
ENDROOT
BRANCH   1  10
ATOM      8  C   UNL     1       7.834  -4.480  23.840  0.00  0.00    +0.109 C 
ATOM      9  C   UNL     1       8.981  -3.512  23.962  0.00  0.00    +0.211 C 
ATOM     10  N   UNL     1       8.694  -2.275  23.443  0.00  0.00    -0.298 N 
ATOM     11  H   UNL     1       7.936  -2.229  22.777  0.00  0.00    +0.150 HD
ATOM     12  O   UNL     1      10.053  -3.808  24.486  0.00  0.00    -0.276 OA
ENDBRANCH   1  10
BRANCH   2  13
ATOM     13  O   UNL     1       9.325  -0.908  20.953  0.00  0.00    -0.386 OA
ATOM     14  H   UNL     1      10.171  -1.393  20.958  0.00  0.00    +0.210 HD
ENDBRANCH   2  13
BRANCH   3  15
ATOM     15  O   UNL     1       9.533   1.958  21.279  0.00  0.00    -0.389 OA
ATOM     16  H   UNL     1       9.309   2.786  21.759  0.00  0.00    +0.210 HD
ENDBRANCH   3  15
BRANCH   4  17
ATOM     17  C   UNL     1      10.938   2.918  23.758  0.00  0.00    +0.163 C 
BRANCH  17  18
ATOM     18  O   UNL     1      10.237   4.013  23.183  0.00  0.00    -0.395 OA
ATOM     19  H   UNL     1      10.462   4.043  22.238  0.00  0.00    +0.209 HD
ENDBRANCH  17  18
ENDBRANCH   4  17
TORSDOF 5
ENDMDL
MODEL 2
REMARK VINA RESULT:      -5.4      1.883      5.317
REMARK  Name = 
REMARK  6 active torsions:
REMARK  status: ('A' for Active; 'I' for Inactive)
REMARK    1  A    between atoms: C_1  and  C_2
REMARK    2  A    between atoms: N_4  and  C_5
REMARK    3  A    between atoms: C_9  and  C_11
REMARK    4  A    between atoms: C_11  and  O_12
REMARK    5  A    between atoms: C_13  and  O_15
REMARK    6  A    between atoms: C_16  and  O_18
REMARK                            x       y       z     vdW  Elec       q    Type
REMARK                         _______ _______ _______ _____ _____    ______ ____
ROOT
ATOM      1  C   UNL     1       9.579   2.074  23.490  0.00  0.00    +0.172 C 
ATOM      2  C   UNL     1       9.843   1.292  22.181  0.00  0.00    +0.178 C 
ATOM      3  C   UNL     1       9.506  -0.201  22.350  0.00  0.00    +0.153 C 
ATOM      4  C   UNL     1      10.220  -0.769  23.589  0.00  0.00    +0.059 C 
ATOM      5  C   UNL     1       9.821   0.062  24.814  0.00  0.00    +0.091 C 
ATOM      6  N   UNL     1      10.214   1.457  24.644  0.00  0.00    -0.296 NA
ATOM      7  H   UNL     1       9.922   2.013  25.455  0.00  0.00    +0.124 HD
ENDROOT
BRANCH   1  10
ATOM      8  C   UNL     1      10.356   5.764  23.694  0.00  0.00    +0.109 C 
ATOM      9  C   UNL     1       9.698   4.472  24.099  0.00  0.00    +0.211 C 
ATOM     10  N   UNL     1      10.143   3.395  23.375  0.00  0.00    -0.298 N 
ATOM     11  H   UNL     1      10.576   3.597  22.485  0.00  0.00    +0.150 HD
ATOM     12  O   UNL     1       8.859   4.401  24.995  0.00  0.00    -0.276 OA
ENDBRANCH   1  10
BRANCH   2  13
ATOM     13  O   UNL     1       9.058   1.892  21.132  0.00  0.00    -0.386 OA
ATOM     14  H   UNL     1       9.094   1.285  20.370  0.00  0.00    +0.210 HD
ENDBRANCH   2  13
BRANCH   3  15
ATOM     15  O   UNL     1       9.884  -0.880  21.146  0.00  0.00    -0.389 OA
ATOM     16  H   UNL     1      10.087  -0.187  20.479  0.00  0.00    +0.210 HD
ENDBRANCH   3  15
BRANCH   4  17
ATOM     17  C   UNL     1       9.909  -2.248  23.824  0.00  0.00    +0.163 C 
BRANCH  17  18
ATOM     18  O   UNL     1       8.780  -2.634  23.050  0.00  0.00    -0.395 OA
ATOM     19  H   UNL     1       8.875  -3.578  22.841  0.00  0.00    +0.209 HD
ENDBRANCH  17  18
ENDBRANCH   4  17
TORSDOF 5
ENDMDL
MODEL 3
REMARK VINA RESULT:      -5.1      2.894      6.777
REMARK  Name = 
REMARK  6 active torsions:
REMARK  status: ('A' for Active; 'I' for Inactive)
REMARK    1  A    between atoms: C_1  and  C_2
REMARK    2  A    between atoms: N_4  and  C_5
REMARK    3  A    between atoms: C_9  and  C_11
REMARK    4  A    between atoms: C_11  and  O_12
REMARK    5  A    between atoms: C_13  and  O_15
REMARK    6  A    between atoms: C_16  and  O_18
REMARK                            x       y       z     vdW  Elec       q    Type
REMARK                         _______ _______ _______ _____ _____    ______ ____
ROOT
ATOM      1  C   UNL     1       8.426  -3.786  24.204  0.00  0.00    +0.172 C 
ATOM      2  C   UNL     1       8.893  -4.484  25.504  0.00  0.00    +0.178 C 
ATOM      3  C   UNL     1       7.768  -5.343  26.108  0.00  0.00    +0.153 C 
ATOM      4  C   UNL     1       6.484  -4.507  26.257  0.00  0.00    +0.059 C 
ATOM      5  C   UNL     1       6.108  -3.930  24.887  0.00  0.00    +0.091 C 
ATOM      6  N   UNL     1       7.171  -3.071  24.378  0.00  0.00    -0.296 NA
ATOM      7  H   UNL     1       6.925  -2.709  23.450  0.00  0.00    +0.124 HD
ENDROOT
BRANCH   1  10
ATOM      8  C   UNL     1      10.491  -1.160  22.445  0.00  0.00    +0.109 C 
ATOM      9  C   UNL     1       9.272  -2.003  22.708  0.00  0.00    +0.211 C 
ATOM     10  N   UNL     1       9.403  -2.802  23.816  0.00  0.00    -0.298 N 
ATOM     11  H   UNL     1      10.345  -2.992  24.127  0.00  0.00    +0.150 HD
ATOM     12  O   UNL     1       8.265  -1.963  22.003  0.00  0.00    -0.276 OA
ENDBRANCH   1  10
BRANCH   2  13
ATOM     13  O   UNL     1      10.054  -5.280  25.196  0.00  0.00    -0.386 OA
ATOM     14  H   UNL     1      10.278  -5.105  24.263  0.00  0.00    +0.210 HD
ENDBRANCH   2  13
BRANCH   3  15
ATOM     15  O   UNL     1       8.228  -5.860  27.362  0.00  0.00    -0.389 OA
ATOM     16  H   UNL     1       7.533  -6.473  27.691  0.00  0.00    +0.210 HD
ENDBRANCH   3  15
BRANCH   4  17
ATOM     17  C   UNL     1       5.318  -5.312  26.835  0.00  0.00    +0.163 C 
BRANCH  17  18
ATOM     18  O   UNL     1       5.599  -6.703  26.745  0.00  0.00    -0.395 OA
ATOM     19  H   UNL     1       6.444  -6.863  27.198  0.00  0.00    +0.209 HD
ENDBRANCH  17  18
ENDBRANCH   4  17
TORSDOF 5
ENDMDL
MODEL 4
REMARK VINA RESULT:      -4.9      1.727      1.980
REMARK  Name = 
REMARK  6 active torsions:
REMARK  status: ('A' for Active; 'I' for Inactive)
REMARK    1  A    between atoms: C_1  and  C_2
REMARK    2  A    between atoms: N_4  and  C_5
REMARK    3  A    between atoms: C_9  and  C_11
REMARK    4  A    between atoms: C_11  and  O_12
REMARK    5  A    between atoms: C_13  and  O_15
REMARK    6  A    between atoms: C_16  and  O_18
REMARK                            x       y       z     vdW  Elec       q    Type
REMARK                         _______ _______ _______ _____ _____    ______ ____
ROOT
ATOM      1  C   UNL     1       8.561  -1.943  23.644  0.00  0.00    +0.172 C 
ATOM      2  C   UNL     1       7.501  -0.825  23.501  0.00  0.00    +0.178 C 
ATOM      3  C   UNL     1       8.076   0.392  22.753  0.00  0.00    +0.153 C 
ATOM      4  C   UNL     1       9.395   0.842  23.406  0.00  0.00    +0.059 C 
ATOM      5  C   UNL     1      10.367  -0.345  23.425  0.00  0.00    +0.091 C 
ATOM      6  N   UNL     1       9.815  -1.453  24.197  0.00  0.00    -0.296 NA
ATOM      7  H   UNL     1      10.457  -2.253  24.184  0.00  0.00    +0.124 HD
ENDROOT
BRANCH   1  10
ATOM      8  C   UNL     1       8.006  -5.016  25.766  0.00  0.00    +0.109 C 
ATOM      9  C   UNL     1       8.789  -4.063  24.902  0.00  0.00    +0.211 C 
ATOM     10  N   UNL     1       8.076  -2.942  24.561  0.00  0.00    -0.298 N 
ATOM     11  H   UNL     1       7.070  -3.009  24.624  0.00  0.00    +0.150 HD
ATOM     12  O   UNL     1       9.950  -4.274  24.556  0.00  0.00    -0.276 OA
ENDBRANCH   1  10
BRANCH   2  13
ATOM     13  O   UNL     1       6.359  -1.371  22.814  0.00  0.00    -0.386 OA
ATOM     14  H   UNL     1       5.760  -1.725  23.498  0.00  0.00    +0.210 HD
ENDBRANCH   2  13
BRANCH   3  15
ATOM     15  O   UNL     1       7.086   1.428  22.762  0.00  0.00    -0.389 OA
ATOM     16  H   UNL     1       6.865   1.621  21.824  0.00  0.00    +0.210 HD
ENDBRANCH   3  15
BRANCH   4  17
ATOM     17  C   UNL     1      10.030   2.038  22.694  0.00  0.00    +0.163 C 
BRANCH  17  18
ATOM     18  O   UNL     1       9.621   2.063  21.332  0.00  0.00    -0.395 OA
ATOM     19  H   UNL     1       8.946   2.755  21.240  0.00  0.00    +0.209 HD
ENDBRANCH  17  18
ENDBRANCH   4  17
TORSDOF 5
ENDMDL
MODEL 5
REMARK VINA RESULT:      -4.9      1.834      5.766
REMARK  Name = 
REMARK  6 active torsions:
REMARK  status: ('A' for Active; 'I' for Inactive)
REMARK    1  A    between atoms: C_1  and  C_2
REMARK    2  A    between atoms: N_4  and  C_5
REMARK    3  A    between atoms: C_9  and  C_11
REMARK    4  A    between atoms: C_11  and  O_12
REMARK    5  A    between atoms: C_13  and  O_15
REMARK    6  A    between atoms: C_16  and  O_18
REMARK                            x       y       z     vdW  Elec       q    Type
REMARK                         _______ _______ _______ _____ _____    ______ ____
ROOT
ATOM      1  C   UNL     1       8.511  -1.572  23.786  0.00  0.00    +0.172 C 
ATOM      2  C   UNL     1       9.660  -2.557  24.109  0.00  0.00    +0.178 C 
ATOM      3  C   UNL     1       9.113  -3.956  24.448  0.00  0.00    +0.153 C 
ATOM      4  C   UNL     1       8.034  -3.853  25.539  0.00  0.00    +0.059 C 
ATOM      5  C   UNL     1       6.935  -2.896  25.060  0.00  0.00    +0.091 C 
ATOM      6  N   UNL     1       7.479  -1.565  24.812  0.00  0.00    -0.296 NA
ATOM      7  H   UNL     1       6.746  -0.937  24.467  0.00  0.00    +0.124 HD
ENDROOT
BRANCH   1  10
ATOM      8  C   UNL     1      10.114   1.704  22.810  0.00  0.00    +0.109 C 
ATOM      9  C   UNL     1       9.488   0.355  22.576  0.00  0.00    +0.211 C 
ATOM     10  N   UNL     1       9.036  -0.232  23.731  0.00  0.00    -0.298 N 
ATOM     11  H   UNL     1       9.436   0.104  24.595  0.00  0.00    +0.150 HD
ATOM     12  O   UNL     1       9.387  -0.151  21.460  0.00  0.00    -0.276 OA
ENDBRANCH   1  10
BRANCH   2  13
ATOM     13  O   UNL     1      10.548  -2.601  22.975  0.00  0.00    -0.386 OA
ATOM     14  H   UNL     1      11.402  -2.234  23.270  0.00  0.00    +0.210 HD
ENDBRANCH   2  13
BRANCH   3  15
ATOM     15  O   UNL     1      10.215  -4.778  24.850  0.00  0.00    -0.389 OA
ATOM     16  H   UNL     1      11.006  -4.453  24.365  0.00  0.00    +0.210 HD
ENDBRANCH   3  15
BRANCH   4  17
ATOM     17  C   UNL     1       7.433  -5.211  25.907  0.00  0.00    +0.163 C 
BRANCH  17  18
ATOM     18  O   UNL     1       8.253  -5.856  26.875  0.00  0.00    -0.395 OA
ATOM     19  H   UNL     1       9.152  -5.908  26.511  0.00  0.00    +0.209 HD
ENDBRANCH  17  18
ENDBRANCH   4  17
TORSDOF 5
ENDMDL
MODEL 6
REMARK VINA RESULT:      -4.9      2.105      2.909
REMARK  Name = 
REMARK  6 active torsions:
REMARK  status: ('A' for Active; 'I' for Inactive)
REMARK    1  A    between atoms: C_1  and  C_2
REMARK    2  A    between atoms: N_4  and  C_5
REMARK    3  A    between atoms: C_9  and  C_11
REMARK    4  A    between atoms: C_11  and  O_12
REMARK    5  A    between atoms: C_13  and  O_15
REMARK    6  A    between atoms: C_16  and  O_18
REMARK                            x       y       z     vdW  Elec       q    Type
REMARK                         _______ _______ _______ _____ _____    ______ ____
ROOT
ATOM      1  C   UNL     1       8.225  -1.880  23.048  0.00  0.00    +0.172 C 
ATOM      2  C   UNL     1       8.943  -1.404  24.332  0.00  0.00    +0.178 C 
ATOM      3  C   UNL     1       9.277   0.098  24.257  0.00  0.00    +0.153 C 
ATOM      4  C   UNL     1      10.030   0.409  22.952  0.00  0.00    +0.059 C 
ATOM      5  C   UNL     1       9.177  -0.060  21.766  0.00  0.00    +0.091 C 
ATOM      6  N   UNL     1       8.937  -1.497  21.838  0.00  0.00    -0.296 NA
ATOM      7  H   UNL     1       8.346  -1.801  21.057  0.00  0.00    +0.124 HD
ENDROOT
BRANCH   1  10
ATOM      8  C   UNL     1       7.285  -5.512  22.621  0.00  0.00    +0.109 C 
ATOM      9  C   UNL     1       7.220  -4.033  22.349  0.00  0.00    +0.211 C 
ATOM     10  N   UNL     1       8.164  -3.319  23.044  0.00  0.00    -0.298 N 
ATOM     11  H   UNL     1       8.554  -3.763  23.863  0.00  0.00    +0.150 HD
ATOM     12  O   UNL     1       6.409  -3.531  21.573  0.00  0.00    -0.276 OA
ENDBRANCH   1  10
BRANCH   2  13
ATOM     13  O   UNL     1       8.094  -1.697  25.459  0.00  0.00    -0.386 OA
ATOM     14  H   UNL     1       8.592  -2.303  26.038  0.00  0.00    +0.210 HD
ENDBRANCH   2  13
BRANCH   3  15
ATOM     15  O   UNL     1      10.042   0.441  25.419  0.00  0.00    -0.389 OA
ATOM     16  H   UNL     1      10.720   1.093  25.133  0.00  0.00    +0.210 HD
ENDBRANCH   3  15
BRANCH   4  17
ATOM     17  C   UNL     1      10.373   1.893  22.806  0.00  0.00    +0.163 C 
BRANCH  17  18
ATOM     18  O   UNL     1      10.072   2.332  21.488  0.00  0.00    -0.395 OA
ATOM     19  H   UNL     1      10.088   3.303  21.489  0.00  0.00    +0.209 HD
ENDBRANCH  17  18
ENDBRANCH   4  17
TORSDOF 5
ENDMDL
MODEL 7
REMARK VINA RESULT:      -4.9      2.813      5.952
REMARK  Name = 
REMARK  6 active torsions:
REMARK  status: ('A' for Active; 'I' for Inactive)
REMARK    1  A    between atoms: C_1  and  C_2
REMARK    2  A    between atoms: N_4  and  C_5
REMARK    3  A    between atoms: C_9  and  C_11
REMARK    4  A    between atoms: C_11  and  O_12
REMARK    5  A    between atoms: C_13  and  O_15
REMARK    6  A    between atoms: C_16  and  O_18
REMARK                            x       y       z     vdW  Elec       q    Type
REMARK                         _______ _______ _______ _____ _____    ______ ____
ROOT
ATOM      1  C   UNL     1       8.188  -2.535  23.890  0.00  0.00    +0.172 C 
ATOM      2  C   UNL     1       7.218  -2.348  22.700  0.00  0.00    +0.178 C 
ATOM      3  C   UNL     1       6.282  -3.562  22.552  0.00  0.00    +0.153 C 
ATOM      4  C   UNL     1       7.102  -4.863  22.510  0.00  0.00    +0.059 C 
ATOM      5  C   UNL     1       7.968  -4.943  23.773  0.00  0.00    +0.091 C 
ATOM      6  N   UNL     1       8.886  -3.811  23.845  0.00  0.00    -0.296 NA
ATOM      7  H   UNL     1       9.443  -3.856  24.704  0.00  0.00    +0.124 HD
ENDROOT
BRANCH   1  10
ATOM      8  C   UNL     1      10.513   0.367  24.546  0.00  0.00    +0.109 C 
ATOM      9  C   UNL     1       9.518  -0.705  24.900  0.00  0.00    +0.211 C 
ATOM     10  N   UNL     1       9.205  -1.516  23.838  0.00  0.00    -0.298 N 
ATOM     11  H   UNL     1       9.387  -1.144  22.916  0.00  0.00    +0.150 HD
ATOM     12  O   UNL     1       9.050  -0.838  26.029  0.00  0.00    -0.276 OA
ENDBRANCH   1  10
BRANCH   2  13
ATOM     13  O   UNL     1       6.473  -1.133  22.911  0.00  0.00    -0.386 OA
ATOM     14  H   UNL     1       6.731  -0.516  22.201  0.00  0.00    +0.210 HD
ENDBRANCH   2  13
BRANCH   3  15
ATOM     15  O   UNL     1       5.498  -3.376  21.367  0.00  0.00    -0.389 OA
ATOM     16  H   UNL     1       5.650  -4.163  20.797  0.00  0.00    +0.210 HD
ENDBRANCH   3  15
BRANCH   4  17
ATOM     17  C   UNL     1       6.226  -6.111  22.384  0.00  0.00    +0.163 C 
BRANCH  17  18
ATOM     18  O   UNL     1       5.598  -6.135  21.109  0.00  0.00    -0.395 OA
ATOM     19  H   UNL     1       6.271  -5.912  20.445  0.00  0.00    +0.209 HD
ENDBRANCH  17  18
ENDBRANCH   4  17
TORSDOF 5
ENDMDL
MODEL 8
REMARK VINA RESULT:      -4.8      2.140      2.398
REMARK  Name = 
REMARK  6 active torsions:
REMARK  status: ('A' for Active; 'I' for Inactive)
REMARK    1  A    between atoms: C_1  and  C_2
REMARK    2  A    between atoms: N_4  and  C_5
REMARK    3  A    between atoms: C_9  and  C_11
REMARK    4  A    between atoms: C_11  and  O_12
REMARK    5  A    between atoms: C_13  and  O_15
REMARK    6  A    between atoms: C_16  and  O_18
REMARK                            x       y       z     vdW  Elec       q    Type
REMARK                         _______ _______ _______ _____ _____    ______ ____
ROOT
ATOM      1  C   UNL     1       7.803  -1.814  22.816  0.00  0.00    +0.172 C 
ATOM      2  C   UNL     1       8.758  -1.039  21.878  0.00  0.00    +0.178 C 
ATOM      3  C   UNL     1       8.968   0.405  22.369  0.00  0.00    +0.153 C 
ATOM      4  C   UNL     1       7.610   1.089  22.604  0.00  0.00    +0.059 C 
ATOM      5  C   UNL     1       6.797   0.246  23.595  0.00  0.00    +0.091 C 
ATOM      6  N   UNL     1       6.564  -1.093  23.066  0.00  0.00    -0.296 NA
ATOM      7  H   UNL     1       6.042  -1.660  23.744  0.00  0.00    +0.124 HD
ENDROOT
BRANCH   1  10
ATOM      8  C   UNL     1       7.211  -5.429  21.902  0.00  0.00    +0.109 C 
ATOM      9  C   UNL     1       7.531  -4.275  22.815  0.00  0.00    +0.211 C 
ATOM     10  N   UNL     1       7.429  -3.057  22.192  0.00  0.00    -0.298 N 
ATOM     11  H   UNL     1       7.483  -3.059  21.183  0.00  0.00    +0.150 HD
ATOM     12  O   UNL     1       7.838  -4.422  23.996  0.00  0.00    -0.276 OA
ENDBRANCH   1  10
BRANCH   2  13
ATOM     13  O   UNL     1      10.005  -1.757  21.810  0.00  0.00    -0.386 OA
ATOM     14  H   UNL     1      10.004  -2.247  20.967  0.00  0.00    +0.210 HD
ENDBRANCH   2  13
BRANCH   3  15
ATOM     15  O   UNL     1       9.761   1.095  21.395  0.00  0.00    -0.389 OA
ATOM     16  H   UNL     1      10.447   1.597  21.889  0.00  0.00    +0.210 HD
ENDBRANCH   3  15
BRANCH   4  17
ATOM     17  C   UNL     1       7.750   2.524  23.116  0.00  0.00    +0.163 C 
BRANCH  17  18
ATOM     18  O   UNL     1       8.178   3.374  22.059  0.00  0.00    -0.395 OA
ATOM     19  H   UNL     1       9.146   3.438  22.106  0.00  0.00    +0.209 HD
ENDBRANCH  17  18
ENDBRANCH   4  17
TORSDOF 5
ENDMDL
MODEL 9
REMARK VINA RESULT:      -4.8      2.237      3.420
REMARK  Name = 
REMARK  6 active torsions:
REMARK  status: ('A' for Active; 'I' for Inactive)
REMARK    1  A    between atoms: C_1  and  C_2
REMARK    2  A    between atoms: N_4  and  C_5
REMARK    3  A    between atoms: C_9  and  C_11
REMARK    4  A    between atoms: C_11  and  O_12
REMARK    5  A    between atoms: C_13  and  O_15
REMARK    6  A    between atoms: C_16  and  O_18
REMARK                            x       y       z     vdW  Elec       q    Type
REMARK                         _______ _______ _______ _____ _____    ______ ____
ROOT
ATOM      1  C   UNL     1       7.210  -2.009  23.799  0.00  0.00    +0.172 C 
ATOM      2  C   UNL     1       8.440  -2.506  23.004  0.00  0.00    +0.178 C 
ATOM      3  C   UNL     1       9.403  -1.346  22.691  0.00  0.00    +0.153 C 
ATOM      4  C   UNL     1       8.639  -0.186  22.028  0.00  0.00    +0.059 C 
ATOM      5  C   UNL     1       7.491   0.241  22.951  0.00  0.00    +0.091 C 
ATOM      6  N   UNL     1       6.566  -0.865  23.172  0.00  0.00    -0.296 NA
ATOM      7  H   UNL     1       5.815  -0.582  23.809  0.00  0.00    +0.124 HD
ENDROOT
BRANCH   1  10
ATOM      8  C   UNL     1       4.410  -4.447  23.108  0.00  0.00    +0.109 C 
ATOM      9  C   UNL     1       5.467  -3.431  22.763  0.00  0.00    +0.211 C 
ATOM     10  N   UNL     1       6.221  -3.055  23.846  0.00  0.00    -0.298 N 
ATOM     11  H   UNL     1       5.815  -3.216  24.757  0.00  0.00    +0.150 HD
ATOM     12  O   UNL     1       5.634  -3.000  21.624  0.00  0.00    -0.276 OA
ENDBRANCH   1  10
BRANCH   2  13
ATOM     13  O   UNL     1       9.090  -3.534  23.774  0.00  0.00    -0.386 OA
ATOM     14  H   UNL     1       9.908  -3.770  23.298  0.00  0.00    +0.210 HD
ENDBRANCH   2  13
BRANCH   3  15
ATOM     15  O   UNL     1      10.451  -1.852  21.855  0.00  0.00    -0.389 OA
ATOM     16  H   UNL     1      11.083  -1.113  21.710  0.00  0.00    +0.210 HD
ENDBRANCH   3  15
BRANCH   4  17
ATOM     17  C   UNL     1       9.539   1.010  21.710  0.00  0.00    +0.163 C 
BRANCH  17  18
ATOM     18  O   UNL     1       8.745   2.124  21.324  0.00  0.00    -0.395 OA
ATOM     19  H   UNL     1       8.980   2.869  21.901  0.00  0.00    +0.209 HD
ENDBRANCH  17  18
ENDBRANCH   4  17
TORSDOF 5
ENDMDL
