MODEL 1
REMARK VINA RESULT:      -7.3      0.000      0.000
REMARK  Name = 
REMARK  3 active torsions:
REMARK  status: ('A' for Active; 'I' for Inactive)
REMARK    1  A    between atoms: C_1  and  N_2
REMARK    2  A    between atoms: C_8  and  O_10
REMARK    3  A    between atoms: O_10  and  C_11
REMARK                            x       y       z     vdW  Elec       q    Type
REMARK                         _______ _______ _______ _____ _____    ______ ____
ROOT
ATOM      1  C   UNL     1       7.048  -4.470  24.659  0.00  0.00    +0.328 C 
ATOM      2  C   UNL     1       8.068  -3.563  24.013  0.00  0.00    +0.131 A 
ATOM      3  C   UNL     1       7.511  -2.955  22.906  0.00  0.00    +0.153 A 
ATOM      4  N   UNL     1       8.152  -2.073  22.116  0.00  0.00    -0.247 NA
ATOM      5  C   UNL     1       9.419  -1.816  22.530  0.00  0.00    +0.131 A 
ATOM      6  C   UNL     1       9.989  -2.414  23.657  0.00  0.00    +0.131 A 
ATOM      7  C   UNL     1       6.131  -3.435  22.741  0.00  0.00    +0.275 C 
ATOM      8  O   UNL     1       5.402  -3.136  21.812  0.00  0.00    -0.268 OA
ATOM      9  N   UNL     1       9.330  -3.310  24.434  0.00  0.00    -0.251 NA
ATOM     10  N   UNL     1       5.899  -4.321  23.784  0.00  0.00    -0.208 N 
ATOM     11  C   UNL     1       4.813  -5.199  23.869  0.00  0.00    +0.131 A 
ATOM     12  C   UNL     1       3.553  -4.845  23.389  0.00  0.00    +0.045 A 
ATOM     13  C   UNL     1       2.513  -5.777  23.450  0.00  0.00    +0.025 A 
ATOM     14  C   UNL     1       2.769  -7.044  23.950  0.00  0.00    +0.059 A 
ATOM     15 CL   UNL     1       1.544  -8.243  23.981  0.00  0.00    -0.082 Cl
ATOM     16  C   UNL     1       4.043  -7.314  24.417  0.00  0.00    +0.132 A 
ATOM     17  N   UNL     1       5.053  -6.409  24.415  0.00  0.00    -0.238 NA
ENDROOT
BRANCH   1  18
ATOM     18  O   UNL     1       6.732  -3.889  25.925  0.00  0.00    -0.422 OA
BRANCH  18  24
ATOM     19  C   UNL     1       2.884  -5.302  29.949  0.00  0.00    +0.105 C 
ATOM     20  N   UNL     1       4.057  -4.430  29.966  0.00  0.00    -0.302 NA
ATOM     21  C   UNL     1       4.096  -3.541  28.782  0.00  0.00    +0.103 C 
ATOM     22  C   UNL     1       4.482  -4.237  27.456  0.00  0.00    +0.126 C 
ATOM     23  N   UNL     1       5.715  -5.009  27.621  0.00  0.00    -0.265 N 
ATOM     24  C   UNL     1       6.907  -4.695  26.999  0.00  0.00    +0.405 C 
ATOM     25  O   UNL     1       7.995  -5.119  27.366  0.00  0.00    -0.226 OA
ATOM     26  C   UNL     1       5.708  -5.932  28.753  0.00  0.00    +0.126 C 
ATOM     27  C   UNL     1       5.316  -5.206  30.053  0.00  0.00    +0.103 C 
ENDBRANCH  18  24
ENDBRANCH   1  18
TORSDOF 2
ENDMDL
MODEL 2
REMARK VINA RESULT:      -6.8      4.116      7.092
REMARK  Name = 
REMARK  3 active torsions:
REMARK  status: ('A' for Active; 'I' for Inactive)
REMARK    1  A    between atoms: C_1  and  N_2
REMARK    2  A    between atoms: C_8  and  O_10
REMARK    3  A    between atoms: O_10  and  C_11
REMARK                            x       y       z     vdW  Elec       q    Type
REMARK                         _______ _______ _______ _____ _____    ______ ____
ROOT
ATOM      1  C   UNL     1       7.292  -2.913  23.541  0.00  0.00    +0.328 C 
ATOM      2  C   UNL     1       6.759  -4.128  22.820  0.00  0.00    +0.131 A 
ATOM      3  C   UNL     1       5.445  -4.343  23.185  0.00  0.00    +0.153 A 
ATOM      4  N   UNL     1       4.673  -5.338  22.709  0.00  0.00    -0.247 NA
ATOM      5  C   UNL     1       5.314  -6.116  21.801  0.00  0.00    +0.131 A 
ATOM      6  C   UNL     1       6.640  -5.901  21.413  0.00  0.00    +0.131 A 
ATOM      7  C   UNL     1       5.049  -3.323  24.169  0.00  0.00    +0.275 C 
ATOM      8  O   UNL     1       3.971  -3.290  24.734  0.00  0.00    -0.268 OA
ATOM      9  N   UNL     1       7.406  -4.898  21.913  0.00  0.00    -0.251 NA
ATOM     10  N   UNL     1       6.157  -2.508  24.352  0.00  0.00    -0.208 N 
ATOM     11  C   UNL     1       6.309  -1.572  25.381  0.00  0.00    +0.131 A 
ATOM     12  C   UNL     1       5.223  -0.845  25.868  0.00  0.00    +0.045 A 
ATOM     13  C   UNL     1       5.416   0.040  26.932  0.00  0.00    +0.025 A 
ATOM     14  C   UNL     1       6.674   0.145  27.504  0.00  0.00    +0.059 A 
ATOM     15 CL   UNL     1       6.944   1.165  28.856  0.00  0.00    -0.082 Cl
ATOM     16  C   UNL     1       7.702  -0.602  26.956  0.00  0.00    +0.132 A 
ATOM     17  N   UNL     1       7.548  -1.427  25.892  0.00  0.00    -0.238 NA
ENDROOT
BRANCH   1  18
ATOM     18  O   UNL     1       7.516  -1.916  22.544  0.00  0.00    -0.422 OA
BRANCH  18  24
ATOM     19  C   UNL     1       8.962   3.583  23.365  0.00  0.00    +0.105 C 
ATOM     20  N   UNL     1       8.936   2.735  22.175  0.00  0.00    -0.302 NA
ATOM     21  C   UNL     1       7.679   1.957  22.083  0.00  0.00    +0.103 C 
ATOM     22  C   UNL     1       7.569   0.776  23.076  0.00  0.00    +0.126 C 
ATOM     23  N   UNL     1       8.762  -0.071  23.001  0.00  0.00    -0.265 N 
ATOM     24  C   UNL     1       8.755  -1.368  22.531  0.00  0.00    +0.405 C 
ATOM     25  O   UNL     1       9.761  -1.962  22.166  0.00  0.00    -0.226 OA
ATOM     26  C   UNL     1      10.027   0.648  23.129  0.00  0.00    +0.126 C 
ATOM     27  C   UNL     1      10.099   1.819  22.130  0.00  0.00    +0.103 C 
ENDBRANCH  18  24
ENDBRANCH   1  18
TORSDOF 2
ENDMDL
MODEL 3
REMARK VINA RESULT:      -6.7      4.886      7.057
REMARK  Name = 
REMARK  3 active torsions:
REMARK  status: ('A' for Active; 'I' for Inactive)
REMARK    1  A    between atoms: C_1  and  N_2
REMARK    2  A    between atoms: C_8  and  O_10
REMARK    3  A    between atoms: O_10  and  C_11
REMARK                            x       y       z     vdW  Elec       q    Type
REMARK                         _______ _______ _______ _____ _____    ______ ____
ROOT
ATOM      1  C   UNL     1       7.023  -1.563  24.289  0.00  0.00    +0.328 C 
ATOM      2  C   UNL     1       6.785  -3.026  24.002  0.00  0.00    +0.131 A 
ATOM      3  C   UNL     1       7.991  -3.654  23.769  0.00  0.00    +0.153 A 
ATOM      4  N   UNL     1       8.130  -4.966  23.499  0.00  0.00    -0.247 NA
ATOM      5  C   UNL     1       6.948  -5.632  23.496  0.00  0.00    +0.131 A 
ATOM      6  C   UNL     1       5.721  -5.011  23.744  0.00  0.00    +0.131 A 
ATOM      7  C   UNL     1       9.072  -2.660  23.859  0.00  0.00    +0.275 C 
ATOM      8  O   UNL     1      10.246  -2.894  23.631  0.00  0.00    -0.268 OA
ATOM      9  N   UNL     1       5.601  -3.684  24.003  0.00  0.00    -0.251 NA
ATOM     10  N   UNL     1       8.465  -1.450  24.161  0.00  0.00    -0.208 N 
ATOM     11  C   UNL     1       9.083  -0.197  24.087  0.00  0.00    +0.131 A 
ATOM     12  C   UNL     1      10.430  -0.031  24.405  0.00  0.00    +0.045 A 
ATOM     13  C   UNL     1      11.014   1.230  24.266  0.00  0.00    +0.025 A 
ATOM     14  C   UNL     1      10.250   2.278  23.776  0.00  0.00    +0.059 A 
ATOM     15 CL   UNL     1      10.941   3.828  23.522  0.00  0.00    -0.082 Cl
ATOM     16  C   UNL     1       8.918   2.036  23.494  0.00  0.00    +0.132 A 
ATOM     17  N   UNL     1       8.318   0.833  23.671  0.00  0.00    -0.238 NA
ENDROOT
BRANCH   1  18
ATOM     18  O   UNL     1       6.672  -1.356  25.658  0.00  0.00    -0.422 OA
BRANCH  18  24
ATOM     19  C   UNL     1       6.631   3.506  28.718  0.00  0.00    +0.105 C 
ATOM     20  N   UNL     1       6.071   2.178  28.965  0.00  0.00    -0.302 NA
ATOM     21  C   UNL     1       7.049   1.107  28.663  0.00  0.00    +0.103 C 
ATOM     22  C   UNL     1       7.297   0.856  27.157  0.00  0.00    +0.126 C 
ATOM     23  N   UNL     1       6.027   0.675  26.450  0.00  0.00    -0.265 N 
ATOM     24  C   UNL     1       5.631  -0.516  25.875  0.00  0.00    +0.405 C 
ATOM     25  O   UNL     1       4.472  -0.770  25.575  0.00  0.00    -0.226 OA
ATOM     26  C   UNL     1       5.045   1.730  26.684  0.00  0.00    +0.126 C 
ATOM     27  C   UNL     1       4.828   1.955  28.192  0.00  0.00    +0.103 C 
ENDBRANCH  18  24
ENDBRANCH   1  18
TORSDOF 2
ENDMDL
MODEL 4
REMARK VINA RESULT:      -6.6      4.035      6.358
REMARK  Name = 
REMARK  3 active torsions:
REMARK  status: ('A' for Active; 'I' for Inactive)
REMARK    1  A    between atoms: C_1  and  N_2
REMARK    2  A    between atoms: C_8  and  O_10
REMARK    3  A    between atoms: O_10  and  C_11
REMARK                            x       y       z     vdW  Elec       q    Type
REMARK                         _______ _______ _______ _____ _____    ______ ____
ROOT
ATOM      1  C   UNL     1       6.999  -1.563  24.248  0.00  0.00    +0.328 C 
ATOM      2  C   UNL     1       6.767  -3.026  23.956  0.00  0.00    +0.131 A 
ATOM      3  C   UNL     1       7.977  -3.651  23.733  0.00  0.00    +0.153 A 
ATOM      4  N   UNL     1       8.121  -4.962  23.461  0.00  0.00    -0.247 NA
ATOM      5  C   UNL     1       6.940  -5.631  23.445  0.00  0.00    +0.131 A 
ATOM      6  C   UNL     1       5.709  -5.013  23.683  0.00  0.00    +0.131 A 
ATOM      7  C   UNL     1       9.055  -2.656  23.835  0.00  0.00    +0.275 C 
ATOM      8  O   UNL     1      10.231  -2.886  23.618  0.00  0.00    -0.268 OA
ATOM      9  N   UNL     1       5.584  -3.687  23.944  0.00  0.00    -0.251 NA
ATOM     10  N   UNL     1       8.442  -1.447  24.135  0.00  0.00    -0.208 N 
ATOM     11  C   UNL     1       9.058  -0.193  24.069  0.00  0.00    +0.131 A 
ATOM     12  C   UNL     1      10.402  -0.025  24.400  0.00  0.00    +0.045 A 
ATOM     13  C   UNL     1      10.985   1.238  24.269  0.00  0.00    +0.025 A 
ATOM     14  C   UNL     1      10.224   2.286  23.775  0.00  0.00    +0.059 A 
ATOM     15 CL   UNL     1      10.913   3.837  23.530  0.00  0.00    -0.082 Cl
ATOM     16  C   UNL     1       8.894   2.041  23.480  0.00  0.00    +0.132 A 
ATOM     17  N   UNL     1       8.295   0.837  23.648  0.00  0.00    -0.238 NA
ENDROOT
BRANCH   1  18
ATOM     18  O   UNL     1       6.635  -1.360  25.614  0.00  0.00    -0.422 OA
BRANCH  18  24
ATOM     19  C   UNL     1       2.355  -3.088  29.036  0.00  0.00    +0.105 C 
ATOM     20  N   UNL     1       2.515  -3.075  27.583  0.00  0.00    -0.302 NA
ATOM     21  C   UNL     1       3.840  -3.595  27.172  0.00  0.00    +0.103 C 
ATOM     22  C   UNL     1       5.027  -2.638  27.434  0.00  0.00    +0.126 C 
ATOM     23  N   UNL     1       4.748  -1.312  26.880  0.00  0.00    -0.265 N 
ATOM     24  C   UNL     1       5.436  -0.762  25.818  0.00  0.00    +0.405 C 
ATOM     25  O   UNL     1       5.018   0.177  25.152  0.00  0.00    -0.226 OA
ATOM     26  C   UNL     1       3.469  -0.738  27.291  0.00  0.00    +0.126 C 
ATOM     27  C   UNL     1       2.313  -1.720  27.021  0.00  0.00    +0.103 C 
ENDBRANCH  18  24
ENDBRANCH   1  18
TORSDOF 2
ENDMDL
MODEL 5
REMARK VINA RESULT:      -6.4      3.713      5.991
REMARK  Name = 
REMARK  3 active torsions:
REMARK  status: ('A' for Active; 'I' for Inactive)
REMARK    1  A    between atoms: C_1  and  N_2
REMARK    2  A    between atoms: C_8  and  O_10
REMARK    3  A    between atoms: O_10  and  C_11
REMARK                            x       y       z     vdW  Elec       q    Type
REMARK                         _______ _______ _______ _____ _____    ______ ____
ROOT
ATOM      1  C   UNL     1       6.566  -1.671  23.975  0.00  0.00    +0.328 C 
ATOM      2  C   UNL     1       6.325  -3.008  23.315  0.00  0.00    +0.131 A 
ATOM      3  C   UNL     1       7.428  -3.357  22.562  0.00  0.00    +0.153 A 
ATOM      4  N   UNL     1       7.541  -4.500  21.860  0.00  0.00    -0.247 NA
ATOM      5  C   UNL     1       6.454  -5.304  21.978  0.00  0.00    +0.131 A 
ATOM      6  C   UNL     1       5.337  -4.968  22.748  0.00  0.00    +0.131 A 
ATOM      7  C   UNL     1       8.429  -2.284  22.655  0.00  0.00    +0.275 C 
ATOM      8  O   UNL     1       9.482  -2.267  22.042  0.00  0.00    -0.268 OA
ATOM      9  N   UNL     1       5.237  -3.805  23.441  0.00  0.00    -0.251 NA
ATOM     10  N   UNL     1       7.887  -1.315  23.487  0.00  0.00    -0.208 N 
ATOM     11  C   UNL     1       8.385  -0.017  23.646  0.00  0.00    +0.131 A 
ATOM     12  C   UNL     1       9.753   0.245  23.605  0.00  0.00    +0.045 A 
ATOM     13  C   UNL     1      10.198   1.565  23.717  0.00  0.00    +0.025 A 
ATOM     14  C   UNL     1       9.266   2.586  23.825  0.00  0.00    +0.059 A 
ATOM     15 CL   UNL     1       9.761   4.227  23.895  0.00  0.00    -0.082 Cl
ATOM     16  C   UNL     1       7.927   2.242  23.870  0.00  0.00    +0.132 A 
ATOM     17  N   UNL     1       7.476   0.965  23.815  0.00  0.00    -0.238 NA
ENDROOT
BRANCH   1  18
ATOM     18  O   UNL     1       6.653  -1.921  25.378  0.00  0.00    -0.422 OA
BRANCH  18  24
ATOM     19  C   UNL     1       5.310  -6.523  28.544  0.00  0.00    +0.105 C 
ATOM     20  N   UNL     1       4.911  -6.095  27.205  0.00  0.00    -0.302 NA
ATOM     21  C   UNL     1       6.073  -5.642  26.405  0.00  0.00    +0.103 C 
ATOM     22  C   UNL     1       6.646  -4.263  26.809  0.00  0.00    +0.126 C 
ATOM     23  N   UNL     1       5.579  -3.262  26.867  0.00  0.00    -0.265 N 
ATOM     24  C   UNL     1       5.480  -2.193  25.999  0.00  0.00    +0.405 C 
ATOM     25  O   UNL     1       4.452  -1.551  25.829  0.00  0.00    -0.226 OA
ATOM     26  C   UNL     1       4.428  -3.646  27.680  0.00  0.00    +0.126 C 
ATOM     27  C   UNL     1       3.889  -5.024  27.253  0.00  0.00    +0.103 C 
ENDBRANCH  18  24
ENDBRANCH   1  18
TORSDOF 2
ENDMDL
MODEL 6
REMARK VINA RESULT:      -6.3      3.715      5.498
REMARK  Name = 
REMARK  3 active torsions:
REMARK  status: ('A' for Active; 'I' for Inactive)
REMARK    1  A    between atoms: C_1  and  N_2
REMARK    2  A    between atoms: C_8  and  O_10
REMARK    3  A    between atoms: O_10  and  C_11
REMARK                            x       y       z     vdW  Elec       q    Type
REMARK                         _______ _______ _______ _____ _____    ______ ____
ROOT
ATOM      1  C   UNL     1       8.061  -1.996  25.541  0.00  0.00    +0.328 C 
ATOM      2  C   UNL     1       8.986  -1.481  24.464  0.00  0.00    +0.131 A 
ATOM      3  C   UNL     1       8.957  -2.336  23.381  0.00  0.00    +0.153 A 
ATOM      4  N   UNL     1       9.658  -2.155  22.246  0.00  0.00    -0.247 NA
ATOM      5  C   UNL     1      10.399  -1.018  22.258  0.00  0.00    +0.131 A 
ATOM      6  C   UNL     1      10.426  -0.137  23.343  0.00  0.00    +0.131 A 
ATOM      7  C   UNL     1       8.053  -3.457  23.681  0.00  0.00    +0.275 C 
ATOM      8  O   UNL     1       7.872  -4.414  22.949  0.00  0.00    -0.268 OA
ATOM      9  N   UNL     1       9.721  -0.343  24.484  0.00  0.00    -0.251 NA
ATOM     10  N   UNL     1       7.551  -3.223  24.954  0.00  0.00    -0.208 N 
ATOM     11  C   UNL     1       6.859  -4.157  25.732  0.00  0.00    +0.131 A 
ATOM     12  C   UNL     1       5.998  -5.088  25.154  0.00  0.00    +0.045 A 
ATOM     13  C   UNL     1       5.370  -6.035  25.968  0.00  0.00    +0.025 A 
ATOM     14  C   UNL     1       5.648  -6.049  27.326  0.00  0.00    +0.059 A 
ATOM     15 CL   UNL     1       4.956  -7.234  28.355  0.00  0.00    -0.082 Cl
ATOM     16  C   UNL     1       6.506  -5.084  27.825  0.00  0.00    +0.132 A 
ATOM     17  N   UNL     1       7.085  -4.126  27.062  0.00  0.00    -0.238 NA
ENDROOT
BRANCH   1  18
ATOM     18  O   UNL     1       6.988  -1.059  25.636  0.00  0.00    -0.422 OA
BRANCH  18  24
ATOM     19  C   UNL     1       6.332   4.459  24.178  0.00  0.00    +0.105 C 
ATOM     20  N   UNL     1       7.515   3.622  24.374  0.00  0.00    -0.302 NA
ATOM     21  C   UNL     1       7.375   2.309  23.702  0.00  0.00    +0.103 C 
ATOM     22  C   UNL     1       6.410   1.321  24.397  0.00  0.00    +0.126 C 
ATOM     23  N   UNL     1       6.741   1.193  25.818  0.00  0.00    -0.265 N 
ATOM     24  C   UNL     1       7.233   0.038  26.391  0.00  0.00    +0.405 C 
ATOM     25  O   UNL     1       7.806   0.009  27.473  0.00  0.00    -0.226 OA
ATOM     26  C   UNL     1       6.849   2.462  26.533  0.00  0.00    +0.126 C 
ATOM     27  C   UNL     1       7.813   3.422  25.811  0.00  0.00    +0.103 C 
ENDBRANCH  18  24
ENDBRANCH   1  18
TORSDOF 2
ENDMDL
MODEL 7
REMARK VINA RESULT:      -6.3      5.673      7.769
REMARK  Name = 
REMARK  3 active torsions:
REMARK  status: ('A' for Active; 'I' for Inactive)
REMARK    1  A    between atoms: C_1  and  N_2
REMARK    2  A    between atoms: C_8  and  O_10
REMARK    3  A    between atoms: O_10  and  C_11
REMARK                            x       y       z     vdW  Elec       q    Type
REMARK                         _______ _______ _______ _____ _____    ______ ____
ROOT
ATOM      1  C   UNL     1       7.978   1.317  24.971  0.00  0.00    +0.328 C 
ATOM      2  C   UNL     1       8.759   2.552  24.589  0.00  0.00    +0.131 A 
ATOM      3  C   UNL     1       9.949   2.181  23.995  0.00  0.00    +0.153 A 
ATOM      4  N   UNL     1      10.869   3.044  23.524  0.00  0.00    -0.247 NA
ATOM      5  C   UNL     1      10.501   4.342  23.673  0.00  0.00    +0.131 A 
ATOM      6  C   UNL     1       9.293   4.730  24.260  0.00  0.00    +0.131 A 
ATOM      7  C   UNL     1      10.036   0.713  23.974  0.00  0.00    +0.275 C 
ATOM      8  O   UNL     1      11.001   0.083  23.578  0.00  0.00    -0.268 OA
ATOM      9  N   UNL     1       8.384   3.844  24.740  0.00  0.00    -0.251 NA
ATOM     10  N   UNL     1       8.866   0.245  24.556  0.00  0.00    -0.208 N 
ATOM     11  C   UNL     1       8.642  -1.072  24.970  0.00  0.00    +0.131 A 
ATOM     12  C   UNL     1       9.172  -2.154  24.269  0.00  0.00    +0.045 A 
ATOM     13  C   UNL     1       8.964  -3.449  24.752  0.00  0.00    +0.025 A 
ATOM     14  C   UNL     1       8.270  -3.624  25.939  0.00  0.00    +0.059 A 
ATOM     15 CL   UNL     1       8.049  -5.187  26.609  0.00  0.00    -0.082 Cl
ATOM     16  C   UNL     1       7.766  -2.500  26.570  0.00  0.00    +0.132 A 
ATOM     17  N   UNL     1       7.912  -1.240  26.092  0.00  0.00    -0.238 NA
ENDROOT
BRANCH   1  18
ATOM     18  O   UNL     1       6.820   1.295  24.135  0.00  0.00    -0.422 OA
BRANCH  18  24
ATOM     19  C   UNL     1       3.179   5.307  22.224  0.00  0.00    +0.105 C 
ATOM     20  N   UNL     1       4.144   5.291  23.322  0.00  0.00    -0.302 NA
ATOM     21  C   UNL     1       5.449   4.734  22.897  0.00  0.00    +0.103 C 
ATOM     22  C   UNL     1       5.469   3.200  22.694  0.00  0.00    +0.126 C 
ATOM     23  N   UNL     1       4.924   2.520  23.870  0.00  0.00    -0.265 N 
ATOM     24  C   UNL     1       5.673   1.723  24.713  0.00  0.00    +0.405 C 
ATOM     25  O   UNL     1       5.323   1.420  25.846  0.00  0.00    -0.226 OA
ATOM     26  C   UNL     1       3.617   3.007  24.303  0.00  0.00    +0.126 C 
ATOM     27  C   UNL     1       3.633   4.536  24.489  0.00  0.00    +0.103 C 
ENDBRANCH  18  24
ENDBRANCH   1  18
TORSDOF 2
ENDMDL
MODEL 8
REMARK VINA RESULT:      -6.1      3.622      5.966
REMARK  Name = 
REMARK  3 active torsions:
REMARK  status: ('A' for Active; 'I' for Inactive)
REMARK    1  A    between atoms: C_1  and  N_2
REMARK    2  A    between atoms: C_8  and  O_10
REMARK    3  A    between atoms: O_10  and  C_11
REMARK                            x       y       z     vdW  Elec       q    Type
REMARK                         _______ _______ _______ _____ _____    ______ ____
ROOT
ATOM      1  C   UNL     1       6.770  -1.416  24.256  0.00  0.00    +0.328 C 
ATOM      2  C   UNL     1       8.190  -1.203  23.787  0.00  0.00    +0.131 A 
ATOM      3  C   UNL     1       8.529  -2.184  22.877  0.00  0.00    +0.153 A 
ATOM      4  N   UNL     1       9.720  -2.271  22.256  0.00  0.00    -0.247 NA
ATOM      5  C   UNL     1      10.571  -1.272  22.602  0.00  0.00    +0.131 A 
ATOM      6  C   UNL     1      10.235  -0.265  23.512  0.00  0.00    +0.131 A 
ATOM      7  C   UNL     1       7.389  -3.099  22.714  0.00  0.00    +0.275 C 
ATOM      8  O   UNL     1       7.405  -4.108  22.031  0.00  0.00    -0.268 OA
ATOM      9  N   UNL     1       9.031  -0.201  24.136  0.00  0.00    -0.251 NA
ATOM     10  N   UNL     1       6.382  -2.618  23.539  0.00  0.00    -0.208 N 
ATOM     11  C   UNL     1       5.221  -3.318  23.887  0.00  0.00    +0.131 A 
ATOM     12  C   UNL     1       4.592  -4.175  22.986  0.00  0.00    +0.045 A 
ATOM     13  C   UNL     1       3.466  -4.892  23.399  0.00  0.00    +0.025 A 
ATOM     14  C   UNL     1       3.024  -4.763  24.706  0.00  0.00    +0.059 A 
ATOM     15 CL   UNL     1       1.689  -5.674  25.279  0.00  0.00    -0.082 Cl
ATOM     16  C   UNL     1       3.697  -3.883  25.536  0.00  0.00    +0.132 A 
ATOM     17  N   UNL     1       4.759  -3.140  25.142  0.00  0.00    -0.238 NA
ENDROOT
BRANCH   1  18
ATOM     18  O   UNL     1       6.008  -0.320  23.749  0.00  0.00    -0.422 OA
BRANCH  18  24
ATOM     19  C   UNL     1       7.193   5.093  22.236  0.00  0.00    +0.105 C 
ATOM     20  N   UNL     1       7.918   4.110  23.038  0.00  0.00    -0.302 NA
ATOM     21  C   UNL     1       7.945   2.781  22.384  0.00  0.00    +0.103 C 
ATOM     22  C   UNL     1       6.606   2.007  22.425  0.00  0.00    +0.126 C 
ATOM     23  N   UNL     1       6.087   1.951  23.793  0.00  0.00    -0.265 N 
ATOM     24  C   UNL     1       5.986   0.787  24.529  0.00  0.00    +0.405 C 
ATOM     25  O   UNL     1       5.866   0.765  25.747  0.00  0.00    -0.226 OA
ATOM     26  C   UNL     1       6.003   3.245  24.465  0.00  0.00    +0.126 C 
ATOM     27  C   UNL     1       7.350   3.988  24.400  0.00  0.00    +0.103 C 
ENDBRANCH  18  24
ENDBRANCH   1  18
TORSDOF 2
ENDMDL
MODEL 9
REMARK VINA RESULT:      -6.0      2.636      6.349
REMARK  Name = 
REMARK  3 active torsions:
REMARK  status: ('A' for Active; 'I' for Inactive)
REMARK    1  A    between atoms: C_1  and  N_2
REMARK    2  A    between atoms: C_8  and  O_10
REMARK    3  A    between atoms: O_10  and  C_11
REMARK                            x       y       z     vdW  Elec       q    Type
REMARK                         _______ _______ _______ _____ _____    ______ ____
ROOT
ATOM      1  C   UNL     1       4.949  -2.900  26.436  0.00  0.00    +0.328 C 
ATOM      2  C   UNL     1       4.591  -3.132  27.885  0.00  0.00    +0.131 A 
ATOM      3  C   UNL     1       5.003  -4.393  28.267  0.00  0.00    +0.153 A 
ATOM      4  N   UNL     1       4.848  -4.905  29.503  0.00  0.00    -0.247 NA
ATOM      5  C   UNL     1       4.252  -4.040  30.362  0.00  0.00    +0.131 A 
ATOM      6  C   UNL     1       3.843  -2.756  29.991  0.00  0.00    +0.131 A 
ATOM      7  C   UNL     1       5.620  -5.065  27.113  0.00  0.00    +0.275 C 
ATOM      8  O   UNL     1       6.018  -6.216  27.115  0.00  0.00    -0.268 OA
ATOM      9  N   UNL     1       3.997  -2.262  28.736  0.00  0.00    -0.251 NA
ATOM     10  N   UNL     1       5.567  -4.160  26.062  0.00  0.00    -0.208 N 
ATOM     11  C   UNL     1       5.807  -4.470  24.719  0.00  0.00    +0.131 A 
ATOM     12  C   UNL     1       6.761  -5.418  24.351  0.00  0.00    +0.045 A 
ATOM     13  C   UNL     1       6.928  -5.731  23.000  0.00  0.00    +0.025 A 
ATOM     14  C   UNL     1       6.113  -5.119  22.059  0.00  0.00    +0.059 A 
ATOM     15 CL   UNL     1       6.232  -5.521  20.396  0.00  0.00    -0.082 Cl
ATOM     16  C   UNL     1       5.198  -4.181  22.503  0.00  0.00    +0.132 A 
ATOM     17  N   UNL     1       5.055  -3.825  23.803  0.00  0.00    -0.238 NA
ENDROOT
BRANCH   1  18
ATOM     18  O   UNL     1       5.952  -1.883  26.425  0.00  0.00    -0.422 OA
BRANCH  18  24
ATOM     19  C   UNL     1       9.831  -0.049  22.606  0.00  0.00    +0.105 C 
ATOM     20  N   UNL     1       9.272   0.555  23.814  0.00  0.00    -0.302 NA
ATOM     21  C   UNL     1       9.246  -0.403  24.944  0.00  0.00    +0.103 C 
ATOM     22  C   UNL     1       8.161  -1.502  24.843  0.00  0.00    +0.126 C 
ATOM     23  N   UNL     1       6.850  -0.905  24.581  0.00  0.00    -0.265 N 
ATOM     24  C   UNL     1       5.803  -0.925  25.480  0.00  0.00    +0.405 C 
ATOM     25  O   UNL     1       4.839  -0.174  25.414  0.00  0.00    -0.226 OA
ATOM     26  C   UNL     1       6.816   0.016  23.448  0.00  0.00    +0.126 C 
ATOM     27  C   UNL     1       7.912   1.091  23.579  0.00  0.00    +0.103 C 
ENDBRANCH  18  24
ENDBRANCH   1  18
TORSDOF 2
ENDMDL
