MODEL 1
REMARK VINA RESULT:      -6.2      0.000      0.000
REMARK  Name = 
REMARK  8 active torsions:
REMARK  status: ('A' for Active; 'I' for Inactive)
REMARK    1  A    between atoms: C_2  and  C_3
REMARK    2  A    between atoms: C_9  and  C_10
REMARK    3  A    between atoms: N_12  and  C_13
REMARK    4  A    between atoms: N_12  and  C_15
REMARK    5  A    between atoms: C_13  and  C_14
REMARK    6  A    between atoms: C_15  and  C_16
REMARK    7  A    between atoms: C_17  and  N_18
REMARK    8  A    between atoms: C_19  and  C_21
REMARK                            x       y       z     vdW  Elec       q    Type
REMARK                         _______ _______ _______ _____ _____    ______ ____
ROOT
ATOM      1  C   UNL     1       8.833   1.354  21.652  0.00  0.00    -0.009 C 
ATOM      2  C   UNL     1      10.206   1.804  22.168  0.00  0.00    +0.008 C 
ATOM      3  C   UNL     1       8.542  -0.141  21.966  0.00  0.00    +0.040 C 
ATOM      4  C   UNL     1       7.971  -0.368  23.354  0.00  0.00    -0.023 A 
ATOM      5  C   UNL     1       7.673  -1.670  23.989  0.00  0.00    +0.069 A 
ATOM      6  C   UNL     1       7.010  -1.407  25.177  0.00  0.00    +0.085 A 
ATOM      7  S   UNL     1       7.050   0.220  25.667  0.00  0.00    -0.077 S 
ATOM      8  C   UNL     1       7.568   0.704  24.132  0.00  0.00    -0.004 A 
ATOM      9  C   UNL     1       7.579   2.146  23.727  0.00  0.00    +0.043 C 
ATOM     10  C   UNL     1       7.717   2.263  22.203  0.00  0.00    +0.009 C 
ENDROOT
BRANCH   6  11
ATOM     11  N   UNL     1       6.364  -2.224  26.089  0.00  0.00    -0.275 N 
ATOM     12  H   UNL     1       5.516  -2.642  25.719  0.00  0.00    +0.156 HD
ATOM     13  C   UNL     1       7.109  -3.227  26.712  0.00  0.00    +0.255 C 
ATOM     14  O   UNL     1       8.338  -3.258  26.728  0.00  0.00    -0.269 OA
BRANCH  13  15
ATOM     15  C   UNL     1       6.301  -4.279  27.334  0.00  0.00    +0.074 A 
ATOM     16  S   UNL     1       4.631  -4.062  27.674  0.00  0.00    -0.092 S 
ATOM     17  C   UNL     1       4.510  -5.583  28.442  0.00  0.00    +0.046 A 
ATOM     18  C   UNL     1       5.701  -6.271  28.409  0.00  0.00    +0.008 A 
ATOM     19  C   UNL     1       6.730  -5.525  27.756  0.00  0.00    +0.021 A 
ENDBRANCH  13  15
ENDBRANCH   6  11
BRANCH   5  20
ATOM     20  C   UNL     1       7.926  -2.972  23.317  0.00  0.00    +0.249 C 
ATOM     21  N   UNL     1       6.930  -3.719  22.638  0.00  0.00    -0.298 N 
ATOM     22  O   UNL     1       9.050  -3.470  23.442  0.00  0.00    -0.270 OA
BRANCH  21  23
ATOM     23  C   UNL     1       7.279  -5.109  22.295  0.00  0.00    +0.104 C 
ATOM     24  C   UNL     1       6.532  -5.670  21.093  0.00  0.00    +0.024 C 
ENDBRANCH  21  23
BRANCH  21  25
ATOM     25  C   UNL     1       5.530  -3.359  22.410  0.00  0.00    +0.104 C 
ATOM     26  C   UNL     1       4.603  -3.864  23.514  0.00  0.00    +0.024 C 
ENDBRANCH  21  25
ENDBRANCH   5  20
TORSDOF 5
ENDMDL
MODEL 2
REMARK VINA RESULT:      -6.0      1.586      6.362
REMARK  Name = 
REMARK  8 active torsions:
REMARK  status: ('A' for Active; 'I' for Inactive)
REMARK    1  A    between atoms: C_2  and  C_3
REMARK    2  A    between atoms: C_9  and  C_10
REMARK    3  A    between atoms: N_12  and  C_13
REMARK    4  A    between atoms: N_12  and  C_15
REMARK    5  A    between atoms: C_13  and  C_14
REMARK    6  A    between atoms: C_15  and  C_16
REMARK    7  A    between atoms: C_17  and  N_18
REMARK    8  A    between atoms: C_19  and  C_21
REMARK                            x       y       z     vdW  Elec       q    Type
REMARK                         _______ _______ _______ _____ _____    ______ ____
ROOT
ATOM      1  C   UNL     1       4.893  -6.576  27.346  0.00  0.00    -0.009 C 
ATOM      2  C   UNL     1       3.403  -6.336  27.074  0.00  0.00    +0.008 C 
ATOM      3  C   UNL     1       5.793  -6.127  26.159  0.00  0.00    +0.040 C 
ATOM      4  C   UNL     1       6.141  -4.651  26.188  0.00  0.00    -0.023 A 
ATOM      5  C   UNL     1       6.897  -3.897  25.165  0.00  0.00    +0.069 A 
ATOM      6  C   UNL     1       7.130  -2.629  25.674  0.00  0.00    +0.085 A 
ATOM      7  S   UNL     1       6.238  -2.252  27.071  0.00  0.00    -0.077 S 
ATOM      8  C   UNL     1       5.841  -3.879  27.298  0.00  0.00    -0.004 A 
ATOM      9  C   UNL     1       5.225  -4.366  28.574  0.00  0.00    +0.043 C 
ATOM     10  C   UNL     1       5.327  -5.895  28.658  0.00  0.00    +0.009 C 
ENDROOT
BRANCH   6  11
ATOM     11  N   UNL     1       7.907  -1.572  25.234  0.00  0.00    -0.275 N 
ATOM     12  H   UNL     1       8.864  -1.840  25.028  0.00  0.00    +0.156 HD
ATOM     13  C   UNL     1       7.428  -0.806  24.169  0.00  0.00    +0.255 C 
ATOM     14  O   UNL     1       6.260  -0.821  23.785  0.00  0.00    -0.269 OA
BRANCH  13  15
ATOM     15  C   UNL     1       8.449   0.011  23.509  0.00  0.00    +0.074 A 
ATOM     16  S   UNL     1       9.452   1.097  24.385  0.00  0.00    -0.092 S 
ATOM     17  C   UNL     1      10.192   1.683  22.962  0.00  0.00    +0.046 A 
ATOM     18  C   UNL     1       9.725   1.042  21.838  0.00  0.00    +0.008 A 
ATOM     19  C   UNL     1       8.731   0.067  22.155  0.00  0.00    +0.021 A 
ENDBRANCH  13  15
ENDBRANCH   6  11
BRANCH   5  20
ATOM     20  C   UNL     1       7.415  -4.524  23.920  0.00  0.00    +0.249 C 
ATOM     21  N   UNL     1       6.703  -4.555  22.694  0.00  0.00    -0.298 N 
ATOM     22  O   UNL     1       8.488  -5.132  23.990  0.00  0.00    -0.270 OA
BRANCH  21  23
ATOM     23  C   UNL     1       7.225  -5.465  21.660  0.00  0.00    +0.104 C 
ATOM     24  C   UNL     1       6.184  -5.950  20.661  0.00  0.00    +0.024 C 
ENDBRANCH  21  23
BRANCH  21  25
ATOM     25  C   UNL     1       5.403  -3.954  22.390  0.00  0.00    +0.104 C 
ATOM     26  C   UNL     1       4.255  -4.611  23.152  0.00  0.00    +0.024 C 
ENDBRANCH  21  25
ENDBRANCH   5  20
TORSDOF 5
ENDMDL
MODEL 3
REMARK VINA RESULT:      -5.9      2.663      4.756
REMARK  Name = 
REMARK  8 active torsions:
REMARK  status: ('A' for Active; 'I' for Inactive)
REMARK    1  A    between atoms: C_2  and  C_3
REMARK    2  A    between atoms: C_9  and  C_10
REMARK    3  A    between atoms: N_12  and  C_13
REMARK    4  A    between atoms: N_12  and  C_15
REMARK    5  A    between atoms: C_13  and  C_14
REMARK    6  A    between atoms: C_15  and  C_16
REMARK    7  A    between atoms: C_17  and  N_18
REMARK    8  A    between atoms: C_19  and  C_21
REMARK                            x       y       z     vdW  Elec       q    Type
REMARK                         _______ _______ _______ _____ _____    ______ ____
ROOT
ATOM      1  C   UNL     1       9.271   3.723  24.359  0.00  0.00    -0.009 C 
ATOM      2  C   UNL     1       8.716   4.745  23.358  0.00  0.00    +0.008 C 
ATOM      3  C   UNL     1       8.187   2.721  24.848  0.00  0.00    +0.040 C 
ATOM      4  C   UNL     1       7.991   1.538  23.918  0.00  0.00    -0.023 A 
ATOM      5  C   UNL     1       6.984   0.464  24.048  0.00  0.00    +0.069 A 
ATOM      6  C   UNL     1       7.274  -0.493  23.088  0.00  0.00    +0.085 A 
ATOM      7  S   UNL     1       8.407  -0.004  21.919  0.00  0.00    -0.077 S 
ATOM      8  C   UNL     1       8.870   1.314  22.872  0.00  0.00    -0.004 A 
ATOM      9  C   UNL     1      10.095   2.117  22.557  0.00  0.00    +0.043 C 
ATOM     10  C   UNL     1      10.484   2.980  23.765  0.00  0.00    +0.009 C 
ENDROOT
BRANCH   6  11
ATOM     11  N   UNL     1       6.776  -1.763  22.852  0.00  0.00    -0.275 N 
ATOM     12  H   UNL     1       6.424  -1.882  21.907  0.00  0.00    +0.156 HD
ATOM     13  C   UNL     1       7.596  -2.853  23.153  0.00  0.00    +0.255 C 
ATOM     14  O   UNL     1       8.595  -2.782  23.868  0.00  0.00    -0.269 OA
BRANCH  13  15
ATOM     15  C   UNL     1       7.185  -4.108  22.520  0.00  0.00    +0.074 A 
ATOM     16  S   UNL     1       6.026  -4.151  21.252  0.00  0.00    -0.092 S 
ATOM     17  C   UNL     1       6.039  -5.858  21.194  0.00  0.00    +0.046 A 
ATOM     18  C   UNL     1       6.935  -6.395  22.088  0.00  0.00    +0.008 A 
ATOM     19  C   UNL     1       7.608  -5.386  22.842  0.00  0.00    +0.021 A 
ENDBRANCH  13  15
ENDBRANCH   6  11
BRANCH   5  20
ATOM     20  C   UNL     1       5.983   0.425  25.147  0.00  0.00    +0.249 C 
ATOM     21  N   UNL     1       6.088  -0.417  26.283  0.00  0.00    -0.298 N 
ATOM     22  O   UNL     1       4.958   1.101  25.010  0.00  0.00    -0.270 OA
BRANCH  21  23
ATOM     23  C   UNL     1       4.877  -0.545  27.114  0.00  0.00    +0.104 C 
ATOM     24  C   UNL     1       4.003  -1.744  26.775  0.00  0.00    +0.024 C 
ENDBRANCH  21  23
BRANCH  21  25
ATOM     25  C   UNL     1       7.176  -1.333  26.631  0.00  0.00    +0.104 C 
ATOM     26  C   UNL     1       8.433  -0.606  27.100  0.00  0.00    +0.024 C 
ENDBRANCH  21  25
ENDBRANCH   5  20
TORSDOF 5
ENDMDL
MODEL 4
REMARK VINA RESULT:      -5.8      2.227      6.249
REMARK  Name = 
REMARK  8 active torsions:
REMARK  status: ('A' for Active; 'I' for Inactive)
REMARK    1  A    between atoms: C_2  and  C_3
REMARK    2  A    between atoms: C_9  and  C_10
REMARK    3  A    between atoms: N_12  and  C_13
REMARK    4  A    between atoms: N_12  and  C_15
REMARK    5  A    between atoms: C_13  and  C_14
REMARK    6  A    between atoms: C_15  and  C_16
REMARK    7  A    between atoms: C_17  and  N_18
REMARK    8  A    between atoms: C_19  and  C_21
REMARK                            x       y       z     vdW  Elec       q    Type
REMARK                         _______ _______ _______ _____ _____    ______ ____
ROOT
ATOM      1  C   UNL     1       3.272  -4.142  27.248  0.00  0.00    -0.009 C 
ATOM      2  C   UNL     1       1.827  -3.680  27.019  0.00  0.00    +0.008 C 
ATOM      3  C   UNL     1       4.104  -4.164  25.934  0.00  0.00    +0.040 C 
ATOM      4  C   UNL     1       4.709  -2.819  25.578  0.00  0.00    -0.023 A 
ATOM      5  C   UNL     1       5.472  -2.484  24.357  0.00  0.00    +0.069 A 
ATOM      6  C   UNL     1       5.979  -1.205  24.524  0.00  0.00    +0.085 A 
ATOM      7  S   UNL     1       5.324  -0.349  25.839  0.00  0.00    -0.077 S 
ATOM      8  C   UNL     1       4.673  -1.770  26.482  0.00  0.00    -0.004 A 
ATOM      9  C   UNL     1       4.121  -1.820  27.874  0.00  0.00    +0.043 C 
ATOM     10  C   UNL     1       3.959  -3.279  28.324  0.00  0.00    +0.009 C 
ENDROOT
BRANCH   6  11
ATOM     11  N   UNL     1       6.879  -0.451  23.791  0.00  0.00    -0.275 N 
ATOM     12  H   UNL     1       6.572   0.505  23.645  0.00  0.00    +0.156 HD
ATOM     13  C   UNL     1       8.209  -0.423  24.219  0.00  0.00    +0.255 C 
ATOM     14  O   UNL     1       8.691  -1.229  25.013  0.00  0.00    -0.269 OA
BRANCH  13  15
ATOM     15  C   UNL     1       8.996   0.680  23.662  0.00  0.00    +0.074 A 
ATOM     16  S   UNL     1       9.173   2.178  24.483  0.00  0.00    -0.092 S 
ATOM     17  C   UNL     1      10.051   2.871  23.192  0.00  0.00    +0.046 A 
ATOM     18  C   UNL     1      10.250   1.975  22.168  0.00  0.00    +0.008 A 
ATOM     19  C   UNL     1       9.655   0.706  22.445  0.00  0.00    +0.021 A 
ENDBRANCH  13  15
ENDBRANCH   6  11
BRANCH   5  20
ATOM     20  C   UNL     1       5.733  -3.468  23.274  0.00  0.00    +0.249 C 
ATOM     21  N   UNL     1       6.882  -4.299  23.219  0.00  0.00    -0.298 N 
ATOM     22  O   UNL     1       4.946  -3.493  22.322  0.00  0.00    -0.270 OA
BRANCH  21  23
ATOM     23  C   UNL     1       7.126  -4.990  21.941  0.00  0.00    +0.104 C 
ATOM     24  C   UNL     1       6.681  -6.445  21.913  0.00  0.00    +0.024 C 
ENDBRANCH  21  23
BRANCH  21  25
ATOM     25  C   UNL     1       7.967  -4.405  24.196  0.00  0.00    +0.104 C 
ATOM     26  C   UNL     1       7.585  -5.242  25.415  0.00  0.00    +0.024 C 
ENDBRANCH  21  25
ENDBRANCH   5  20
TORSDOF 5
ENDMDL
MODEL 5
REMARK VINA RESULT:      -5.8      2.809      4.936
REMARK  Name = 
REMARK  8 active torsions:
REMARK  status: ('A' for Active; 'I' for Inactive)
REMARK    1  A    between atoms: C_2  and  C_3
REMARK    2  A    between atoms: C_9  and  C_10
REMARK    3  A    between atoms: N_12  and  C_13
REMARK    4  A    between atoms: N_12  and  C_15
REMARK    5  A    between atoms: C_13  and  C_14
REMARK    6  A    between atoms: C_15  and  C_16
REMARK    7  A    between atoms: C_17  and  N_18
REMARK    8  A    between atoms: C_19  and  C_21
REMARK                            x       y       z     vdW  Elec       q    Type
REMARK                         _______ _______ _______ _____ _____    ______ ____
ROOT
ATOM      1  C   UNL     1      10.318   2.074  24.199  0.00  0.00    -0.009 C 
ATOM      2  C   UNL     1      10.709   2.661  22.836  0.00  0.00    +0.008 C 
ATOM      3  C   UNL     1       8.778   1.932  24.364  0.00  0.00    +0.040 C 
ATOM      4  C   UNL     1       8.221   0.648  23.777  0.00  0.00    -0.023 A 
ATOM      5  C   UNL     1       6.799   0.255  23.690  0.00  0.00    +0.069 A 
ATOM      6  C   UNL     1       6.759  -1.056  23.245  0.00  0.00    +0.085 A 
ATOM      7  S   UNL     1       8.237  -1.649  22.650  0.00  0.00    -0.077 S 
ATOM      8  C   UNL     1       9.074  -0.355  23.347  0.00  0.00    -0.004 A 
ATOM      9  C   UNL     1      10.568  -0.349  23.444  0.00  0.00    +0.043 C 
ATOM     10  C   UNL     1      11.027   0.727  24.438  0.00  0.00    +0.009 C 
ENDROOT
BRANCH   6  11
ATOM     11  N   UNL     1       5.730  -1.975  23.130  0.00  0.00    -0.275 N 
ATOM     12  H   UNL     1       5.817  -2.570  22.312  0.00  0.00    +0.156 HD
ATOM     13  C   UNL     1       5.452  -2.786  24.232  0.00  0.00    +0.255 C 
ATOM     14  O   UNL     1       5.852  -2.555  25.372  0.00  0.00    -0.269 OA
BRANCH  13  15
ATOM     15  C   UNL     1       4.654  -3.974  23.919  0.00  0.00    +0.074 A 
ATOM     16  S   UNL     1       3.217  -4.359  24.778  0.00  0.00    -0.092 S 
ATOM     17  C   UNL     1       3.015  -5.830  23.935  0.00  0.00    +0.046 A 
ATOM     18  C   UNL     1       3.991  -6.016  22.985  0.00  0.00    +0.008 A 
ATOM     19  C   UNL     1       4.928  -4.939  22.964  0.00  0.00    +0.021 A 
ENDBRANCH  13  15
ENDBRANCH   6  11
BRANCH   5  20
ATOM     20  C   UNL     1       5.692   1.122  24.174  0.00  0.00    +0.249 C 
ATOM     21  N   UNL     1       5.313   2.341  23.556  0.00  0.00    -0.298 N 
ATOM     22  O   UNL     1       5.136   0.802  25.230  0.00  0.00    -0.270 OA
BRANCH  21  23
ATOM     23  C   UNL     1       4.409   3.211  24.330  0.00  0.00    +0.104 C 
ATOM     24  C   UNL     1       3.060   3.465  23.672  0.00  0.00    +0.024 C 
ENDBRANCH  21  23
BRANCH  21  25
ATOM     25  C   UNL     1       5.858   2.944  22.339  0.00  0.00    +0.104 C 
ATOM     26  C   UNL     1       6.612   4.243  22.610  0.00  0.00    +0.024 C 
ENDBRANCH  21  25
ENDBRANCH   5  20
TORSDOF 5
ENDMDL
MODEL 6
REMARK VINA RESULT:      -5.7      3.439      7.457
REMARK  Name = 
REMARK  8 active torsions:
REMARK  status: ('A' for Active; 'I' for Inactive)
REMARK    1  A    between atoms: C_2  and  C_3
REMARK    2  A    between atoms: C_9  and  C_10
REMARK    3  A    between atoms: N_12  and  C_13
REMARK    4  A    between atoms: N_12  and  C_15
REMARK    5  A    between atoms: C_13  and  C_14
REMARK    6  A    between atoms: C_15  and  C_16
REMARK    7  A    between atoms: C_17  and  N_18
REMARK    8  A    between atoms: C_19  and  C_21
REMARK                            x       y       z     vdW  Elec       q    Type
REMARK                         _______ _______ _______ _____ _____    ______ ____
ROOT
ATOM      1  C   UNL     1       6.933  -3.843  23.765  0.00  0.00    -0.009 C 
ATOM      2  C   UNL     1       7.952  -4.986  23.857  0.00  0.00    +0.008 C 
ATOM      3  C   UNL     1       7.190  -2.732  24.823  0.00  0.00    +0.040 C 
ATOM      4  C   UNL     1       8.216  -1.703  24.384  0.00  0.00    -0.023 A 
ATOM      5  C   UNL     1       8.748  -0.581  25.186  0.00  0.00    +0.069 A 
ATOM      6  C   UNL     1       9.523   0.199  24.343  0.00  0.00    +0.085 A 
ATOM      7  S   UNL     1       9.877  -0.516  22.842  0.00  0.00    -0.077 S 
ATOM      8  C   UNL     1       8.679  -1.685  23.078  0.00  0.00    -0.004 A 
ATOM      9  C   UNL     1       8.224  -2.578  21.965  0.00  0.00    +0.043 C 
ATOM     10  C   UNL     1       6.898  -3.254  22.341  0.00  0.00    +0.009 C 
ENDROOT
BRANCH   6  11
ATOM     11  N   UNL     1      10.126   1.435  24.501  0.00  0.00    -0.275 N 
ATOM     12  H   UNL     1      11.103   1.439  24.227  0.00  0.00    +0.156 HD
ATOM     13  C   UNL     1       9.505   2.544  23.923  0.00  0.00    +0.255 C 
ATOM     14  O   UNL     1       8.337   2.551  23.536  0.00  0.00    -0.269 OA
BRANCH  13  15
ATOM     15  C   UNL     1      10.374   3.714  23.781  0.00  0.00    +0.074 A 
ATOM     16  S   UNL     1       9.816   5.307  24.101  0.00  0.00    -0.092 S 
ATOM     17  C   UNL     1      11.293   6.007  23.607  0.00  0.00    +0.046 A 
ATOM     18  C   UNL     1      12.217   5.055  23.245  0.00  0.00    +0.008 A 
ATOM     19  C   UNL     1      11.693   3.732  23.360  0.00  0.00    +0.021 A 
ENDBRANCH  13  15
ENDBRANCH   6  11
BRANCH   5  20
ATOM     20  C   UNL     1       8.333  -0.327  26.591  0.00  0.00    +0.249 C 
ATOM     21  N   UNL     1       7.273   0.540  26.959  0.00  0.00    -0.298 N 
ATOM     22  O   UNL     1       9.016  -0.832  27.489  0.00  0.00    -0.270 OA
BRANCH  21  23
ATOM     23  C   UNL     1       7.193   0.904  28.385  0.00  0.00    +0.104 C 
ATOM     24  C   UNL     1       5.791   0.851  28.973  0.00  0.00    +0.024 C 
ENDBRANCH  21  23
BRANCH  21  25
ATOM     25  C   UNL     1       6.368   1.283  26.080  0.00  0.00    +0.104 C 
ATOM     26  C   UNL     1       5.316   0.390  25.425  0.00  0.00    +0.024 C 
ENDBRANCH  21  25
ENDBRANCH   5  20
TORSDOF 5
ENDMDL
MODEL 7
REMARK VINA RESULT:      -5.7      3.429      5.570
REMARK  Name = 
REMARK  8 active torsions:
REMARK  status: ('A' for Active; 'I' for Inactive)
REMARK    1  A    between atoms: C_2  and  C_3
REMARK    2  A    between atoms: C_9  and  C_10
REMARK    3  A    between atoms: N_12  and  C_13
REMARK    4  A    between atoms: N_12  and  C_15
REMARK    5  A    between atoms: C_13  and  C_14
REMARK    6  A    between atoms: C_15  and  C_16
REMARK    7  A    between atoms: C_17  and  N_18
REMARK    8  A    between atoms: C_19  and  C_21
REMARK                            x       y       z     vdW  Elec       q    Type
REMARK                         _______ _______ _______ _____ _____    ______ ____
ROOT
ATOM      1  C   UNL     1       8.638   6.447  24.380  0.00  0.00    -0.009 C 
ATOM      2  C   UNL     1       8.084   6.688  22.970  0.00  0.00    +0.008 C 
ATOM      3  C   UNL     1       8.024   5.185  25.052  0.00  0.00    +0.040 C 
ATOM      4  C   UNL     1       8.729   3.895  24.676  0.00  0.00    -0.023 A 
ATOM      5  C   UNL     1       8.339   2.524  25.067  0.00  0.00    +0.069 A 
ATOM      6  C   UNL     1       9.351   1.672  24.652  0.00  0.00    +0.085 A 
ATOM      7  S   UNL     1      10.479   2.375  23.593  0.00  0.00    -0.077 S 
ATOM      8  C   UNL     1       9.925   3.926  23.978  0.00  0.00    -0.004 A 
ATOM      9  C   UNL     1      10.680   5.152  23.568  0.00  0.00    +0.043 C 
ATOM     10  C   UNL     1      10.177   6.368  24.358  0.00  0.00    +0.009 C 
ENDROOT
BRANCH   6  11
ATOM     11  N   UNL     1       9.598   0.330  24.883  0.00  0.00    -0.275 N 
ATOM     12  H   UNL     1       9.555   0.080  25.866  0.00  0.00    +0.156 HD
ATOM     13  C   UNL     1       8.854  -0.605  24.161  0.00  0.00    +0.255 C 
ATOM     14  O   UNL     1       8.210  -0.335  23.148  0.00  0.00    -0.269 OA
BRANCH  13  15
ATOM     15  C   UNL     1       8.873  -1.956  24.727  0.00  0.00    +0.074 A 
ATOM     16  S   UNL     1       8.155  -2.317  26.245  0.00  0.00    -0.092 S 
ATOM     17  C   UNL     1       8.700  -3.935  26.206  0.00  0.00    +0.046 A 
ATOM     18  C   UNL     1       9.380  -4.220  25.044  0.00  0.00    +0.008 A 
ATOM     19  C   UNL     1       9.467  -3.083  24.184  0.00  0.00    +0.021 A 
ENDBRANCH  13  15
ENDBRANCH   6  11
BRANCH   5  20
ATOM     20  C   UNL     1       7.143   2.233  25.901  0.00  0.00    +0.249 C 
ATOM     21  N   UNL     1       5.836   2.063  25.377  0.00  0.00    -0.298 N 
ATOM     22  O   UNL     1       7.288   2.232  27.128  0.00  0.00    -0.270 OA
BRANCH  21  23
ATOM     23  C   UNL     1       4.734   2.079  26.356  0.00  0.00    +0.104 C 
ATOM     24  C   UNL     1       4.198   0.704  26.728  0.00  0.00    +0.024 C 
ENDBRANCH  21  23
BRANCH  21  25
ATOM     25  C   UNL     1       5.416   2.075  23.975  0.00  0.00    +0.104 C 
ATOM     26  C   UNL     1       5.004   3.463  23.493  0.00  0.00    +0.024 C 
ENDBRANCH  21  25
ENDBRANCH   5  20
TORSDOF 5
ENDMDL
MODEL 8
REMARK VINA RESULT:      -5.7      2.390      6.996
REMARK  Name = 
REMARK  8 active torsions:
REMARK  status: ('A' for Active; 'I' for Inactive)
REMARK    1  A    between atoms: C_2  and  C_3
REMARK    2  A    between atoms: C_9  and  C_10
REMARK    3  A    between atoms: N_12  and  C_13
REMARK    4  A    between atoms: N_12  and  C_15
REMARK    5  A    between atoms: C_13  and  C_14
REMARK    6  A    between atoms: C_15  and  C_16
REMARK    7  A    between atoms: C_17  and  N_18
REMARK    8  A    between atoms: C_19  and  C_21
REMARK                            x       y       z     vdW  Elec       q    Type
REMARK                         _______ _______ _______ _____ _____    ______ ____
ROOT
ATOM      1  C   UNL     1       3.495  -5.750  24.485  0.00  0.00    -0.009 C 
ATOM      2  C   UNL     1       4.268  -6.835  25.247  0.00  0.00    +0.008 C 
ATOM      3  C   UNL     1       3.973  -4.315  24.848  0.00  0.00    +0.040 C 
ATOM      4  C   UNL     1       5.180  -3.859  24.049  0.00  0.00    -0.023 A 
ATOM      5  C   UNL     1       5.928  -2.594  24.215  0.00  0.00    +0.069 A 
ATOM      6  C   UNL     1       6.838  -2.513  23.173  0.00  0.00    +0.085 A 
ATOM      7  S   UNL     1       7.035  -3.952  22.289  0.00  0.00    -0.077 S 
ATOM      8  C   UNL     1       5.630  -4.601  22.970  0.00  0.00    -0.004 A 
ATOM      9  C   UNL     1       5.001  -5.848  22.429  0.00  0.00    +0.043 C 
ATOM     10  C   UNL     1       3.570  -5.991  22.965  0.00  0.00    +0.009 C 
ENDROOT
BRANCH   6  11
ATOM     11  N   UNL     1       7.674  -1.499  22.737  0.00  0.00    -0.275 N 
ATOM     12  H   UNL     1       7.200  -0.607  22.640  0.00  0.00    +0.156 HD
ATOM     13  C   UNL     1       8.865  -1.288  23.435  0.00  0.00    +0.255 C 
ATOM     14  O   UNL     1       9.355  -2.103  24.216  0.00  0.00    -0.269 OA
BRANCH  13  15
ATOM     15  C   UNL     1       9.485   0.015  23.186  0.00  0.00    +0.074 A 
ATOM     16  S   UNL     1      10.076   1.001  24.462  0.00  0.00    -0.092 S 
ATOM     17  C   UNL     1      10.478   2.274  23.397  0.00  0.00    +0.046 A 
ATOM     18  C   UNL     1      10.213   1.950  22.086  0.00  0.00    +0.008 A 
ATOM     19  C   UNL     1       9.655   0.641  21.963  0.00  0.00    +0.021 A 
ENDBRANCH  13  15
ENDBRANCH   6  11
BRANCH   5  20
ATOM     20  C   UNL     1       5.579  -1.581  25.245  0.00  0.00    +0.249 C 
ATOM     21  N   UNL     1       5.674  -1.807  26.642  0.00  0.00    -0.298 N 
ATOM     22  O   UNL     1       5.091  -0.515  24.856  0.00  0.00    -0.270 OA
BRANCH  21  23
ATOM     23  C   UNL     1       5.012  -0.816  27.509  0.00  0.00    +0.104 C 
ATOM     24  C   UNL     1       5.934   0.270  28.045  0.00  0.00    +0.024 C 
ENDBRANCH  21  23
BRANCH  21  25
ATOM     25  C   UNL     1       6.168  -3.000  27.332  0.00  0.00    +0.104 C 
ATOM     26  C   UNL     1       5.057  -3.782  28.028  0.00  0.00    +0.024 C 
ENDBRANCH  21  25
ENDBRANCH   5  20
TORSDOF 5
ENDMDL
MODEL 9
REMARK VINA RESULT:      -5.6      2.699      6.785
REMARK  Name = 
REMARK  8 active torsions:
REMARK  status: ('A' for Active; 'I' for Inactive)
REMARK    1  A    between atoms: C_2  and  C_3
REMARK    2  A    between atoms: C_9  and  C_10
REMARK    3  A    between atoms: N_12  and  C_13
REMARK    4  A    between atoms: N_12  and  C_15
REMARK    5  A    between atoms: C_13  and  C_14
REMARK    6  A    between atoms: C_15  and  C_16
REMARK    7  A    between atoms: C_17  and  N_18
REMARK    8  A    between atoms: C_19  and  C_21
REMARK                            x       y       z     vdW  Elec       q    Type
REMARK                         _______ _______ _______ _____ _____    ______ ____
ROOT
ATOM      1  C   UNL     1       6.969  -5.035  24.780  0.00  0.00    -0.009 C 
ATOM      2  C   UNL     1       5.457  -5.238  24.613  0.00  0.00    +0.008 C 
ATOM      3  C   UNL     1       7.464  -3.708  24.135  0.00  0.00    +0.040 C 
ATOM      4  C   UNL     1       7.314  -2.501  25.043  0.00  0.00    -0.023 A 
ATOM      5  C   UNL     1       7.603  -1.092  24.701  0.00  0.00    +0.069 A 
ATOM      6  C   UNL     1       7.493  -0.353  25.868  0.00  0.00    +0.085 A 
ATOM      7  S   UNL     1       6.774  -1.181  27.167  0.00  0.00    -0.077 S 
ATOM      8  C   UNL     1       6.970  -2.662  26.375  0.00  0.00    -0.004 A 
ATOM      9  C   UNL     1       6.766  -3.965  27.086  0.00  0.00    +0.043 C 
ATOM     10  C   UNL     1       7.371  -5.112  26.265  0.00  0.00    +0.009 C 
ENDROOT
BRANCH   6  11
ATOM     11  N   UNL     1       7.801   0.960  26.177  0.00  0.00    -0.275 N 
ATOM     12  H   UNL     1       8.781   1.184  26.033  0.00  0.00    +0.156 HD
ATOM     13  C   UNL     1       7.033   1.968  25.590  0.00  0.00    +0.255 C 
ATOM     14  O   UNL     1       5.942   1.774  25.056  0.00  0.00    -0.269 OA
BRANCH  13  15
ATOM     15  C   UNL     1       7.648   3.296  25.634  0.00  0.00    +0.074 A 
ATOM     16  S   UNL     1       7.203   4.468  26.809  0.00  0.00    -0.092 S 
ATOM     17  C   UNL     1       8.215   5.658  26.119  0.00  0.00    +0.046 A 
ATOM     18  C   UNL     1       8.916   5.173  25.040  0.00  0.00    +0.008 A 
ATOM     19  C   UNL     1       8.601   3.806  24.769  0.00  0.00    +0.021 A 
ENDBRANCH  13  15
ENDBRANCH   6  11
BRANCH   5  20
ATOM     20  C   UNL     1       8.081  -0.670  23.358  0.00  0.00    +0.249 C 
ATOM     21  N   UNL     1       9.444  -0.446  23.037  0.00  0.00    -0.298 N 
ATOM     22  O   UNL     1       7.227  -0.412  22.503  0.00  0.00    -0.270 OA
BRANCH  21  23
ATOM     23  C   UNL     1       9.708   0.249  21.764  0.00  0.00    +0.104 C 
ATOM     24  C   UNL     1       9.738   1.767  21.868  0.00  0.00    +0.024 C 
ENDBRANCH  21  23
BRANCH  21  25
ATOM     25  C   UNL     1      10.616  -0.632  23.895  0.00  0.00    +0.104 C 
ATOM     26  C   UNL     1      10.931   0.600  24.740  0.00  0.00    +0.024 C 
ENDBRANCH  21  25
ENDBRANCH   5  20
TORSDOF 5
ENDMDL
