MODEL 1
REMARK VINA RESULT:      -7.4      0.000      0.000
REMARK  Name = 
REMARK  4 active torsions:
REMARK  status: ('A' for Active; 'I' for Inactive)
REMARK    1  A    between atoms: N_1  and  C_2
REMARK    2  A    between atoms: C_3  and  C_16
REMARK    3  A    between atoms: N_6  and  C_7
REMARK    4  A    between atoms: C_16  and  C_18
REMARK                            x       y       z     vdW  Elec       q    Type
REMARK                         _______ _______ _______ _____ _____    ______ ____
ROOT
ATOM      1  C   UNL     1       9.687   0.196  24.921  0.00  0.00    +0.287 A 
ATOM      2  N   UNL     1       9.900   1.514  24.629  0.00  0.00    -0.172 N 
ATOM      3  H   UNL     1       9.862   2.266  25.308  0.00  0.00    +0.457 HD
ATOM      4  C   UNL     1      10.087   1.742  23.330  0.00  0.00    +0.317 A 
ATOM      5  N   UNL     1      10.258   2.927  22.757  0.00  0.00    -0.256 N 
ATOM      6  H   UNL     1      10.045   2.912  21.765  0.00  0.00    +0.158 HD
ATOM      7  S   UNL     1      10.000   0.302  22.391  0.00  0.00    +0.009 S 
ATOM      8  C   UNL     1       9.600  -0.606  23.804  0.00  0.00    +0.154 A 
ENDROOT
BRANCH   5   9
ATOM      9  C   UNL     1      10.660   4.086  23.334  0.00  0.00    +0.038 A 
ATOM     10  C   UNL     1      12.016   4.425  23.295  0.00  0.00    +0.023 A 
ATOM     11  C   UNL     1      12.471   5.609  23.881  0.00  0.00    +0.003 A 
ATOM     12  C   UNL     1      11.573   6.448  24.539  0.00  0.00    +0.020 A 
ATOM     13  C   UNL     1      10.229   6.101  24.610  0.00  0.00    +0.043 A 
ATOM     14 CL   UNL     1       9.114   7.108  25.440  0.00  0.00    -0.083 Cl
ATOM     15  C   UNL     1       9.769   4.927  24.012  0.00  0.00    +0.043 A 
ENDBRANCH   5   9
BRANCH   1  16
ATOM     16  N   UNL     1       9.517  -0.188  26.189  0.00  0.00    -0.305 N 
ATOM     17  H   UNL     1       9.458  -1.159  26.483  0.00  0.00    +0.148 HD
ATOM     18  H   UNL     1       9.014   0.426  26.839  0.00  0.00    +0.148 HD
ENDBRANCH   1  16
BRANCH   8  19
ATOM     19  C   UNL     1       9.309  -2.026  23.749  0.00  0.00    +0.208 C 
ATOM     20  O   UNL     1      10.200  -2.867  23.869  0.00  0.00    -0.286 OA
BRANCH  19  21
ATOM     21  C   UNL     1       7.902  -2.520  23.589  0.00  0.00    +0.023 A 
ATOM     22  C   UNL     1       7.400  -2.729  22.297  0.00  0.00    +0.014 A 
ATOM     23  C   UNL     1       6.106  -3.226  22.119  0.00  0.00    +0.039 A 
ATOM     24  C   UNL     1       5.316  -3.508  23.228  0.00  0.00    +0.123 A 
ATOM     25  F   UNL     1       4.082  -3.995  23.057  0.00  0.00    -0.205 F 
ATOM     26  C   UNL     1       5.798  -3.308  24.516  0.00  0.00    +0.039 A 
ATOM     27  C   UNL     1       7.098  -2.831  24.700  0.00  0.00    +0.014 A 
ENDBRANCH  19  21
ENDBRANCH   8  19
TORSDOF 4
ENDMDL
MODEL 2
REMARK VINA RESULT:      -7.3      1.880      2.269
REMARK  Name = 
REMARK  4 active torsions:
REMARK  status: ('A' for Active; 'I' for Inactive)
REMARK    1  A    between atoms: N_1  and  C_2
REMARK    2  A    between atoms: C_3  and  C_16
REMARK    3  A    between atoms: N_6  and  C_7
REMARK    4  A    between atoms: C_16  and  C_18
REMARK                            x       y       z     vdW  Elec       q    Type
REMARK                         _______ _______ _______ _____ _____    ______ ____
ROOT
ATOM      1  C   UNL     1       8.984  -0.386  25.919  0.00  0.00    +0.287 A 
ATOM      2  N   UNL     1       9.166   0.837  25.337  0.00  0.00    -0.172 N 
ATOM      3  H   UNL     1       9.283   1.704  25.848  0.00  0.00    +0.457 HD
ATOM      4  C   UNL     1       9.092   0.803  24.007  0.00  0.00    +0.317 A 
ATOM      5  N   UNL     1       9.173   1.845  23.190  0.00  0.00    -0.256 N 
ATOM      6  H   UNL     1       8.765   1.657  22.281  0.00  0.00    +0.158 HD
ATOM      7  S   UNL     1       8.783  -0.780  23.406  0.00  0.00    +0.009 S 
ATOM      8  C   UNL     1       8.654  -1.378  25.021  0.00  0.00    +0.154 A 
ENDROOT
BRANCH   5   9
ATOM      9  C   UNL     1       9.712   3.066  23.439  0.00  0.00    +0.038 A 
ATOM     10  C   UNL     1       8.874   4.098  23.870  0.00  0.00    +0.023 A 
ATOM     11  C   UNL     1       9.390   5.369  24.133  0.00  0.00    +0.003 A 
ATOM     12  C   UNL     1      10.746   5.624  23.934  0.00  0.00    +0.020 A 
ATOM     13  C   UNL     1      11.577   4.611  23.474  0.00  0.00    +0.043 A 
ATOM     14 CL   UNL     1      13.245   4.914  23.197  0.00  0.00    -0.083 Cl
ATOM     15  C   UNL     1      11.069   3.335  23.226  0.00  0.00    +0.043 A 
ENDBRANCH   5   9
BRANCH   1  16
ATOM     16  N   UNL     1       9.063  -0.513  27.246  0.00  0.00    -0.305 N 
ATOM     17  H   UNL     1       9.366   0.231  27.869  0.00  0.00    +0.148 HD
ATOM     18  H   UNL     1       9.248  -1.436  27.655  0.00  0.00    +0.148 HD
ENDBRANCH   1  16
BRANCH   8  19
ATOM     19  C   UNL     1       8.324  -2.762  25.304  0.00  0.00    +0.208 C 
ATOM     20  O   UNL     1       8.679  -3.303  26.351  0.00  0.00    -0.286 OA
BRANCH  19  21
ATOM     21  C   UNL     1       7.497  -3.569  24.348  0.00  0.00    +0.023 A 
ATOM     22  C   UNL     1       8.097  -4.641  23.672  0.00  0.00    +0.014 A 
ATOM     23  C   UNL     1       7.341  -5.435  22.806  0.00  0.00    +0.039 A 
ATOM     24  C   UNL     1       5.993  -5.155  22.612  0.00  0.00    +0.123 A 
ATOM     25  F   UNL     1       5.267  -5.922  21.791  0.00  0.00    -0.205 F 
ATOM     26  C   UNL     1       5.382  -4.097  23.275  0.00  0.00    +0.039 A 
ATOM     27  C   UNL     1       6.128  -3.314  24.158  0.00  0.00    +0.014 A 
ENDBRANCH  19  21
ENDBRANCH   8  19
TORSDOF 4
ENDMDL
MODEL 3
REMARK VINA RESULT:      -7.2      2.005      2.747
REMARK  Name = 
REMARK  4 active torsions:
REMARK  status: ('A' for Active; 'I' for Inactive)
REMARK    1  A    between atoms: N_1  and  C_2
REMARK    2  A    between atoms: C_3  and  C_16
REMARK    3  A    between atoms: N_6  and  C_7
REMARK    4  A    between atoms: C_16  and  C_18
REMARK                            x       y       z     vdW  Elec       q    Type
REMARK                         _______ _______ _______ _____ _____    ______ ____
ROOT
ATOM      1  C   UNL     1       8.912  -1.502  25.154  0.00  0.00    +0.287 A 
ATOM      2  N   UNL     1       8.985  -0.231  24.659  0.00  0.00    -0.172 N 
ATOM      3  H   UNL     1       8.699   0.600  25.166  0.00  0.00    +0.457 HD
ATOM      4  C   UNL     1       9.398  -0.181  23.393  0.00  0.00    +0.317 A 
ATOM      5  N   UNL     1       9.507   0.909  22.646  0.00  0.00    -0.256 N 
ATOM      6  H   UNL     1       9.506   0.700  21.653  0.00  0.00    +0.158 HD
ATOM      7  S   UNL     1       9.716  -1.743  22.745  0.00  0.00    +0.009 S 
ATOM      8  C   UNL     1       9.173  -2.474  24.212  0.00  0.00    +0.154 A 
ENDROOT
BRANCH   5   9
ATOM      9  C   UNL     1       9.609   2.199  23.054  0.00  0.00    +0.038 A 
ATOM     10  C   UNL     1       8.443   2.902  23.366  0.00  0.00    +0.023 A 
ATOM     11  C   UNL     1       8.506   4.234  23.787  0.00  0.00    +0.003 A 
ATOM     12  C   UNL     1       9.739   4.880  23.867  0.00  0.00    +0.020 A 
ATOM     13  C   UNL     1      10.899   4.195  23.526  0.00  0.00    +0.043 A 
ATOM     14 CL   UNL     1      12.423   4.983  23.591  0.00  0.00    -0.083 Cl
ATOM     15  C   UNL     1      10.841   2.861  23.121  0.00  0.00    +0.043 A 
ENDBRANCH   5   9
BRANCH   1  16
ATOM     16  N   UNL     1       8.544  -1.705  26.422  0.00  0.00    -0.305 N 
ATOM     17  H   UNL     1       7.602  -1.548  26.771  0.00  0.00    +0.148 HD
ATOM     18  H   UNL     1       9.237  -1.603  27.171  0.00  0.00    +0.148 HD
ENDBRANCH   1  16
BRANCH   8  19
ATOM     19  C   UNL     1       9.110  -3.913  24.378  0.00  0.00    +0.208 C 
ATOM     20  O   UNL     1      10.088  -4.557  24.757  0.00  0.00    -0.286 OA
BRANCH  19  21
ATOM     21  C   UNL     1       7.834  -4.663  24.136  0.00  0.00    +0.023 A 
ATOM     22  C   UNL     1       6.972  -4.898  25.217  0.00  0.00    +0.014 A 
ATOM     23  C   UNL     1       5.758  -5.559  25.014  0.00  0.00    +0.039 A 
ATOM     24  C   UNL     1       5.410  -5.988  23.737  0.00  0.00    +0.123 A 
ATOM     25  F   UNL     1       4.242  -6.611  23.542  0.00  0.00    -0.205 F 
ATOM     26  C   UNL     1       6.251  -5.762  22.655  0.00  0.00    +0.039 A 
ATOM     27  C   UNL     1       7.456  -5.083  22.848  0.00  0.00    +0.014 A 
ENDBRANCH  19  21
ENDBRANCH   8  19
TORSDOF 4
ENDMDL
MODEL 4
REMARK VINA RESULT:      -7.0      1.959      2.495
REMARK  Name = 
REMARK  4 active torsions:
REMARK  status: ('A' for Active; 'I' for Inactive)
REMARK    1  A    between atoms: N_1  and  C_2
REMARK    2  A    between atoms: C_3  and  C_16
REMARK    3  A    between atoms: N_6  and  C_7
REMARK    4  A    between atoms: C_16  and  C_18
REMARK                            x       y       z     vdW  Elec       q    Type
REMARK                         _______ _______ _______ _____ _____    ______ ____
ROOT
ATOM      1  C   UNL     1       9.310  -0.076  22.409  0.00  0.00    +0.287 A 
ATOM      2  N   UNL     1       9.282   1.248  22.747  0.00  0.00    -0.172 N 
ATOM      3  H   UNL     1       9.509   2.007  22.115  0.00  0.00    +0.457 HD
ATOM      4  C   UNL     1       9.004   1.457  24.033  0.00  0.00    +0.317 A 
ATOM      5  N   UNL     1       8.967   2.632  24.647  0.00  0.00    -0.256 N 
ATOM      6  H   UNL     1       9.073   2.547  25.653  0.00  0.00    +0.158 HD
ATOM      7  S   UNL     1       8.764  -0.011  24.900  0.00  0.00    +0.009 S 
ATOM      8  C   UNL     1       9.154  -0.921  23.486  0.00  0.00    +0.154 A 
ENDROOT
BRANCH   5   9
ATOM      9  C   UNL     1       8.816   3.862  24.095  0.00  0.00    +0.038 A 
ATOM     10  C   UNL     1       9.907   4.736  24.085  0.00  0.00    +0.023 A 
ATOM     11  C   UNL     1       9.791   6.013  23.529  0.00  0.00    +0.003 A 
ATOM     12  C   UNL     1       8.569   6.435  23.007  0.00  0.00    +0.020 A 
ATOM     13  C   UNL     1       7.472   5.582  23.044  0.00  0.00    +0.043 A 
ATOM     14 CL   UNL     1       5.953   6.095  22.431  0.00  0.00    -0.083 Cl
ATOM     15  C   UNL     1       7.589   4.301  23.584  0.00  0.00    +0.043 A 
ENDBRANCH   5   9
BRANCH   1  16
ATOM     16  N   UNL     1       9.545  -0.438  21.145  0.00  0.00    -0.305 N 
ATOM     17  H   UNL     1      10.334  -0.104  20.597  0.00  0.00    +0.148 HD
ATOM     18  H   UNL     1       8.757  -0.695  20.539  0.00  0.00    +0.148 HD
ENDBRANCH   1  16
BRANCH   8  19
ATOM     19  C   UNL     1       9.207  -2.371  23.495  0.00  0.00    +0.208 C 
ATOM     20  O   UNL     1      10.234  -2.973  23.806  0.00  0.00    -0.286 OA
BRANCH  19  21
ATOM     21  C   UNL     1       7.993  -3.188  23.168  0.00  0.00    +0.023 A 
ATOM     22  C   UNL     1       7.910  -4.501  23.653  0.00  0.00    +0.014 A 
ATOM     23  C   UNL     1       6.773  -5.273  23.398  0.00  0.00    +0.039 A 
ATOM     24  C   UNL     1       5.727  -4.736  22.655  0.00  0.00    +0.123 A 
ATOM     25  F   UNL     1       4.634  -5.471  22.420  0.00  0.00    -0.205 F 
ATOM     26  C   UNL     1       5.792  -3.436  22.167  0.00  0.00    +0.039 A 
ATOM     27  C   UNL     1       6.916  -2.654  22.438  0.00  0.00    +0.014 A 
ENDBRANCH  19  21
ENDBRANCH   8  19
TORSDOF 4
ENDMDL
MODEL 5
REMARK VINA RESULT:      -6.9      2.526      3.171
REMARK  Name = 
REMARK  4 active torsions:
REMARK  status: ('A' for Active; 'I' for Inactive)
REMARK    1  A    between atoms: N_1  and  C_2
REMARK    2  A    between atoms: C_3  and  C_16
REMARK    3  A    between atoms: N_6  and  C_7
REMARK    4  A    between atoms: C_16  and  C_18
REMARK                            x       y       z     vdW  Elec       q    Type
REMARK                         _______ _______ _______ _____ _____    ______ ____
ROOT
ATOM      1  C   UNL     1       9.198  -0.406  22.446  0.00  0.00    +0.287 A 
ATOM      2  N   UNL     1       9.511   0.850  22.884  0.00  0.00    -0.172 N 
ATOM      3  H   UNL     1      10.120   1.494  22.392  0.00  0.00    +0.457 HD
ATOM      4  C   UNL     1       8.999   1.134  24.080  0.00  0.00    +0.317 A 
ATOM      5  N   UNL     1       9.187   2.252  24.769  0.00  0.00    -0.256 N 
ATOM      6  H   UNL     1       9.003   2.132  25.760  0.00  0.00    +0.158 HD
ATOM      7  S   UNL     1       8.091  -0.174  24.733  0.00  0.00    +0.009 S 
ATOM      8  C   UNL     1       8.513  -1.157  23.377  0.00  0.00    +0.154 A 
ENDROOT
BRANCH   5   9
ATOM      9  C   UNL     1       9.581   3.465  24.307  0.00  0.00    +0.038 A 
ATOM     10  C   UNL     1       8.633   4.486  24.195  0.00  0.00    +0.023 A 
ATOM     11  C   UNL     1       8.999   5.748  23.720  0.00  0.00    +0.003 A 
ATOM     12  C   UNL     1      10.315   5.987  23.325  0.00  0.00    +0.020 A 
ATOM     13  C   UNL     1      11.255   4.967  23.404  0.00  0.00    +0.043 A 
ATOM     14 CL   UNL     1      12.872   5.235  22.896  0.00  0.00    -0.083 Cl
ATOM     15  C   UNL     1      10.896   3.710  23.893  0.00  0.00    +0.043 A 
ENDBRANCH   5   9
BRANCH   1  16
ATOM     16  N   UNL     1       9.616  -0.819  21.246  0.00  0.00    -0.305 N 
ATOM     17  H   UNL     1       9.779  -1.793  21.008  0.00  0.00    +0.148 HD
ATOM     18  H   UNL     1      10.195  -0.196  20.672  0.00  0.00    +0.148 HD
ENDBRANCH   1  16
BRANCH   8  19
ATOM     19  C   UNL     1       8.095  -2.541  23.271  0.00  0.00    +0.208 C 
ATOM     20  O   UNL     1       7.857  -3.056  22.178  0.00  0.00    -0.286 OA
BRANCH  19  21
ATOM     21  C   UNL     1       7.983  -3.409  24.489  0.00  0.00    +0.023 A 
ATOM     22  C   UNL     1       6.721  -3.889  24.864  0.00  0.00    +0.014 A 
ATOM     23  C   UNL     1       6.592  -4.732  25.971  0.00  0.00    +0.039 A 
ATOM     24  C   UNL     1       7.720  -5.089  26.703  0.00  0.00    +0.123 A 
ATOM     25  F   UNL     1       7.597  -5.904  27.756  0.00  0.00    -0.205 F 
ATOM     26  C   UNL     1       8.979  -4.623  26.344  0.00  0.00    +0.039 A 
ATOM     27  C   UNL     1       9.116  -3.798  25.226  0.00  0.00    +0.014 A 
ENDBRANCH  19  21
ENDBRANCH   8  19
TORSDOF 4
ENDMDL
MODEL 6
REMARK VINA RESULT:      -6.8      2.228      2.889
REMARK  Name = 
REMARK  4 active torsions:
REMARK  status: ('A' for Active; 'I' for Inactive)
REMARK    1  A    between atoms: N_1  and  C_2
REMARK    2  A    between atoms: C_3  and  C_16
REMARK    3  A    between atoms: N_6  and  C_7
REMARK    4  A    between atoms: C_16  and  C_18
REMARK                            x       y       z     vdW  Elec       q    Type
REMARK                         _______ _______ _______ _____ _____    ______ ____
ROOT
ATOM      1  C   UNL     1       9.265  -1.164  23.057  0.00  0.00    +0.287 A 
ATOM      2  N   UNL     1       9.167   0.167  23.350  0.00  0.00    -0.172 N 
ATOM      3  H   UNL     1       9.456   0.914  22.728  0.00  0.00    +0.457 HD
ATOM      4  C   UNL     1       8.725   0.404  24.584  0.00  0.00    +0.317 A 
ATOM      5  N   UNL     1       8.588   1.595  25.153  0.00  0.00    -0.256 N 
ATOM      6  H   UNL     1       8.569   1.540  26.166  0.00  0.00    +0.158 HD
ATOM      7  S   UNL     1       8.409  -1.044  25.458  0.00  0.00    +0.009 S 
ATOM      8  C   UNL     1       8.993  -1.983  24.132  0.00  0.00    +0.154 A 
ENDROOT
BRANCH   5   9
ATOM      9  C   UNL     1       8.482   2.805  24.550  0.00  0.00    +0.038 A 
ATOM     10  C   UNL     1       7.245   3.192  24.027  0.00  0.00    +0.023 A 
ATOM     11  C   UNL     1       7.095   4.430  23.395  0.00  0.00    +0.003 A 
ATOM     12  C   UNL     1       8.195   5.276  23.255  0.00  0.00    +0.020 A 
ATOM     13  C   UNL     1       9.434   4.882  23.744  0.00  0.00    +0.043 A 
ATOM     14 CL   UNL     1      10.805   5.899  23.556  0.00  0.00    -0.083 Cl
ATOM     15  C   UNL     1       9.583   3.654  24.390  0.00  0.00    +0.043 A 
ENDBRANCH   5   9
BRANCH   1  16
ATOM     16  N   UNL     1       9.664  -1.554  21.843  0.00  0.00    -0.305 N 
ATOM     17  H   UNL     1      10.366  -1.066  21.294  0.00  0.00    +0.148 HD
ATOM     18  H   UNL     1       9.012  -2.066  21.239  0.00  0.00    +0.148 HD
ENDBRANCH   1  16
BRANCH   8  19
ATOM     19  C   UNL     1       9.074  -3.430  24.190  0.00  0.00    +0.208 C 
ATOM     20  O   UNL     1      10.144  -4.004  24.389  0.00  0.00    -0.286 OA
BRANCH  19  21
ATOM     21  C   UNL     1       7.844  -4.278  24.057  0.00  0.00    +0.023 A 
ATOM     22  C   UNL     1       7.489  -4.761  22.789  0.00  0.00    +0.014 A 
ATOM     23  C   UNL     1       6.370  -5.586  22.641  0.00  0.00    +0.039 A 
ATOM     24  C   UNL     1       5.607  -5.921  23.755  0.00  0.00    +0.123 A 
ATOM     25  F   UNL     1       4.543  -6.719  23.614  0.00  0.00    -0.205 F 
ATOM     26  C   UNL     1       5.945  -5.451  25.018  0.00  0.00    +0.039 A 
ATOM     27  C   UNL     1       7.074  -4.645  25.175  0.00  0.00    +0.014 A 
ENDBRANCH  19  21
ENDBRANCH   8  19
TORSDOF 4
ENDMDL
MODEL 7
REMARK VINA RESULT:      -6.8      5.023      8.991
REMARK  Name = 
REMARK  4 active torsions:
REMARK  status: ('A' for Active; 'I' for Inactive)
REMARK    1  A    between atoms: N_1  and  C_2
REMARK    2  A    between atoms: C_3  and  C_16
REMARK    3  A    between atoms: N_6  and  C_7
REMARK    4  A    between atoms: C_16  and  C_18
REMARK                            x       y       z     vdW  Elec       q    Type
REMARK                         _______ _______ _______ _____ _____    ______ ____
ROOT
ATOM      1  C   UNL     1       8.115  -3.586  24.460  0.00  0.00    +0.287 A 
ATOM      2  N   UNL     1       6.832  -4.049  24.368  0.00  0.00    -0.172 N 
ATOM      3  H   UNL     1       6.475  -4.853  24.871  0.00  0.00    +0.457 HD
ATOM      4  C   UNL     1       6.096  -3.386  23.477  0.00  0.00    +0.317 A 
ATOM      5  N   UNL     1       4.841  -3.655  23.140  0.00  0.00    -0.256 N 
ATOM      6  H   UNL     1       4.592  -3.269  22.236  0.00  0.00    +0.158 HD
ATOM      7  S   UNL     1       6.982  -2.136  22.692  0.00  0.00    +0.009 S 
ATOM      8  C   UNL     1       8.413  -2.607  23.538  0.00  0.00    +0.154 A 
ENDROOT
BRANCH   5   9
ATOM      9  C   UNL     1       3.917  -4.357  23.843  0.00  0.00    +0.038 A 
ATOM     10  C   UNL     1       3.298  -3.750  24.939  0.00  0.00    +0.023 A 
ATOM     11  C   UNL     1       2.344  -4.440  25.690  0.00  0.00    +0.003 A 
ATOM     12  C   UNL     1       2.025  -5.758  25.365  0.00  0.00    +0.020 A 
ATOM     13  C   UNL     1       2.661  -6.378  24.297  0.00  0.00    +0.043 A 
ATOM     14 CL   UNL     1       2.301  -8.009  23.899  0.00  0.00    -0.083 Cl
ATOM     15  C   UNL     1       3.603  -5.686  23.535  0.00  0.00    +0.043 A 
ENDBRANCH   5   9
BRANCH   1  16
ATOM     16  N   UNL     1       8.961  -4.133  25.337  0.00  0.00    -0.305 N 
ATOM     17  H   UNL     1       9.412  -3.616  26.087  0.00  0.00    +0.148 HD
ATOM     18  H   UNL     1       9.524  -4.943  25.056  0.00  0.00    +0.148 HD
ENDBRANCH   1  16
BRANCH   8  19
ATOM     19  C   UNL     1       9.689  -1.956  23.311  0.00  0.00    +0.208 C 
ATOM     20  O   UNL     1      10.713  -2.607  23.109  0.00  0.00    -0.286 OA
BRANCH  19  21
ATOM     21  C   UNL     1       9.795  -0.460  23.271  0.00  0.00    +0.023 A 
ATOM     22  C   UNL     1       9.886   0.245  24.479  0.00  0.00    +0.014 A 
ATOM     23  C   UNL     1      10.027   1.636  24.470  0.00  0.00    +0.039 A 
ATOM     24  C   UNL     1      10.070   2.318  23.259  0.00  0.00    +0.123 A 
ATOM     25  F   UNL     1      10.215   3.647  23.251  0.00  0.00    -0.205 F 
ATOM     26  C   UNL     1       9.982   1.634  22.052  0.00  0.00    +0.039 A 
ATOM     27  C   UNL     1       9.863   0.243  22.055  0.00  0.00    +0.014 A 
ENDBRANCH  19  21
ENDBRANCH   8  19
TORSDOF 4
ENDMDL
MODEL 8
REMARK VINA RESULT:      -6.8      4.677      8.403
REMARK  Name = 
REMARK  4 active torsions:
REMARK  status: ('A' for Active; 'I' for Inactive)
REMARK    1  A    between atoms: N_1  and  C_2
REMARK    2  A    between atoms: C_3  and  C_16
REMARK    3  A    between atoms: N_6  and  C_7
REMARK    4  A    between atoms: C_16  and  C_18
REMARK                            x       y       z     vdW  Elec       q    Type
REMARK                         _______ _______ _______ _____ _____    ______ ____
ROOT
ATOM      1  C   UNL     1       8.562  -0.939  26.162  0.00  0.00    +0.287 A 
ATOM      2  N   UNL     1       8.101  -2.214  26.331  0.00  0.00    -0.172 N 
ATOM      3  H   UNL     1       7.609  -2.543  27.154  0.00  0.00    +0.457 HD
ATOM      4  C   UNL     1       8.433  -3.030  25.332  0.00  0.00    +0.317 A 
ATOM      5  N   UNL     1       8.171  -4.328  25.258  0.00  0.00    -0.256 N 
ATOM      6  H   UNL     1       8.784  -4.812  24.610  0.00  0.00    +0.158 HD
ATOM      7  S   UNL     1       9.356  -2.236  24.114  0.00  0.00    +0.009 S 
ATOM      8  C   UNL     1       9.366  -0.787  25.053  0.00  0.00    +0.154 A 
ENDROOT
BRANCH   5   9
ATOM      9  C   UNL     1       7.223  -5.031  25.927  0.00  0.00    +0.038 A 
ATOM     10  C   UNL     1       7.368  -5.217  27.305  0.00  0.00    +0.023 A 
ATOM     11  C   UNL     1       6.415  -5.938  28.030  0.00  0.00    +0.003 A 
ATOM     12  C   UNL     1       5.324  -6.505  27.372  0.00  0.00    +0.020 A 
ATOM     13  C   UNL     1       5.193  -6.352  25.997  0.00  0.00    +0.043 A 
ATOM     14 CL   UNL     1       3.872  -7.067  25.166  0.00  0.00    -0.083 Cl
ATOM     15  C   UNL     1       6.134  -5.619  25.273  0.00  0.00    +0.043 A 
ENDBRANCH   5   9
BRANCH   1  16
ATOM     16  N   UNL     1       8.278  -0.000  27.070  0.00  0.00    -0.305 N 
ATOM     17  H   UNL     1       7.335   0.314  27.283  0.00  0.00    +0.148 HD
ATOM     18  H   UNL     1       8.967   0.733  27.269  0.00  0.00    +0.148 HD
ENDBRANCH   1  16
BRANCH   8  19
ATOM     19  C   UNL     1      10.073   0.403  24.623  0.00  0.00    +0.208 C 
ATOM     20  O   UNL     1      11.281   0.537  24.818  0.00  0.00    -0.286 OA
BRANCH  19  21
ATOM     21  C   UNL     1       9.363   1.497  23.882  0.00  0.00    +0.023 A 
ATOM     22  C   UNL     1       8.964   1.269  22.557  0.00  0.00    +0.014 A 
ATOM     23  C   UNL     1       8.265   2.255  21.856  0.00  0.00    +0.039 A 
ATOM     24  C   UNL     1       7.973   3.466  22.474  0.00  0.00    +0.123 A 
ATOM     25  F   UNL     1       7.295   4.406  21.805  0.00  0.00    -0.205 F 
ATOM     26  C   UNL     1       8.361   3.709  23.786  0.00  0.00    +0.039 A 
ATOM     27  C   UNL     1       9.040   2.719  24.498  0.00  0.00    +0.014 A 
ENDBRANCH  19  21
ENDBRANCH   8  19
TORSDOF 4
ENDMDL
MODEL 9
REMARK VINA RESULT:      -6.8      4.589      8.662
REMARK  Name = 
REMARK  4 active torsions:
REMARK  status: ('A' for Active; 'I' for Inactive)
REMARK    1  A    between atoms: N_1  and  C_2
REMARK    2  A    between atoms: C_3  and  C_16
REMARK    3  A    between atoms: N_6  and  C_7
REMARK    4  A    between atoms: C_16  and  C_18
REMARK                            x       y       z     vdW  Elec       q    Type
REMARK                         _______ _______ _______ _____ _____    ______ ____
ROOT
ATOM      1  C   UNL     1       8.387  -3.577  24.112  0.00  0.00    +0.287 A 
ATOM      2  N   UNL     1       7.106  -4.049  24.059  0.00  0.00    -0.172 N 
ATOM      3  H   UNL     1       6.800  -4.927  24.463  0.00  0.00    +0.457 HD
ATOM      4  C   UNL     1       6.289  -3.276  23.344  0.00  0.00    +0.317 A 
ATOM      5  N   UNL     1       5.012  -3.518  23.078  0.00  0.00    -0.256 N 
ATOM      6  H   UNL     1       4.682  -3.006  22.266  0.00  0.00    +0.158 HD
ATOM      7  S   UNL     1       7.093  -1.904  22.686  0.00  0.00    +0.009 S 
ATOM      8  C   UNL     1       8.595  -2.464  23.326  0.00  0.00    +0.154 A 
ENDROOT
BRANCH   5   9
ATOM      9  C   UNL     1       4.158  -4.338  23.741  0.00  0.00    +0.038 A 
ATOM     10  C   UNL     1       3.804  -5.557  23.158  0.00  0.00    +0.023 A 
ATOM     11  C   UNL     1       2.924  -6.427  23.807  0.00  0.00    +0.003 A 
ATOM     12  C   UNL     1       2.369  -6.066  25.034  0.00  0.00    +0.020 A 
ATOM     13  C   UNL     1       2.692  -4.840  25.603  0.00  0.00    +0.043 A 
ATOM     14 CL   UNL     1       1.996  -4.366  27.099  0.00  0.00    -0.083 Cl
ATOM     15  C   UNL     1       3.582  -3.976  24.964  0.00  0.00    +0.043 A 
ENDBRANCH   5   9
BRANCH   1  16
ATOM     16  N   UNL     1       9.311  -4.232  24.821  0.00  0.00    -0.305 N 
ATOM     17  H   UNL     1       9.625  -3.943  25.743  0.00  0.00    +0.148 HD
ATOM     18  H   UNL     1      10.039  -4.764  24.332  0.00  0.00    +0.148 HD
ENDBRANCH   1  16
BRANCH   8  19
ATOM     19  C   UNL     1       9.841  -1.759  23.094  0.00  0.00    +0.208 C 
ATOM     20  O   UNL     1      10.867  -2.360  22.775  0.00  0.00    -0.286 OA
BRANCH  19  21
ATOM     21  C   UNL     1       9.911  -0.264  23.191  0.00  0.00    +0.023 A 
ATOM     22  C   UNL     1       9.932   0.490  22.009  0.00  0.00    +0.014 A 
ATOM     23  C   UNL     1       9.956   1.886  22.069  0.00  0.00    +0.039 A 
ATOM     24  C   UNL     1       9.966   2.524  23.305  0.00  0.00    +0.123 A 
ATOM     25  F   UNL     1       9.979   3.861  23.362  0.00  0.00    -0.205 F 
ATOM     26  C   UNL     1       9.945   1.792  24.486  0.00  0.00    +0.039 A 
ATOM     27  C   UNL     1       9.899   0.397  24.432  0.00  0.00    +0.014 A 
ENDBRANCH  19  21
ENDBRANCH   8  19
TORSDOF 4
ENDMDL
