MODEL 1
REMARK VINA RESULT:      -7.0      0.000      0.000
REMARK  Name = 
REMARK  4 active torsions:
REMARK  status: ('A' for Active; 'I' for Inactive)
REMARK    1  A    between atoms: O_1  and  C_2
REMARK    2  A    between atoms: C_2  and  C_3
REMARK    3  A    between atoms: C_6  and  C_12
REMARK    4  A    between atoms: C_8  and  N_9
REMARK                            x       y       z     vdW  Elec       q    Type
REMARK                         _______ _______ _______ _____ _____    ______ ____
ROOT
ATOM      1  C   UNL     1       8.488  -2.778  23.317  0.00  0.00    +0.094 A 
ATOM      2  C   UNL     1       8.399  -3.966  24.079  0.00  0.00    +0.284 A 
ATOM      3  C   UNL     1       7.385  -4.919  23.814  0.00  0.00    +0.097 A 
ATOM      4  C   UNL     1       6.448  -4.714  22.786  0.00  0.00    +0.061 A 
ATOM      5  C   UNL     1       6.581  -3.574  21.985  0.00  0.00    +0.013 A 
ATOM      6  C   UNL     1       7.581  -2.625  22.248  0.00  0.00    +0.019 A 
ENDROOT
BRANCH   1   7
ATOM      7  C   UNL     1       9.288  -1.573  23.649  0.00  0.00    +0.144 C 
ATOM      8  C   UNL     1       8.956  -0.550  24.464  0.00  0.00    +0.102 C 
ATOM      9  C   UNL     1       7.610  -0.346  25.056  0.00  0.00    +0.170 C 
ATOM     10  O   UNL     1       6.966  -1.269  25.549  0.00  0.00    -0.292 OA
ATOM     11  C   UNL     1       7.055   1.067  24.951  0.00  0.00    +0.080 C 
ATOM     12  C   UNL     1       8.104   2.132  25.263  0.00  0.00    +0.016 C 
ATOM     13  C   UNL     1       9.361   1.955  24.424  0.00  0.00    +0.080 C 
ATOM     14  C   UNL     1       9.923   0.569  24.636  0.00  0.00    +0.170 C 
ATOM     15  O   UNL     1      11.093   0.393  24.968  0.00  0.00    -0.292 OA
BRANCH   7  16
ATOM     16  O   UNL     1      10.519  -1.549  22.997  0.00  0.00    -0.505 OA
ATOM     17  H   UNL     1      10.407  -1.722  22.046  0.00  0.00    +0.292 HD
ENDBRANCH   7  16
ENDBRANCH   1   7
BRANCH   4  18
ATOM     18  C   UNL     1       5.305  -5.688  22.585  0.00  0.00    +0.418 C 
ATOM     19  F   UNL     1       5.336  -6.257  21.349  0.00  0.00    -0.166 F 
ATOM     20  F   UNL     1       4.087  -5.094  22.696  0.00  0.00    -0.166 F 
ATOM     21  F   UNL     1       5.308  -6.720  23.471  0.00  0.00    -0.166 F 
ENDBRANCH   4  18
BRANCH   2  22
ATOM     22  N   UNL     1       9.312  -4.257  25.204  0.00  0.00    +0.080 N 
ATOM     23  O   UNL     1      10.356  -4.860  24.952  0.00  0.00    +0.041 OA
ATOM     24  O   UNL     1       8.976  -3.877  26.337  0.00  0.00    -0.576 OA
ENDBRANCH   2  22
TORSDOF 4
ENDMDL
MODEL 2
REMARK VINA RESULT:      -6.8      1.709      2.613
REMARK  Name = 
REMARK  4 active torsions:
REMARK  status: ('A' for Active; 'I' for Inactive)
REMARK    1  A    between atoms: O_1  and  C_2
REMARK    2  A    between atoms: C_2  and  C_3
REMARK    3  A    between atoms: C_6  and  C_12
REMARK    4  A    between atoms: C_8  and  N_9
REMARK                            x       y       z     vdW  Elec       q    Type
REMARK                         _______ _______ _______ _____ _____    ______ ____
ROOT
ATOM      1  C   UNL     1       7.099  -1.922  22.951  0.00  0.00    +0.094 A 
ATOM      2  C   UNL     1       7.956  -2.939  23.432  0.00  0.00    +0.284 A 
ATOM      3  C   UNL     1       7.708  -4.299  23.121  0.00  0.00    +0.097 A 
ATOM      4  C   UNL     1       6.612  -4.672  22.324  0.00  0.00    +0.061 A 
ATOM      5  C   UNL     1       5.807  -3.661  21.788  0.00  0.00    +0.013 A 
ATOM      6  C   UNL     1       6.047  -2.313  22.098  0.00  0.00    +0.019 A 
ENDROOT
BRANCH   1   7
ATOM      7  C   UNL     1       7.051  -0.514  23.416  0.00  0.00    +0.144 C 
ATOM      8  C   UNL     1       7.907   0.488  23.129  0.00  0.00    +0.102 C 
ATOM      9  C   UNL     1       9.198   0.318  22.418  0.00  0.00    +0.170 C 
ATOM     10  O   UNL     1       9.306  -0.387  21.417  0.00  0.00    -0.292 OA
ATOM     11  C   UNL     1      10.392   1.019  23.049  0.00  0.00    +0.080 C 
ATOM     12  C   UNL     1      10.059   2.432  23.521  0.00  0.00    +0.016 C 
ATOM     13  C   UNL     1       8.842   2.453  24.436  0.00  0.00    +0.080 C 
ATOM     14  C   UNL     1       7.662   1.830  23.728  0.00  0.00    +0.170 C 
ATOM     15  O   UNL     1       6.589   2.420  23.625  0.00  0.00    -0.292 OA
BRANCH   7  16
ATOM     16  O   UNL     1       5.971  -0.264  24.260  0.00  0.00    -0.505 OA
ATOM     17  H   UNL     1       6.008   0.645  24.604  0.00  0.00    +0.292 HD
ENDBRANCH   7  16
ENDBRANCH   1   7
BRANCH   4  18
ATOM     18  C   UNL     1       6.297  -6.136  22.090  0.00  0.00    +0.418 C 
ATOM     19  F   UNL     1       5.653  -6.332  20.908  0.00  0.00    -0.166 F 
ATOM     20  F   UNL     1       5.488  -6.656  23.052  0.00  0.00    -0.166 F 
ATOM     21  F   UNL     1       7.401  -6.930  22.052  0.00  0.00    -0.166 F 
ENDBRANCH   4  18
BRANCH   2  22
ATOM     22  N   UNL     1       9.113  -2.654  24.307  0.00  0.00    +0.080 N 
ATOM     23  O   UNL     1      10.239  -2.779  23.826  0.00  0.00    +0.041 OA
ATOM     24  O   UNL     1       8.883  -2.304  25.475  0.00  0.00    -0.576 OA
ENDBRANCH   2  22
TORSDOF 4
ENDMDL
MODEL 3
REMARK VINA RESULT:      -6.7      4.265      6.327
REMARK  Name = 
REMARK  4 active torsions:
REMARK  status: ('A' for Active; 'I' for Inactive)
REMARK    1  A    between atoms: O_1  and  C_2
REMARK    2  A    between atoms: C_2  and  C_3
REMARK    3  A    between atoms: C_6  and  C_12
REMARK    4  A    between atoms: C_8  and  N_9
REMARK                            x       y       z     vdW  Elec       q    Type
REMARK                         _______ _______ _______ _____ _____    ______ ____
ROOT
ATOM      1  C   UNL     1       8.950  -1.349  23.723  0.00  0.00    +0.094 A 
ATOM      2  C   UNL     1       8.834  -0.339  24.706  0.00  0.00    +0.284 A 
ATOM      3  C   UNL     1       9.322   0.968  24.459  0.00  0.00    +0.097 A 
ATOM      4  C   UNL     1       9.926   1.297  23.232  0.00  0.00    +0.061 A 
ATOM      5  C   UNL     1       9.973   0.317  22.233  0.00  0.00    +0.013 A 
ATOM      6  C   UNL     1       9.496  -0.980  22.477  0.00  0.00    +0.019 A 
ENDROOT
BRANCH   1   7
ATOM      7  C   UNL     1       8.761  -2.806  23.928  0.00  0.00    +0.144 C 
ATOM      8  C   UNL     1       7.618  -3.518  23.849  0.00  0.00    +0.102 C 
ATOM      9  C   UNL     1       6.264  -2.927  23.717  0.00  0.00    +0.170 C 
ATOM     10  O   UNL     1       6.027  -2.001  22.945  0.00  0.00    -0.292 OA
ATOM     11  C   UNL     1       5.204  -3.498  24.648  0.00  0.00    +0.080 C 
ATOM     12  C   UNL     1       5.274  -5.020  24.750  0.00  0.00    +0.016 C 
ATOM     13  C   UNL     1       6.671  -5.502  25.118  0.00  0.00    +0.080 C 
ATOM     14  C   UNL     1       7.670  -4.984  24.111  0.00  0.00    +0.170 C 
ATOM     15  O   UNL     1       8.441  -5.739  23.523  0.00  0.00    -0.292 OA
BRANCH   7  16
ATOM     16  O   UNL     1       9.948  -3.461  24.251  0.00  0.00    -0.505 OA
ATOM     17  H   UNL     1      10.507  -2.900  24.816  0.00  0.00    +0.292 HD
ENDBRANCH   7  16
ENDBRANCH   1   7
BRANCH   4  18
ATOM     18  C   UNL     1      10.539   2.666  23.022  0.00  0.00    +0.418 C 
ATOM     19  F   UNL     1      10.960   2.841  21.740  0.00  0.00    -0.166 F 
ATOM     20  F   UNL     1      11.629   2.876  23.808  0.00  0.00    -0.166 F 
ATOM     21  F   UNL     1       9.682   3.691  23.277  0.00  0.00    -0.166 F 
ENDBRANCH   4  18
BRANCH   2  22
ATOM     22  N   UNL     1       8.251  -0.593  26.040  0.00  0.00    +0.080 N 
ATOM     23  O   UNL     1       7.029  -0.494  26.158  0.00  0.00    +0.041 OA
ATOM     24  O   UNL     1       9.024  -0.891  26.964  0.00  0.00    -0.576 OA
ENDBRANCH   2  22
TORSDOF 4
ENDMDL
MODEL 4
REMARK VINA RESULT:      -6.7      4.000      6.119
REMARK  Name = 
REMARK  4 active torsions:
REMARK  status: ('A' for Active; 'I' for Inactive)
REMARK    1  A    between atoms: O_1  and  C_2
REMARK    2  A    between atoms: C_2  and  C_3
REMARK    3  A    between atoms: C_6  and  C_12
REMARK    4  A    between atoms: C_8  and  N_9
REMARK                            x       y       z     vdW  Elec       q    Type
REMARK                         _______ _______ _______ _____ _____    ______ ____
ROOT
ATOM      1  C   UNL     1       7.542  -2.460  23.732  0.00  0.00    +0.094 A 
ATOM      2  C   UNL     1       8.724  -2.503  24.507  0.00  0.00    +0.284 A 
ATOM      3  C   UNL     1       9.582  -1.378  24.580  0.00  0.00    +0.097 A 
ATOM      4  C   UNL     1       9.279  -0.190  23.892  0.00  0.00    +0.061 A 
ATOM      5  C   UNL     1       8.073  -0.122  23.185  0.00  0.00    +0.013 A 
ATOM      6  C   UNL     1       7.224  -1.237  23.107  0.00  0.00    +0.019 A 
ENDROOT
BRANCH   1   7
ATOM      7  C   UNL     1       6.710  -3.618  23.324  0.00  0.00    +0.144 C 
ATOM      8  C   UNL     1       5.728  -4.226  24.021  0.00  0.00    +0.102 C 
ATOM      9  C   UNL     1       5.411  -3.953  25.445  0.00  0.00    +0.170 C 
ATOM     10  O   UNL     1       5.359  -2.811  25.896  0.00  0.00    -0.292 OA
ATOM     11  C   UNL     1       5.222  -5.182  26.322  0.00  0.00    +0.080 C 
ATOM     12  C   UNL     1       4.394  -6.268  25.638  0.00  0.00    +0.016 C 
ATOM     13  C   UNL     1       4.953  -6.630  24.269  0.00  0.00    +0.080 C 
ATOM     14  C   UNL     1       5.033  -5.391  23.408  0.00  0.00    +0.170 C 
ATOM     15  O   UNL     1       4.518  -5.349  22.292  0.00  0.00    -0.292 OA
BRANCH   7  16
ATOM     16  O   UNL     1       7.042  -4.099  22.059  0.00  0.00    -0.505 OA
ATOM     17  H   UNL     1       8.008  -4.139  21.950  0.00  0.00    +0.292 HD
ENDBRANCH   7  16
ENDBRANCH   1   7
BRANCH   4  18
ATOM     18  C   UNL     1      10.258   0.967  23.892  0.00  0.00    +0.418 C 
ATOM     19  F   UNL     1       9.781   2.034  24.588  0.00  0.00    -0.166 F 
ATOM     20  F   UNL     1      10.526   1.423  22.639  0.00  0.00    -0.166 F 
ATOM     21  F   UNL     1      11.459   0.662  24.452  0.00  0.00    -0.166 F 
ENDBRANCH   4  18
BRANCH   2  22
ATOM     22  N   UNL     1       9.150  -3.716  25.237  0.00  0.00    +0.080 N 
ATOM     23  O   UNL     1       9.825  -4.545  24.625  0.00  0.00    +0.041 OA
ATOM     24  O   UNL     1       8.804  -3.830  26.423  0.00  0.00    -0.576 OA
ENDBRANCH   2  22
TORSDOF 4
ENDMDL
MODEL 5
REMARK VINA RESULT:      -6.7      1.614      2.001
REMARK  Name = 
REMARK  4 active torsions:
REMARK  status: ('A' for Active; 'I' for Inactive)
REMARK    1  A    between atoms: O_1  and  C_2
REMARK    2  A    between atoms: C_2  and  C_3
REMARK    3  A    between atoms: C_6  and  C_12
REMARK    4  A    between atoms: C_8  and  N_9
REMARK                            x       y       z     vdW  Elec       q    Type
REMARK                         _______ _______ _______ _____ _____    ______ ____
ROOT
ATOM      1  C   UNL     1       7.773  -2.851  22.674  0.00  0.00    +0.094 A 
ATOM      2  C   UNL     1       7.892  -3.666  23.823  0.00  0.00    +0.284 A 
ATOM      3  C   UNL     1       6.896  -4.624  24.136  0.00  0.00    +0.097 A 
ATOM      4  C   UNL     1       5.770  -4.794  23.312  0.00  0.00    +0.061 A 
ATOM      5  C   UNL     1       5.688  -4.039  22.136  0.00  0.00    +0.013 A 
ATOM      6  C   UNL     1       6.671  -3.086  21.827  0.00  0.00    +0.019 A 
ENDROOT
BRANCH   1   7
ATOM      7  C   UNL     1       8.558  -1.629  22.372  0.00  0.00    +0.144 C 
ATOM      8  C   UNL     1       8.299  -0.358  22.740  0.00  0.00    +0.102 C 
ATOM      9  C   UNL     1       7.040   0.093  23.383  0.00  0.00    +0.170 C 
ATOM     10  O   UNL     1       6.509  -0.537  24.295  0.00  0.00    -0.292 OA
ATOM     11  C   UNL     1       6.416   1.350  22.796  0.00  0.00    +0.080 C 
ATOM     12  C   UNL     1       7.451   2.432  22.496  0.00  0.00    +0.016 C 
ATOM     13  C   UNL     1       8.588   1.907  21.630  0.00  0.00    +0.080 C 
ATOM     14  C   UNL     1       9.232   0.717  22.304  0.00  0.00    +0.170 C 
ATOM     15  O   UNL     1      10.443   0.672  22.508  0.00  0.00    -0.292 OA
BRANCH   7  16
ATOM     16  O   UNL     1       9.686  -1.895  21.597  0.00  0.00    -0.505 OA
ATOM     17  H   UNL     1       9.431  -2.121  20.686  0.00  0.00    +0.292 HD
ENDBRANCH   7  16
ENDBRANCH   1   7
BRANCH   4  18
ATOM     18  C   UNL     1       4.661  -5.744  23.716  0.00  0.00    +0.418 C 
ATOM     19  F   UNL     1       4.186  -5.469  24.961  0.00  0.00    -0.166 F 
ATOM     20  F   UNL     1       5.071  -7.041  23.747  0.00  0.00    -0.166 F 
ATOM     21  F   UNL     1       3.583  -5.706  22.888  0.00  0.00    -0.166 F 
ENDBRANCH   4  18
BRANCH   2  22
ATOM     22  N   UNL     1       9.018  -3.539  24.772  0.00  0.00    +0.080 N 
ATOM     23  O   UNL     1       8.920  -2.701  25.668  0.00  0.00    +0.041 OA
ATOM     24  O   UNL     1       9.998  -4.285  24.612  0.00  0.00    -0.576 OA
ENDBRANCH   2  22
TORSDOF 4
ENDMDL
MODEL 6
REMARK VINA RESULT:      -6.6      4.063      5.538
REMARK  Name = 
REMARK  4 active torsions:
REMARK  status: ('A' for Active; 'I' for Inactive)
REMARK    1  A    between atoms: O_1  and  C_2
REMARK    2  A    between atoms: C_2  and  C_3
REMARK    3  A    between atoms: C_6  and  C_12
REMARK    4  A    between atoms: C_8  and  N_9
REMARK                            x       y       z     vdW  Elec       q    Type
REMARK                         _______ _______ _______ _____ _____    ______ ____
ROOT
ATOM      1  C   UNL     1       9.452   1.804  23.902  0.00  0.00    +0.094 A 
ATOM      2  C   UNL     1       8.374   1.108  23.309  0.00  0.00    +0.284 A 
ATOM      3  C   UNL     1       8.293  -0.305  23.392  0.00  0.00    +0.097 A 
ATOM      4  C   UNL     1       9.274  -1.048  24.070  0.00  0.00    +0.061 A 
ATOM      5  C   UNL     1      10.301  -0.354  24.720  0.00  0.00    +0.013 A 
ATOM      6  C   UNL     1      10.387   1.044  24.635  0.00  0.00    +0.019 A 
ENDROOT
BRANCH   1   7
ATOM      7  C   UNL     1       9.831   3.217  23.660  0.00  0.00    +0.144 C 
ATOM      8  C   UNL     1       9.316   4.328  24.228  0.00  0.00    +0.102 C 
ATOM      9  C   UNL     1       8.111   4.351  25.093  0.00  0.00    +0.170 C 
ATOM     10  O   UNL     1       7.924   3.517  25.977  0.00  0.00    -0.292 OA
ATOM     11  C   UNL     1       7.092   5.434  24.771  0.00  0.00    +0.080 C 
ATOM     12  C   UNL     1       7.744   6.783  24.478  0.00  0.00    +0.016 C 
ATOM     13  C   UNL     1       8.815   6.675  23.402  0.00  0.00    +0.080 C 
ATOM     14  C   UNL     1       9.850   5.655  23.815  0.00  0.00    +0.170 C 
ATOM     15  O   UNL     1      11.048   5.929  23.842  0.00  0.00    -0.292 OA
BRANCH   7  16
ATOM     16  O   UNL     1      10.841   3.347  22.709  0.00  0.00    -0.505 OA
ATOM     17  H   UNL     1      10.873   4.257  22.365  0.00  0.00    +0.292 HD
ENDBRANCH   7  16
ENDBRANCH   1   7
BRANCH   4  18
ATOM     18  C   UNL     1       9.233  -2.563  24.059  0.00  0.00    +0.418 C 
ATOM     19  F   UNL     1       8.703  -3.063  25.208  0.00  0.00    -0.166 F 
ATOM     20  F   UNL     1      10.469  -3.118  23.940  0.00  0.00    -0.166 F 
ATOM     21  F   UNL     1       8.485  -3.079  23.047  0.00  0.00    -0.166 F 
ENDBRANCH   4  18
BRANCH   2  22
ATOM     22  N   UNL     1       7.312   1.793  22.543  0.00  0.00    +0.080 N 
ATOM     23  O   UNL     1       6.262   2.057  23.129  0.00  0.00    +0.041 OA
ATOM     24  O   UNL     1       7.539   2.065  21.353  0.00  0.00    -0.576 OA
ENDBRANCH   2  22
TORSDOF 4
ENDMDL
MODEL 7
REMARK VINA RESULT:      -6.6      3.013      3.940
REMARK  Name = 
REMARK  4 active torsions:
REMARK  status: ('A' for Active; 'I' for Inactive)
REMARK    1  A    between atoms: O_1  and  C_2
REMARK    2  A    between atoms: C_2  and  C_3
REMARK    3  A    between atoms: C_6  and  C_12
REMARK    4  A    between atoms: C_8  and  N_9
REMARK                            x       y       z     vdW  Elec       q    Type
REMARK                         _______ _______ _______ _____ _____    ______ ____
ROOT
ATOM      1  C   UNL     1       8.807  -0.713  24.780  0.00  0.00    +0.094 A 
ATOM      2  C   UNL     1       9.222  -1.710  23.867  0.00  0.00    +0.284 A 
ATOM      3  C   UNL     1       9.272  -3.071  24.258  0.00  0.00    +0.097 A 
ATOM      4  C   UNL     1       8.905  -3.466  25.556  0.00  0.00    +0.061 A 
ATOM      5  C   UNL     1       8.425  -2.489  26.436  0.00  0.00    +0.013 A 
ATOM      6  C   UNL     1       8.379  -1.140  26.054  0.00  0.00    +0.019 A 
ENDROOT
BRANCH   1   7
ATOM      7  C   UNL     1       8.975   0.753  24.625  0.00  0.00    +0.144 C 
ATOM      8  C   UNL     1       8.078   1.652  24.170  0.00  0.00    +0.102 C 
ATOM      9  C   UNL     1       6.775   1.304  23.551  0.00  0.00    +0.170 C 
ATOM     10  O   UNL     1       6.038   0.440  24.021  0.00  0.00    -0.292 OA
ATOM     11  C   UNL     1       6.444   2.039  22.261  0.00  0.00    +0.080 C 
ATOM     12  C   UNL     1       6.789   3.525  22.330  0.00  0.00    +0.016 C 
ATOM     13  C   UNL     1       8.231   3.756  22.758  0.00  0.00    +0.080 C 
ATOM     14  C   UNL     1       8.480   3.083  24.088  0.00  0.00    +0.170 C 
ATOM     15  O   UNL     1       8.946   3.701  25.043  0.00  0.00    -0.292 OA
BRANCH   7  16
ATOM     16  O   UNL     1      10.244   1.190  24.999  0.00  0.00    -0.505 OA
ATOM     17  H   UNL     1      10.764   1.445  24.218  0.00  0.00    +0.292 HD
ENDBRANCH   7  16
ENDBRANCH   1   7
BRANCH   4  18
ATOM     18  C   UNL     1       9.066  -4.908  25.993  0.00  0.00    +0.418 C 
ATOM     19  F   UNL     1      10.369  -5.223  26.228  0.00  0.00    -0.166 F 
ATOM     20  F   UNL     1       8.629  -5.790  25.054  0.00  0.00    -0.166 F 
ATOM     21  F   UNL     1       8.397  -5.208  27.138  0.00  0.00    -0.166 F 
ENDBRANCH   4  18
BRANCH   2  22
ATOM     22  N   UNL     1       9.662  -1.393  22.493  0.00  0.00    +0.080 N 
ATOM     23  O   UNL     1      10.831  -1.642  22.194  0.00  0.00    +0.041 OA
ATOM     24  O   UNL     1       8.830  -0.895  21.718  0.00  0.00    -0.576 OA
ENDBRANCH   2  22
TORSDOF 4
ENDMDL
MODEL 8
REMARK VINA RESULT:      -6.5      3.509      6.060
REMARK  Name = 
REMARK  4 active torsions:
REMARK  status: ('A' for Active; 'I' for Inactive)
REMARK    1  A    between atoms: O_1  and  C_2
REMARK    2  A    between atoms: C_2  and  C_3
REMARK    3  A    between atoms: C_6  and  C_12
REMARK    4  A    between atoms: C_8  and  N_9
REMARK                            x       y       z     vdW  Elec       q    Type
REMARK                         _______ _______ _______ _____ _____    ______ ____
ROOT
ATOM      1  C   UNL     1       7.432  -3.464  25.019  0.00  0.00    +0.094 A 
ATOM      2  C   UNL     1       8.839  -3.586  24.940  0.00  0.00    +0.284 A 
ATOM      3  C   UNL     1       9.588  -2.761  24.064  0.00  0.00    +0.097 A 
ATOM      4  C   UNL     1       8.956  -1.799  23.257  0.00  0.00    +0.061 A 
ATOM      5  C   UNL     1       7.573  -1.627  23.389  0.00  0.00    +0.013 A 
ATOM      6  C   UNL     1       6.828  -2.446  24.252  0.00  0.00    +0.019 A 
ENDROOT
BRANCH   1   7
ATOM      7  C   UNL     1       6.496  -4.425  25.650  0.00  0.00    +0.144 C 
ATOM      8  C   UNL     1       5.814  -5.432  25.066  0.00  0.00    +0.102 C 
ATOM      9  C   UNL     1       5.733  -5.657  23.601  0.00  0.00    +0.170 C 
ATOM     10  O   UNL     1       6.719  -5.575  22.872  0.00  0.00    -0.292 OA
ATOM     11  C   UNL     1       4.340  -5.930  23.055  0.00  0.00    +0.080 C 
ATOM     12  C   UNL     1       3.545  -6.892  23.936  0.00  0.00    +0.016 C 
ATOM     13  C   UNL     1       3.504  -6.433  25.386  0.00  0.00    +0.080 C 
ATOM     14  C   UNL     1       4.912  -6.267  25.907  0.00  0.00    +0.170 C 
ATOM     15  O   UNL     1       5.287  -6.823  26.937  0.00  0.00    -0.292 OA
BRANCH   7  16
ATOM     16  O   UNL     1       6.334  -4.199  27.016  0.00  0.00    -0.505 OA
ATOM     17  H   UNL     1       5.708  -3.470  27.171  0.00  0.00    +0.292 HD
ENDBRANCH   7  16
ENDBRANCH   1   7
BRANCH   4  18
ATOM     18  C   UNL     1       9.756  -1.000  22.248  0.00  0.00    +0.418 C 
ATOM     19  F   UNL     1      10.967  -1.568  21.999  0.00  0.00    -0.166 F 
ATOM     20  F   UNL     1      10.013   0.267  22.671  0.00  0.00    -0.166 F 
ATOM     21  F   UNL     1       9.143  -0.881  21.040  0.00  0.00    -0.166 F 
ENDBRANCH   4  18
BRANCH   2  22
ATOM     22  N   UNL     1       9.592  -4.591  25.718  0.00  0.00    +0.080 N 
ATOM     23  O   UNL     1      10.421  -5.276  25.118  0.00  0.00    +0.041 OA
ATOM     24  O   UNL     1       9.348  -4.687  26.932  0.00  0.00    -0.576 OA
ENDBRANCH   2  22
TORSDOF 4
ENDMDL
MODEL 9
REMARK VINA RESULT:      -6.5      1.957      2.937
REMARK  Name = 
REMARK  4 active torsions:
REMARK  status: ('A' for Active; 'I' for Inactive)
REMARK    1  A    between atoms: O_1  and  C_2
REMARK    2  A    between atoms: C_2  and  C_3
REMARK    3  A    between atoms: C_6  and  C_12
REMARK    4  A    between atoms: C_8  and  N_9
REMARK                            x       y       z     vdW  Elec       q    Type
REMARK                         _______ _______ _______ _____ _____    ______ ____
ROOT
ATOM      1  C   UNL     1       7.126  -1.846  23.250  0.00  0.00    +0.094 A 
ATOM      2  C   UNL     1       6.309  -2.317  24.303  0.00  0.00    +0.284 A 
ATOM      3  C   UNL     1       5.802  -3.640  24.289  0.00  0.00    +0.097 A 
ATOM      4  C   UNL     1       6.101  -4.519  23.233  0.00  0.00    +0.061 A 
ATOM      5  C   UNL     1       6.969  -4.077  22.228  0.00  0.00    +0.013 A 
ATOM      6  C   UNL     1       7.469  -2.766  22.238  0.00  0.00    +0.019 A 
ENDROOT
BRANCH   1   7
ATOM      7  C   UNL     1       7.486  -0.434  22.974  0.00  0.00    +0.144 C 
ATOM      8  C   UNL     1       8.701   0.146  23.049  0.00  0.00    +0.102 C 
ATOM      9  C   UNL     1       9.911  -0.500  23.615  0.00  0.00    +0.170 C 
ATOM     10  O   UNL     1      10.213  -1.663  23.357  0.00  0.00    -0.292 OA
ATOM     11  C   UNL     1      10.716   0.350  24.587  0.00  0.00    +0.080 C 
ATOM     12  C   UNL     1      10.876   1.791  24.110  0.00  0.00    +0.016 C 
ATOM     13  C   UNL     1       9.537   2.431  23.774  0.00  0.00    +0.080 C 
ATOM     14  C   UNL     1       8.821   1.597  22.737  0.00  0.00    +0.170 C 
ATOM     15  O   UNL     1       8.405   2.090  21.690  0.00  0.00    -0.292 OA
BRANCH   7  16
ATOM     16  O   UNL     1       6.386   0.340  22.610  0.00  0.00    -0.505 OA
ATOM     17  H   UNL     1       5.560  -0.164  22.720  0.00  0.00    +0.292 HD
ENDBRANCH   7  16
ENDBRANCH   1   7
BRANCH   4  18
ATOM     18  C   UNL     1       5.465  -5.893  23.176  0.00  0.00    +0.418 C 
ATOM     19  F   UNL     1       6.203  -6.762  22.434  0.00  0.00    -0.166 F 
ATOM     20  F   UNL     1       4.227  -5.872  22.613  0.00  0.00    -0.166 F 
ATOM     21  F   UNL     1       5.318  -6.475  24.396  0.00  0.00    -0.166 F 
ENDBRANCH   4  18
BRANCH   2  22
ATOM     22  N   UNL     1       5.906  -1.460  25.438  0.00  0.00    +0.080 N 
ATOM     23  O   UNL     1       4.954  -0.697  25.270  0.00  0.00    +0.041 OA
ATOM     24  O   UNL     1       6.549  -1.559  26.496  0.00  0.00    -0.576 OA
ENDBRANCH   2  22
TORSDOF 4
ENDMDL
