MODEL 1
REMARK VINA RESULT:      -5.5      0.000      0.000
REMARK  Name = 
REMARK  3 active torsions:
REMARK  status: ('A' for Active; 'I' for Inactive)
REMARK    1  A    between atoms: C_1  and  S_2
REMARK    2  A    between atoms: S_2  and  N_5
REMARK    3  A    between atoms: N_5  and  C_6
REMARK                            x       y       z     vdW  Elec       q    Type
REMARK                         _______ _______ _______ _____ _____    ______ ____
ROOT
ATOM      1  C   UNL     1       8.484  -2.624  23.838  0.00  0.00    +0.074 A 
ATOM      2  C   UNL     1       7.671  -3.487  23.092  0.00  0.00    +0.093 A 
ATOM      3  N   UNL     1       6.880  -3.002  22.104  0.00  0.00    -0.253 NA
ATOM      4  C   UNL     1       6.144  -3.880  21.388  0.00  0.00    +0.111 A 
ATOM      5  C   UNL     1       6.148  -5.244  21.604  0.00  0.00    +0.020 A 
ATOM      6  C   UNL     1       6.949  -5.740  22.625  0.00  0.00    +0.011 A 
ATOM      7  C   UNL     1       7.728  -4.864  23.392  0.00  0.00    +0.002 A 
ATOM      8  C   UNL     1       8.557  -5.333  24.427  0.00  0.00    +0.010 A 
ATOM      9  C   UNL     1       9.346  -4.447  25.159  0.00  0.00    +0.003 A 
ATOM     10  C   UNL     1       9.320  -3.091  24.855  0.00  0.00    +0.026 A 
ENDROOT
BRANCH   1  11
ATOM     11  N   UNL     1       8.521  -1.223  23.498  0.00  0.00    -0.219 N 
ATOM     12  H   UNL     1       7.719  -0.950  22.925  0.00  0.00    +0.173 HD
BRANCH  11  14
ATOM     13  C   UNL     1       9.384   0.514  21.573  0.00  0.00    +0.218 C 
ATOM     14  S   UNL     1       9.952  -0.660  22.791  0.00  0.00    +0.040 S 
ATOM     15  O   UNL     1      10.636   0.096  23.820  0.00  0.00    -0.155 OA
ATOM     16  O   UNL     1      10.612  -1.750  22.103  0.00  0.00    -0.155 OA
ENDBRANCH  11  14
ENDBRANCH   1  11
TORSDOF 2
ENDMDL
MODEL 2
REMARK VINA RESULT:      -5.3      3.020      4.850
REMARK  Name = 
REMARK  3 active torsions:
REMARK  status: ('A' for Active; 'I' for Inactive)
REMARK    1  A    between atoms: C_1  and  S_2
REMARK    2  A    between atoms: S_2  and  N_5
REMARK    3  A    between atoms: N_5  and  C_6
REMARK                            x       y       z     vdW  Elec       q    Type
REMARK                         _______ _______ _______ _____ _____    ______ ____
ROOT
ATOM      1  C   UNL     1       8.350  -2.060  24.641  0.00  0.00    +0.074 A 
ATOM      2  C   UNL     1       8.875  -1.195  23.670  0.00  0.00    +0.093 A 
ATOM      3  N   UNL     1       8.835  -1.533  22.358  0.00  0.00    -0.253 NA
ATOM      4  C   UNL     1       9.318  -0.648  21.458  0.00  0.00    +0.111 A 
ATOM      5  C   UNL     1       9.852   0.580  21.797  0.00  0.00    +0.020 A 
ATOM      6  C   UNL     1       9.904   0.920  23.143  0.00  0.00    +0.011 A 
ATOM      7  C   UNL     1       9.414   0.032  24.109  0.00  0.00    +0.002 A 
ATOM      8  C   UNL     1       9.442   0.348  25.479  0.00  0.00    +0.010 A 
ATOM      9  C   UNL     1       8.924  -0.539  26.421  0.00  0.00    +0.003 A 
ATOM     10  C   UNL     1       8.364  -1.740  26.000  0.00  0.00    +0.026 A 
ENDROOT
BRANCH   1  11
ATOM     11  N   UNL     1       7.708  -3.281  24.222  0.00  0.00    -0.219 N 
ATOM     12  H   UNL     1       6.779  -3.384  24.639  0.00  0.00    +0.173 HD
BRANCH  11  14
ATOM     13  C   UNL     1       7.943  -5.387  25.948  0.00  0.00    +0.218 C 
ATOM     14  S   UNL     1       8.596  -4.706  24.433  0.00  0.00    +0.040 S 
ATOM     15  O   UNL     1       8.190  -5.593  23.362  0.00  0.00    -0.155 OA
ATOM     16  O   UNL     1       9.990  -4.380  24.642  0.00  0.00    -0.155 OA
ENDBRANCH  11  14
ENDBRANCH   1  11
TORSDOF 2
ENDMDL
MODEL 3
REMARK VINA RESULT:      -5.2      2.199      3.204
REMARK  Name = 
REMARK  3 active torsions:
REMARK  status: ('A' for Active; 'I' for Inactive)
REMARK    1  A    between atoms: C_1  and  S_2
REMARK    2  A    between atoms: S_2  and  N_5
REMARK    3  A    between atoms: N_5  and  C_6
REMARK                            x       y       z     vdW  Elec       q    Type
REMARK                         _______ _______ _______ _____ _____    ______ ____
ROOT
ATOM      1  C   UNL     1       7.349  -3.414  23.413  0.00  0.00    +0.074 A 
ATOM      2  C   UNL     1       6.871  -4.048  24.568  0.00  0.00    +0.093 A 
ATOM      3  N   UNL     1       7.036  -3.472  25.784  0.00  0.00    -0.253 NA
ATOM      4  C   UNL     1       6.522  -4.103  26.863  0.00  0.00    +0.111 A 
ATOM      5  C   UNL     1       5.842  -5.303  26.800  0.00  0.00    +0.020 A 
ATOM      6  C   UNL     1       5.685  -5.899  25.555  0.00  0.00    +0.011 A 
ATOM      7  C   UNL     1       6.201  -5.279  24.411  0.00  0.00    +0.002 A 
ATOM      8  C   UNL     1       6.053  -5.850  23.134  0.00  0.00    +0.010 A 
ATOM      9  C   UNL     1       6.550  -5.201  22.006  0.00  0.00    +0.003 A 
ATOM     10  C   UNL     1       7.188  -3.973  22.143  0.00  0.00    +0.026 A 
ENDROOT
BRANCH   1  11
ATOM     11  N   UNL     1       7.957  -2.112  23.525  0.00  0.00    -0.219 N 
ATOM     12  H   UNL     1       7.522  -1.434  22.894  0.00  0.00    +0.173 HD
BRANCH  11  14
ATOM     13  C   UNL     1      10.107  -0.638  24.346  0.00  0.00    +0.218 C 
ATOM     14  S   UNL     1       9.640  -2.053  23.363  0.00  0.00    +0.040 S 
ATOM     15  O   UNL     1      10.150  -3.226  24.043  0.00  0.00    -0.155 OA
ATOM     16  O   UNL     1       9.983  -1.784  21.983  0.00  0.00    -0.155 OA
ENDBRANCH  11  14
ENDBRANCH   1  11
TORSDOF 2
ENDMDL
MODEL 4
REMARK VINA RESULT:      -5.2      2.569      5.456
REMARK  Name = 
REMARK  3 active torsions:
REMARK  status: ('A' for Active; 'I' for Inactive)
REMARK    1  A    between atoms: C_1  and  S_2
REMARK    2  A    between atoms: S_2  and  N_5
REMARK    3  A    between atoms: N_5  and  C_6
REMARK                            x       y       z     vdW  Elec       q    Type
REMARK                         _______ _______ _______ _____ _____    ______ ____
ROOT
ATOM      1  C   UNL     1       9.208   0.070  23.932  0.00  0.00    +0.074 A 
ATOM      2  C   UNL     1       8.425   1.070  23.341  0.00  0.00    +0.093 A 
ATOM      3  N   UNL     1       7.150   0.810  22.963  0.00  0.00    -0.253 NA
ATOM      4  C   UNL     1       6.423   1.819  22.433  0.00  0.00    +0.111 A 
ATOM      5  C   UNL     1       6.905   3.100  22.251  0.00  0.00    +0.020 A 
ATOM      6  C   UNL     1       8.216   3.363  22.626  0.00  0.00    +0.011 A 
ATOM      7  C   UNL     1       9.004   2.346  23.180  0.00  0.00    +0.002 A 
ATOM      8  C   UNL     1      10.332   2.580  23.579  0.00  0.00    +0.010 A 
ATOM      9  C   UNL     1      11.089   1.560  24.153  0.00  0.00    +0.003 A 
ATOM     10  C   UNL     1      10.522   0.306  24.343  0.00  0.00    +0.026 A 
ENDROOT
BRANCH   1  11
ATOM     11  N   UNL     1       8.619  -1.219  24.197  0.00  0.00    -0.219 N 
ATOM     12  H   UNL     1       8.661  -1.459  25.191  0.00  0.00    +0.173 HD
BRANCH  11  14
ATOM     13  C   UNL     1       7.715  -3.426  22.863  0.00  0.00    +0.218 C 
ATOM     14  S   UNL     1       9.193  -2.511  23.267  0.00  0.00    +0.040 S 
ATOM     15  O   UNL     1       9.682  -1.931  22.034  0.00  0.00    -0.155 OA
ATOM     16  O   UNL     1      10.042  -3.353  24.083  0.00  0.00    -0.155 OA
ENDBRANCH  11  14
ENDBRANCH   1  11
TORSDOF 2
ENDMDL
MODEL 5
REMARK VINA RESULT:      -5.1      1.855      3.215
REMARK  Name = 
REMARK  3 active torsions:
REMARK  status: ('A' for Active; 'I' for Inactive)
REMARK    1  A    between atoms: C_1  and  S_2
REMARK    2  A    between atoms: S_2  and  N_5
REMARK    3  A    between atoms: N_5  and  C_6
REMARK                            x       y       z     vdW  Elec       q    Type
REMARK                         _______ _______ _______ _____ _____    ______ ____
ROOT
ATOM      1  C   UNL     1       7.679  -2.901  22.662  0.00  0.00    +0.074 A 
ATOM      2  C   UNL     1       7.976  -3.724  23.756  0.00  0.00    +0.093 A 
ATOM      3  N   UNL     1       9.253  -3.847  24.194  0.00  0.00    -0.253 NA
ATOM      4  C   UNL     1       9.483  -4.622  25.278  0.00  0.00    +0.111 A 
ATOM      5  C   UNL     1       8.493  -5.298  25.963  0.00  0.00    +0.020 A 
ATOM      6  C   UNL     1       7.187  -5.181  25.507  0.00  0.00    +0.011 A 
ATOM      7  C   UNL     1       6.904  -4.388  24.387  0.00  0.00    +0.002 A 
ATOM      8  C   UNL     1       5.592  -4.241  23.903  0.00  0.00    +0.010 A 
ATOM      9  C   UNL     1       5.330  -3.425  22.804  0.00  0.00    +0.003 A 
ATOM     10  C   UNL     1       6.373  -2.742  22.191  0.00  0.00    +0.026 A 
ENDROOT
BRANCH   1  11
ATOM     11  N   UNL     1       8.735  -2.135  22.050  0.00  0.00    -0.219 N 
ATOM     12  H   UNL     1       9.644  -2.593  22.150  0.00  0.00    +0.173 HD
BRANCH  11  14
ATOM     13  C   UNL     1      10.335  -0.470  23.513  0.00  0.00    +0.218 C 
ATOM     14  S   UNL     1       8.854  -0.513  22.519  0.00  0.00    +0.040 S 
ATOM     15  O   UNL     1       9.134   0.234  21.310  0.00  0.00    -0.155 OA
ATOM     16  O   UNL     1       7.728  -0.171  23.362  0.00  0.00    -0.155 OA
ENDBRANCH  11  14
ENDBRANCH   1  11
TORSDOF 2
ENDMDL
MODEL 6
REMARK VINA RESULT:      -5.0      3.677      4.919
REMARK  Name = 
REMARK  3 active torsions:
REMARK  status: ('A' for Active; 'I' for Inactive)
REMARK    1  A    between atoms: C_1  and  S_2
REMARK    2  A    between atoms: S_2  and  N_5
REMARK    3  A    between atoms: N_5  and  C_6
REMARK                            x       y       z     vdW  Elec       q    Type
REMARK                         _______ _______ _______ _____ _____    ______ ____
ROOT
ATOM      1  C   UNL     1       6.776  -4.456  24.722  0.00  0.00    +0.074 A 
ATOM      2  C   UNL     1       7.655  -3.600  24.045  0.00  0.00    +0.093 A 
ATOM      3  N   UNL     1       7.209  -2.825  23.026  0.00  0.00    -0.253 NA
ATOM      4  C   UNL     1       8.087  -1.988  22.431  0.00  0.00    +0.111 A 
ATOM      5  C   UNL     1       9.414  -1.877  22.797  0.00  0.00    +0.020 A 
ATOM      6  C   UNL     1       9.873  -2.680  23.833  0.00  0.00    +0.011 A 
ATOM      7  C   UNL     1       8.997  -3.562  24.478  0.00  0.00    +0.002 A 
ATOM      8  C   UNL     1       9.427  -4.383  25.536  0.00  0.00    +0.010 A 
ATOM      9  C   UNL     1       8.531  -5.233  26.182  0.00  0.00    +0.003 A 
ATOM     10  C   UNL     1       7.199  -5.259  25.784  0.00  0.00    +0.026 A 
ENDROOT
BRANCH   1  11
ATOM     11  N   UNL     1       5.379  -4.453  24.369  0.00  0.00    -0.219 N 
ATOM     12  H   UNL     1       4.778  -4.392  25.194  0.00  0.00    +0.173 HD
BRANCH  11  14
ATOM     13  C   UNL     1       4.306  -6.962  24.515  0.00  0.00    +0.218 C 
ATOM     14  S   UNL     1       4.856  -5.712  23.366  0.00  0.00    +0.040 S 
ATOM     15  O   UNL     1       3.679  -5.218  22.683  0.00  0.00    -0.155 OA
ATOM     16  O   UNL     1       5.982  -6.238  22.625  0.00  0.00    -0.155 OA
ENDBRANCH  11  14
ENDBRANCH   1  11
TORSDOF 2
ENDMDL
MODEL 7
REMARK VINA RESULT:      -5.0      3.242      4.998
REMARK  Name = 
REMARK  3 active torsions:
REMARK  status: ('A' for Active; 'I' for Inactive)
REMARK    1  A    between atoms: C_1  and  S_2
REMARK    2  A    between atoms: S_2  and  N_5
REMARK    3  A    between atoms: N_5  and  C_6
REMARK                            x       y       z     vdW  Elec       q    Type
REMARK                         _______ _______ _______ _____ _____    ______ ____
ROOT
ATOM      1  C   UNL     1       7.106  -2.663  23.494  0.00  0.00    +0.074 A 
ATOM      2  C   UNL     1       7.836  -1.637  22.878  0.00  0.00    +0.093 A 
ATOM      3  N   UNL     1       8.839  -1.932  22.016  0.00  0.00    -0.253 NA
ATOM      4  C   UNL     1       9.487  -0.908  21.417  0.00  0.00    +0.111 A 
ATOM      5  C   UNL     1       9.188   0.422  21.635  0.00  0.00    +0.020 A 
ATOM      6  C   UNL     1       8.168   0.724  22.528  0.00  0.00    +0.011 A 
ATOM      7  C   UNL     1       7.471  -0.307  23.169  0.00  0.00    +0.002 A 
ATOM      8  C   UNL     1       6.427  -0.037  24.073  0.00  0.00    +0.010 A 
ATOM      9  C   UNL     1       5.728  -1.079  24.679  0.00  0.00    +0.003 A 
ATOM     10  C   UNL     1       6.059  -2.395  24.379  0.00  0.00    +0.026 A 
ENDROOT
BRANCH   1  11
ATOM     11  N   UNL     1       7.390  -4.033  23.149  0.00  0.00    -0.219 N 
ATOM     12  H   UNL     1       8.369  -4.163  22.882  0.00  0.00    +0.173 HD
BRANCH  11  14
ATOM     13  C   UNL     1       5.173  -5.622  22.969  0.00  0.00    +0.218 C 
ATOM     14  S   UNL     1       6.378  -4.740  21.991  0.00  0.00    +0.040 S 
ATOM     15  O   UNL     1       5.681  -3.646  21.347  0.00  0.00    -0.155 OA
ATOM     16  O   UNL     1       7.131  -5.703  21.216  0.00  0.00    -0.155 OA
ENDBRANCH  11  14
ENDBRANCH   1  11
TORSDOF 2
ENDMDL
MODEL 8
REMARK VINA RESULT:      -5.0      3.086      5.265
REMARK  Name = 
REMARK  3 active torsions:
REMARK  status: ('A' for Active; 'I' for Inactive)
REMARK    1  A    between atoms: C_1  and  S_2
REMARK    2  A    between atoms: S_2  and  N_5
REMARK    3  A    between atoms: N_5  and  C_6
REMARK                            x       y       z     vdW  Elec       q    Type
REMARK                         _______ _______ _______ _____ _____    ______ ____
ROOT
ATOM      1  C   UNL     1       7.873  -1.272  23.384  0.00  0.00    +0.074 A 
ATOM      2  C   UNL     1       7.681   0.015  22.863  0.00  0.00    +0.093 A 
ATOM      3  N   UNL     1       6.575   0.728  23.186  0.00  0.00    -0.253 NA
ATOM      4  C   UNL     1       6.455   1.979  22.689  0.00  0.00    +0.111 A 
ATOM      5  C   UNL     1       7.393   2.573  21.869  0.00  0.00    +0.020 A 
ATOM      6  C   UNL     1       8.521   1.838  21.527  0.00  0.00    +0.011 A 
ATOM      7  C   UNL     1       8.685   0.538  22.021  0.00  0.00    +0.002 A 
ATOM      8  C   UNL     1       9.818  -0.232  21.702  0.00  0.00    +0.010 A 
ATOM      9  C   UNL     1       9.974  -1.514  22.227  0.00  0.00    +0.003 A 
ATOM     10  C   UNL     1       9.006  -2.030  23.081  0.00  0.00    +0.026 A 
ENDROOT
BRANCH   1  11
ATOM     11  N   UNL     1       6.915  -1.802  24.321  0.00  0.00    -0.219 N 
ATOM     12  H   UNL     1       7.371  -2.238  25.126  0.00  0.00    +0.173 HD
BRANCH  11  14
ATOM     13  C   UNL     1       6.378  -4.470  24.071  0.00  0.00    +0.218 C 
ATOM     14  S   UNL     1       5.744  -2.846  23.687  0.00  0.00    +0.040 S 
ATOM     15  O   UNL     1       4.556  -2.654  24.494  0.00  0.00    -0.155 OA
ATOM     16  O   UNL     1       5.698  -2.703  22.247  0.00  0.00    -0.155 OA
ENDBRANCH  11  14
ENDBRANCH   1  11
TORSDOF 2
ENDMDL
MODEL 9
REMARK VINA RESULT:      -5.0      2.911      5.001
REMARK  Name = 
REMARK  3 active torsions:
REMARK  status: ('A' for Active; 'I' for Inactive)
REMARK    1  A    between atoms: C_1  and  S_2
REMARK    2  A    between atoms: S_2  and  N_5
REMARK    3  A    between atoms: N_5  and  C_6
REMARK                            x       y       z     vdW  Elec       q    Type
REMARK                         _______ _______ _______ _____ _____    ______ ____
ROOT
ATOM      1  C   UNL     1       7.956  -2.305  23.051  0.00  0.00    +0.074 A 
ATOM      2  C   UNL     1       8.126  -1.754  24.328  0.00  0.00    +0.093 A 
ATOM      3  N   UNL     1       7.250  -2.043  25.321  0.00  0.00    -0.253 NA
ATOM      4  C   UNL     1       7.479  -1.517  26.545  0.00  0.00    +0.111 A 
ATOM      5  C   UNL     1       8.551  -0.700  26.843  0.00  0.00    +0.020 A 
ATOM      6  C   UNL     1       9.441  -0.394  25.822  0.00  0.00    +0.011 A 
ATOM      7  C   UNL     1       9.242  -0.918  24.539  0.00  0.00    +0.002 A 
ATOM      8  C   UNL     1      10.128  -0.635  23.484  0.00  0.00    +0.010 A 
ATOM      9  C   UNL     1       9.925  -1.189  22.221  0.00  0.00    +0.003 A 
ATOM     10  C   UNL     1       8.845  -2.038  22.007  0.00  0.00    +0.026 A 
ENDROOT
BRANCH   1  11
ATOM     11  N   UNL     1       6.880  -3.237  22.824  0.00  0.00    -0.219 N 
ATOM     12  H   UNL     1       6.072  -3.037  23.419  0.00  0.00    +0.173 HD
BRANCH  11  14
ATOM     13  C   UNL     1       5.894  -5.592  23.799  0.00  0.00    +0.218 C 
ATOM     14  S   UNL     1       7.277  -4.879  22.924  0.00  0.00    +0.040 S 
ATOM     15  O   UNL     1       7.226  -5.387  21.568  0.00  0.00    -0.155 OA
ATOM     16  O   UNL     1       8.464  -5.041  23.736  0.00  0.00    -0.155 OA
ENDBRANCH  11  14
ENDBRANCH   1  11
TORSDOF 2
ENDMDL
