MODEL 1
REMARK VINA RESULT:      -7.2      0.000      0.000
REMARK  Name = 
REMARK  10 active torsions:
REMARK  status: ('A' for Active; 'I' for Inactive)
REMARK    1  A    between atoms: N_8  and  C_9
REMARK    2  A    between atoms: C_12  and  C_14
REMARK    3  A    between atoms: C_14  and  O_15
REMARK    4  A    between atoms: O_15  and  P_16
REMARK    5  A    between atoms: P_16  and  O_17
REMARK    6  A    between atoms: P_16  and  O_19
REMARK    7  A    between atoms: O_19  and  P_20
REMARK    8  A    between atoms: P_20  and  O_21
REMARK    9  A    between atoms: P_20  and  O_22
REMARK   10  A    between atoms: P_27  and  O_28
REMARK                            x       y       z     vdW  Elec       q    Type
REMARK                         _______ _______ _______ _____ _____    ______ ____
ROOT
ATOM      1  C   UNL     1       8.144  -2.869  24.427  0.00  0.00    +0.254 C 
ATOM      2  C   UNL     1       8.881  -4.061  25.068  0.00  0.00    +0.212 C 
ATOM      3  C   UNL     1       8.087  -5.264  24.570  0.00  0.00    +0.195 C 
ATOM      4  O   UNL     1       6.956  -5.376  25.445  0.00  0.00    -0.278 OA
ATOM      5  P   UNL     1       7.328  -4.750  26.889  0.00  0.00    +0.476 P 
ATOM      6  O   UNL     1       6.294  -3.873  27.506  0.00  0.00    -0.227 OA
ATOM      7  C   UNL     1       7.645  -4.811  23.202  0.00  0.00    +0.179 C 
ATOM      8  O   UNL     1       8.750  -4.094  26.495  0.00  0.00    -0.276 OA
ATOM      9  O   UNL     1       7.254  -3.437  23.425  0.00  0.00    -0.346 OA
ENDROOT
BRANCH   1  21
ATOM     10  N   UNL     1       8.003   2.298  25.928  0.00  0.00    -0.329 N 
ATOM     11  H   UNL     1       8.390   3.225  26.046  0.00  0.00    +0.145 HD
ATOM     12  H   UNL     1       7.768   1.828  26.796  0.00  0.00    +0.145 HD
ATOM     13  C   UNL     1       8.522   1.482  24.977  0.00  0.00    +0.195 A 
ATOM     14  N   UNL     1       9.172   2.128  23.943  0.00  0.00    -0.293 N 
ATOM     15  H   UNL     1       9.192   3.132  23.898  0.00  0.00    +0.172 HD
ATOM     16  C   UNL     1       9.769   1.491  22.867  0.00  0.00    +0.280 A 
ATOM     17  O   UNL     1      10.304   2.120  21.961  0.00  0.00    -0.265 OA
ATOM     18  C   UNL     1       9.650   0.052  22.953  0.00  0.00    +0.172 A 
ATOM     19  N   UNL     1      10.093  -0.909  22.095  0.00  0.00    -0.229 NA
ATOM     20  C   UNL     1       9.643  -2.032  22.608  0.00  0.00    +0.203 A 
ATOM     21  N   UNL     1       8.941  -1.836  23.782  0.00  0.00    -0.285 N 
ATOM     22  C   UNL     1       8.967  -0.487  24.025  0.00  0.00    +0.171 A 
ATOM     23  N   UNL     1       8.403   0.182  25.065  0.00  0.00    -0.196 NA
ENDBRANCH   1  21
BRANCH   5  24
ATOM     24  O   UNL     1       7.691  -6.079  27.685  0.00  0.00    -0.302 OA
ATOM     25  H   UNL     1       7.941  -5.860  28.602  0.00  0.00    +0.222 HD
ENDBRANCH   5  24
BRANCH   7  26
ATOM     26  C   UNL     1       6.486  -5.623  22.615  0.00  0.00    +0.206 C 
BRANCH  26  27
ATOM     27  O   UNL     1       5.282  -4.957  22.947  0.00  0.00    -0.284 OA
BRANCH  27  28
ATOM     28  P   UNL     1       4.027  -5.697  23.686  0.00  0.00    +0.483 P 
ATOM     29  O   UNL     1       3.044  -6.224  22.641  0.00  0.00    -0.227 OA
BRANCH  28  30
ATOM     30  O   UNL     1       4.847  -7.218  23.601  0.00  0.00    -0.302 OA
ATOM     31  H   UNL     1       4.177  -7.888  23.841  0.00  0.00    +0.222 HD
ENDBRANCH  28  30
BRANCH  28  32
ATOM     32  O   UNL     1       3.207  -4.175  23.770  0.00  0.00    -0.186 OA
BRANCH  32  33
ATOM     33  P   UNL     1       3.274  -3.573  25.391  0.00  0.00    +0.481 P 
ATOM     34  O   UNL     1       3.332  -3.036  26.842  0.00  0.00    -0.227 OA
BRANCH  33  35
ATOM     35  O   UNL     1       4.733  -2.962  24.959  0.00  0.00    -0.302 OA
ATOM     36  H   UNL     1       4.924  -2.113  25.393  0.00  0.00    +0.222 HD
ENDBRANCH  33  35
BRANCH  33  37
ATOM     37  O   UNL     1       3.883  -5.039  25.767  0.00  0.00    -0.302 OA
ATOM     38  H   UNL     1       3.224  -5.702  25.487  0.00  0.00    +0.222 HD
ENDBRANCH  33  37
ENDBRANCH  32  33
ENDBRANCH  28  32
ENDBRANCH  27  28
ENDBRANCH  26  27
ENDBRANCH   7  26
TORSDOF 10
ENDMDL
MODEL 2
REMARK VINA RESULT:      -7.0      1.675      2.472
REMARK  Name = 
REMARK  10 active torsions:
REMARK  status: ('A' for Active; 'I' for Inactive)
REMARK    1  A    between atoms: N_8  and  C_9
REMARK    2  A    between atoms: C_12  and  C_14
REMARK    3  A    between atoms: C_14  and  O_15
REMARK    4  A    between atoms: O_15  and  P_16
REMARK    5  A    between atoms: P_16  and  O_17
REMARK    6  A    between atoms: P_16  and  O_19
REMARK    7  A    between atoms: O_19  and  P_20
REMARK    8  A    between atoms: P_20  and  O_21
REMARK    9  A    between atoms: P_20  and  O_22
REMARK   10  A    between atoms: P_27  and  O_28
REMARK                            x       y       z     vdW  Elec       q    Type
REMARK                         _______ _______ _______ _____ _____    ______ ____
ROOT
ATOM      1  C   UNL     1       7.490  -2.057  24.847  0.00  0.00    +0.254 C 
ATOM      2  C   UNL     1       8.750  -2.688  24.225  0.00  0.00    +0.212 C 
ATOM      3  C   UNL     1       8.180  -3.610  23.151  0.00  0.00    +0.195 C 
ATOM      4  O   UNL     1       7.802  -4.815  23.831  0.00  0.00    -0.278 OA
ATOM      5  P   UNL     1       8.719  -5.000  25.149  0.00  0.00    +0.476 P 
ATOM      6  O   UNL     1       8.005  -5.413  26.390  0.00  0.00    -0.227 OA
ATOM      7  C   UNL     1       6.953  -2.856  22.704  0.00  0.00    +0.179 C 
ATOM      8  O   UNL     1       9.443  -3.557  25.130  0.00  0.00    -0.276 OA
ATOM      9  O   UNL     1       6.392  -2.380  23.948  0.00  0.00    -0.346 OA
ENDROOT
BRANCH   1  21
ATOM     10  N   UNL     1       9.068   1.482  21.110  0.00  0.00    -0.329 N 
ATOM     11  H   UNL     1       9.064   2.379  20.644  0.00  0.00    +0.145 HD
ATOM     12  H   UNL     1       8.747   0.709  20.536  0.00  0.00    +0.145 HD
ATOM     13  C   UNL     1       8.678   1.409  22.407  0.00  0.00    +0.195 A 
ATOM     14  N   UNL     1       8.786   2.590  23.117  0.00  0.00    -0.293 N 
ATOM     15  H   UNL     1       9.182   3.410  22.691  0.00  0.00    +0.172 HD
ATOM     16  C   UNL     1       8.448   2.740  24.452  0.00  0.00    +0.280 A 
ATOM     17  O   UNL     1       8.596   3.806  25.039  0.00  0.00    -0.265 OA
ATOM     18  C   UNL     1       7.949   1.511  25.029  0.00  0.00    +0.172 A 
ATOM     19  N   UNL     1       7.528   1.255  26.300  0.00  0.00    -0.229 NA
ATOM     20  C   UNL     1       7.265  -0.033  26.299  0.00  0.00    +0.203 A 
ATOM     21  N   UNL     1       7.479  -0.618  25.066  0.00  0.00    -0.285 N 
ATOM     22  C   UNL     1       7.896   0.386  24.230  0.00  0.00    +0.171 A 
ATOM     23  N   UNL     1       8.232   0.290  22.916  0.00  0.00    -0.196 NA
ENDBRANCH   1  21
BRANCH   5  24
ATOM     24  O   UNL     1       9.809  -6.017  24.591  0.00  0.00    -0.302 OA
ATOM     25  H   UNL     1      10.242  -5.641  23.802  0.00  0.00    +0.222 HD
ENDBRANCH   5  24
BRANCH   7  26
ATOM     26  C   UNL     1       5.938  -3.709  21.935  0.00  0.00    +0.206 C 
BRANCH  26  27
ATOM     27  O   UNL     1       4.763  -3.792  22.719  0.00  0.00    -0.284 OA
BRANCH  27  28
ATOM     28  P   UNL     1       4.263  -5.172  23.435  0.00  0.00    +0.483 P 
ATOM     29  O   UNL     1       3.148  -5.814  22.610  0.00  0.00    -0.227 OA
BRANCH  28  30
ATOM     30  O   UNL     1       5.400  -6.089  22.509  0.00  0.00    -0.302 OA
ATOM     31  H   UNL     1       5.811  -6.709  23.142  0.00  0.00    +0.222 HD
ENDBRANCH  28  30
BRANCH  28  32
ATOM     32  O   UNL     1       3.126  -4.254  24.362  0.00  0.00    -0.186 OA
BRANCH  32  33
ATOM     33  P   UNL     1       3.763  -3.977  25.946  0.00  0.00    +0.481 P 
ATOM     34  O   UNL     1       4.333  -3.729  27.364  0.00  0.00    -0.227 OA
BRANCH  33  35
ATOM     35  O   UNL     1       4.092  -2.465  25.400  0.00  0.00    -0.302 OA
ATOM     36  H   UNL     1       4.411  -2.464  24.481  0.00  0.00    +0.222 HD
ENDBRANCH  33  35
BRANCH  33  37
ATOM     37  O   UNL     1       5.147  -4.603  25.353  0.00  0.00    -0.302 OA
ATOM     38  H   UNL     1       5.636  -4.980  26.110  0.00  0.00    +0.222 HD
ENDBRANCH  33  37
ENDBRANCH  32  33
ENDBRANCH  28  32
ENDBRANCH  27  28
ENDBRANCH  26  27
ENDBRANCH   7  26
TORSDOF 10
ENDMDL
MODEL 3
REMARK VINA RESULT:      -7.0      2.424      4.339
REMARK  Name = 
REMARK  10 active torsions:
REMARK  status: ('A' for Active; 'I' for Inactive)
REMARK    1  A    between atoms: N_8  and  C_9
REMARK    2  A    between atoms: C_12  and  C_14
REMARK    3  A    between atoms: C_14  and  O_15
REMARK    4  A    between atoms: O_15  and  P_16
REMARK    5  A    between atoms: P_16  and  O_17
REMARK    6  A    between atoms: P_16  and  O_19
REMARK    7  A    between atoms: O_19  and  P_20
REMARK    8  A    between atoms: P_20  and  O_21
REMARK    9  A    between atoms: P_20  and  O_22
REMARK   10  A    between atoms: P_27  and  O_28
REMARK                            x       y       z     vdW  Elec       q    Type
REMARK                         _______ _______ _______ _____ _____    ______ ____
ROOT
ATOM      1  C   UNL     1       8.038  -1.356  24.177  0.00  0.00    +0.254 C 
ATOM      2  C   UNL     1       6.676  -1.237  23.467  0.00  0.00    +0.212 C 
ATOM      3  C   UNL     1       5.736  -2.002  24.393  0.00  0.00    +0.195 C 
ATOM      4  O   UNL     1       5.894  -3.387  24.053  0.00  0.00    -0.278 OA
ATOM      5  P   UNL     1       6.355  -3.513  22.508  0.00  0.00    +0.476 P 
ATOM      6  O   UNL     1       7.451  -4.483  22.230  0.00  0.00    -0.227 OA
ATOM      7  C   UNL     1       6.333  -1.728  25.750  0.00  0.00    +0.179 C 
ATOM      8  O   UNL     1       6.631  -1.948  22.223  0.00  0.00    -0.276 OA
ATOM      9  O   UNL     1       7.753  -1.858  25.513  0.00  0.00    -0.346 OA
ENDROOT
BRANCH   1  21
ATOM     10  N   UNL     1       6.758   3.320  21.837  0.00  0.00    -0.329 N 
ATOM     11  H   UNL     1       6.745   4.328  21.760  0.00  0.00    +0.145 HD
ATOM     12  H   UNL     1       5.844   2.896  21.958  0.00  0.00    +0.145 HD
ATOM     13  C   UNL     1       7.745   2.725  22.553  0.00  0.00    +0.195 A 
ATOM     14  N   UNL     1       8.899   3.473  22.693  0.00  0.00    -0.293 N 
ATOM     15  H   UNL     1       8.989   4.365  22.238  0.00  0.00    +0.172 HD
ATOM     16  C   UNL     1      10.029   3.058  23.378  0.00  0.00    +0.280 A 
ATOM     17  O   UNL     1      11.036   3.753  23.441  0.00  0.00    -0.265 OA
ATOM     18  C   UNL     1       9.863   1.741  23.953  0.00  0.00    +0.172 A 
ATOM     19  N   UNL     1      10.740   0.994  24.682  0.00  0.00    -0.229 NA
ATOM     20  C   UNL     1      10.112  -0.144  24.874  0.00  0.00    +0.203 A 
ATOM     21  N   UNL     1       8.848  -0.155  24.314  0.00  0.00    -0.285 N 
ATOM     22  C   UNL     1       8.671   1.077  23.739  0.00  0.00    +0.171 A 
ATOM     23  N   UNL     1       7.583   1.532  23.064  0.00  0.00    -0.196 NA
ENDBRANCH   1  21
BRANCH   5  24
ATOM     24  O   UNL     1       4.952  -3.817  21.821  0.00  0.00    -0.302 OA
ATOM     25  H   UNL     1       4.968  -4.702  21.410  0.00  0.00    +0.222 HD
ENDBRANCH   5  24
BRANCH   7  26
ATOM     26  C   UNL     1       5.869  -2.692  26.847  0.00  0.00    +0.206 C 
BRANCH  26  27
ATOM     27  O   UNL     1       6.966  -3.521  27.183  0.00  0.00    -0.284 OA
BRANCH  27  28
ATOM     28  P   UNL     1       6.971  -5.137  26.942  0.00  0.00    +0.483 P 
ATOM     29  O   UNL     1       6.742  -5.863  28.266  0.00  0.00    -0.227 OA
BRANCH  28  30
ATOM     30  O   UNL     1       5.256  -5.129  26.714  0.00  0.00    -0.302 OA
ATOM     31  H   UNL     1       4.918  -4.434  27.312  0.00  0.00    +0.222 HD
ENDBRANCH  28  30
BRANCH  28  32
ATOM     32  O   UNL     1       8.687  -5.143  27.170  0.00  0.00    -0.186 OA
BRANCH  32  33
ATOM     33  P   UNL     1       9.464  -4.644  25.707  0.00  0.00    +0.481 P 
ATOM     34  O   UNL     1      10.161  -4.197  24.399  0.00  0.00    -0.227 OA
BRANCH  33  35
ATOM     35  O   UNL     1       8.006  -4.908  25.003  0.00  0.00    -0.302 OA
ATOM     36  H   UNL     1       7.725  -5.836  25.070  0.00  0.00    +0.222 HD
ENDBRANCH  33  35
BRANCH  33  37
ATOM     37  O   UNL     1       9.925  -6.203  25.577  0.00  0.00    -0.302 OA
ATOM     38  H   UNL     1       9.283  -6.641  24.985  0.00  0.00    +0.222 HD
ENDBRANCH  33  37
ENDBRANCH  32  33
ENDBRANCH  28  32
ENDBRANCH  27  28
ENDBRANCH  26  27
ENDBRANCH   7  26
TORSDOF 10
ENDMDL
MODEL 4
REMARK VINA RESULT:      -7.0      1.809      2.639
REMARK  Name = 
REMARK  10 active torsions:
REMARK  status: ('A' for Active; 'I' for Inactive)
REMARK    1  A    between atoms: N_8  and  C_9
REMARK    2  A    between atoms: C_12  and  C_14
REMARK    3  A    between atoms: C_14  and  O_15
REMARK    4  A    between atoms: O_15  and  P_16
REMARK    5  A    between atoms: P_16  and  O_17
REMARK    6  A    between atoms: P_16  and  O_19
REMARK    7  A    between atoms: O_19  and  P_20
REMARK    8  A    between atoms: P_20  and  O_21
REMARK    9  A    between atoms: P_20  and  O_22
REMARK   10  A    between atoms: P_27  and  O_28
REMARK                            x       y       z     vdW  Elec       q    Type
REMARK                         _______ _______ _______ _____ _____    ______ ____
ROOT
ATOM      1  C   UNL     1       7.321  -2.354  24.675  0.00  0.00    +0.254 C 
ATOM      2  C   UNL     1       8.398  -3.160  23.924  0.00  0.00    +0.212 C 
ATOM      3  C   UNL     1       7.658  -4.430  23.518  0.00  0.00    +0.195 C 
ATOM      4  O   UNL     1       7.690  -5.286  24.668  0.00  0.00    -0.278 OA
ATOM      5  P   UNL     1       8.993  -4.940  25.561  0.00  0.00    +0.476 P 
ATOM      6  O   UNL     1       8.772  -4.855  27.032  0.00  0.00    -0.227 OA
ATOM      7  C   UNL     1       6.257  -3.922  23.286  0.00  0.00    +0.179 C 
ATOM      8  O   UNL     1       9.458  -3.606  24.780  0.00  0.00    -0.276 OA
ATOM      9  O   UNL     1       6.054  -3.012  24.390  0.00  0.00    -0.346 OA
ENDROOT
BRANCH   1  21
ATOM     10  N   UNL     1      11.487   1.048  24.454  0.00  0.00    -0.329 N 
ATOM     11  H   UNL     1      11.979   1.867  24.124  0.00  0.00    +0.145 HD
ATOM     12  H   UNL     1      11.931   0.167  24.215  0.00  0.00    +0.145 HD
ATOM     13  C   UNL     1      10.132   1.021  24.393  0.00  0.00    +0.195 A 
ATOM     14  N   UNL     1       9.524   2.262  24.360  0.00  0.00    -0.293 N 
ATOM     15  H   UNL     1      10.070   3.103  24.435  0.00  0.00    +0.172 HD
ATOM     16  C   UNL     1       8.155   2.468  24.301  0.00  0.00    +0.280 A 
ATOM     17  O   UNL     1       7.671   3.594  24.307  0.00  0.00    -0.265 OA
ATOM     18  C   UNL     1       7.420   1.222  24.263  0.00  0.00    +0.172 A 
ATOM     19  N   UNL     1       6.074   1.009  24.213  0.00  0.00    -0.229 NA
ATOM     20  C   UNL     1       5.952  -0.297  24.284  0.00  0.00    +0.203 A 
ATOM     21  N   UNL     1       7.173  -0.942  24.357  0.00  0.00    -0.285 N 
ATOM     22  C   UNL     1       8.130   0.039  24.315  0.00  0.00    +0.171 A 
ATOM     23  N   UNL     1       9.479  -0.112  24.363  0.00  0.00    -0.196 NA
ENDBRANCH   1  21
BRANCH   5  24
ATOM     24  O   UNL     1       9.985  -6.080  25.061  0.00  0.00    -0.302 OA
ATOM     25  H   UNL     1      10.744  -5.680  24.596  0.00  0.00    +0.222 HD
ENDBRANCH   5  24
BRANCH   7  26
ATOM     26  C   UNL     1       5.186  -5.017  23.273  0.00  0.00    +0.206 C 
BRANCH  26  27
ATOM     27  O   UNL     1       4.555  -5.018  24.540  0.00  0.00    -0.284 OA
BRANCH  27  28
ATOM     28  P   UNL     1       4.273  -6.380  25.395  0.00  0.00    +0.483 P 
ATOM     29  O   UNL     1       2.804  -6.780  25.270  0.00  0.00    -0.227 OA
BRANCH  28  30
ATOM     30  O   UNL     1       4.598  -7.349  24.000  0.00  0.00    -0.302 OA
ATOM     31  H   UNL     1       5.534  -7.618  24.082  0.00  0.00    +0.222 HD
ENDBRANCH  28  30
BRANCH  28  32
ATOM     32  O   UNL     1       3.948  -5.410  26.791  0.00  0.00    -0.186 OA
BRANCH  32  33
ATOM     33  P   UNL     1       5.265  -5.544  27.905  0.00  0.00    +0.481 P 
ATOM     34  O   UNL     1       6.443  -5.665  28.903  0.00  0.00    -0.227 OA
BRANCH  33  35
ATOM     35  O   UNL     1       5.831  -4.181  27.189  0.00  0.00    -0.302 OA
ATOM     36  H   UNL     1       5.940  -4.284  26.228  0.00  0.00    +0.222 HD
ENDBRANCH  33  35
BRANCH  33  37
ATOM     37  O   UNL     1       5.933  -6.530  26.791  0.00  0.00    -0.302 OA
ATOM     38  H   UNL     1       5.531  -6.302  25.931  0.00  0.00    +0.222 HD
ENDBRANCH  33  37
ENDBRANCH  32  33
ENDBRANCH  28  32
ENDBRANCH  27  28
ENDBRANCH  26  27
ENDBRANCH   7  26
TORSDOF 10
ENDMDL
MODEL 5
REMARK VINA RESULT:      -6.9      1.758      3.624
REMARK  Name = 
REMARK  10 active torsions:
REMARK  status: ('A' for Active; 'I' for Inactive)
REMARK    1  A    between atoms: N_8  and  C_9
REMARK    2  A    between atoms: C_12  and  C_14
REMARK    3  A    between atoms: C_14  and  O_15
REMARK    4  A    between atoms: O_15  and  P_16
REMARK    5  A    between atoms: P_16  and  O_17
REMARK    6  A    between atoms: P_16  and  O_19
REMARK    7  A    between atoms: O_19  and  P_20
REMARK    8  A    between atoms: P_20  and  O_21
REMARK    9  A    between atoms: P_20  and  O_22
REMARK   10  A    between atoms: P_27  and  O_28
REMARK                            x       y       z     vdW  Elec       q    Type
REMARK                         _______ _______ _______ _____ _____    ______ ____
ROOT
ATOM      1  C   UNL     1       8.349  -3.297  23.676  0.00  0.00    +0.254 C 
ATOM      2  C   UNL     1       6.818  -3.127  23.713  0.00  0.00    +0.212 C 
ATOM      3  C   UNL     1       6.387  -4.123  24.784  0.00  0.00    +0.195 C 
ATOM      4  O   UNL     1       6.321  -5.398  24.129  0.00  0.00    -0.278 OA
ATOM      5  P   UNL     1       6.011  -5.180  22.557  0.00  0.00    +0.476 P 
ATOM      6  O   UNL     1       6.818  -6.001  21.612  0.00  0.00    -0.227 OA
ATOM      7  C   UNL     1       7.553  -4.088  25.739  0.00  0.00    +0.179 C 
ATOM      8  O   UNL     1       6.179  -3.575  22.511  0.00  0.00    -0.276 OA
ATOM      9  O   UNL     1       8.697  -4.074  24.856  0.00  0.00    -0.346 OA
ENDROOT
BRANCH   1  21
ATOM     10  N   UNL     1       7.495   0.849  27.002  0.00  0.00    -0.329 N 
ATOM     11  H   UNL     1       7.775   1.650  27.552  0.00  0.00    +0.145 HD
ATOM     12  H   UNL     1       7.129   0.074  27.545  0.00  0.00    +0.145 HD
ATOM     13  C   UNL     1       8.258   0.474  25.944  0.00  0.00    +0.195 A 
ATOM     14  N   UNL     1       9.048   1.475  25.410  0.00  0.00    -0.293 N 
ATOM     15  H   UNL     1       8.996   2.414  25.766  0.00  0.00    +0.172 HD
ATOM     16  C   UNL     1       9.898   1.314  24.328  0.00  0.00    +0.280 A 
ATOM     17  O   UNL     1      10.552   2.248  23.877  0.00  0.00    -0.265 OA
ATOM     18  C   UNL     1       9.879  -0.040  23.818  0.00  0.00    +0.172 A 
ATOM     19  N   UNL     1      10.562  -0.583  22.771  0.00  0.00    -0.229 NA
ATOM     20  C   UNL     1      10.110  -1.815  22.696  0.00  0.00    +0.203 A 
ATOM     21  N   UNL     1       9.173  -2.097  23.672  0.00  0.00    -0.285 N 
ATOM     22  C   UNL     1       9.041  -0.956  24.421  0.00  0.00    +0.171 A 
ATOM     23  N   UNL     1       8.228  -0.752  25.491  0.00  0.00    -0.196 NA
ENDBRANCH   1  21
BRANCH   5  24
ATOM     24  O   UNL     1       4.439  -5.432  22.545  0.00  0.00    -0.302 OA
ATOM     25  H   UNL     1       4.185  -5.909  21.732  0.00  0.00    +0.222 HD
ENDBRANCH   5  24
BRANCH   7  26
ATOM     26  C   UNL     1       7.615  -5.282  26.698  0.00  0.00    +0.206 C 
BRANCH  26  27
ATOM     27  O   UNL     1       6.837  -4.961  27.836  0.00  0.00    -0.284 OA
BRANCH  27  28
ATOM     28  P   UNL     1       5.833  -6.028  28.560  0.00  0.00    +0.483 P 
ATOM     29  O   UNL     1       6.629  -7.228  29.072  0.00  0.00    -0.227 OA
BRANCH  28  30
ATOM     30  O   UNL     1       6.098  -5.269  30.091  0.00  0.00    -0.302 OA
ATOM     31  H   UNL     1       5.755  -5.898  30.756  0.00  0.00    +0.222 HD
ENDBRANCH  28  30
BRANCH  28  32
ATOM     32  O   UNL     1       5.569  -6.786  27.027  0.00  0.00    -0.186 OA
BRANCH  32  33
ATOM     33  P   UNL     1       3.876  -6.797  26.673  0.00  0.00    +0.481 P 
ATOM     34  O   UNL     1       2.360  -6.806  26.358  0.00  0.00    -0.227 OA
BRANCH  33  35
ATOM     35  O   UNL     1       4.336  -7.184  25.147  0.00  0.00    -0.302 OA
ATOM     36  H   UNL     1       4.087  -6.502  24.500  0.00  0.00    +0.222 HD
ENDBRANCH  33  35
BRANCH  33  37
ATOM     37  O   UNL     1       4.052  -5.194  26.430  0.00  0.00    -0.302 OA
ATOM     38  H   UNL     1       4.524  -5.085  25.582  0.00  0.00    +0.222 HD
ENDBRANCH  33  37
ENDBRANCH  32  33
ENDBRANCH  28  32
ENDBRANCH  27  28
ENDBRANCH  26  27
ENDBRANCH   7  26
TORSDOF 10
ENDMDL
MODEL 6
REMARK VINA RESULT:      -6.9      1.770      2.305
REMARK  Name = 
REMARK  10 active torsions:
REMARK  status: ('A' for Active; 'I' for Inactive)
REMARK    1  A    between atoms: N_8  and  C_9
REMARK    2  A    between atoms: C_12  and  C_14
REMARK    3  A    between atoms: C_14  and  O_15
REMARK    4  A    between atoms: O_15  and  P_16
REMARK    5  A    between atoms: P_16  and  O_17
REMARK    6  A    between atoms: P_16  and  O_19
REMARK    7  A    between atoms: O_19  and  P_20
REMARK    8  A    between atoms: P_20  and  O_21
REMARK    9  A    between atoms: P_20  and  O_22
REMARK   10  A    between atoms: P_27  and  O_28
REMARK                            x       y       z     vdW  Elec       q    Type
REMARK                         _______ _______ _______ _____ _____    ______ ____
ROOT
ATOM      1  C   UNL     1       8.624  -1.580  24.144  0.00  0.00    +0.254 C 
ATOM      2  C   UNL     1       9.435  -2.727  23.513  0.00  0.00    +0.212 C 
ATOM      3  C   UNL     1       8.354  -3.642  22.946  0.00  0.00    +0.195 C 
ATOM      4  O   UNL     1       7.905  -4.444  24.047  0.00  0.00    -0.278 OA
ATOM      5  P   UNL     1       9.098  -4.591  25.129  0.00  0.00    +0.476 P 
ATOM      6  O   UNL     1       8.710  -4.422  26.557  0.00  0.00    -0.227 OA
ATOM      7  C   UNL     1       7.283  -2.660  22.546  0.00  0.00    +0.179 C 
ATOM      8  O   UNL     1      10.124  -3.523  24.485  0.00  0.00    -0.276 OA
ATOM      9  O   UNL     1       7.262  -1.732  23.654  0.00  0.00    -0.346 OA
ENDROOT
BRANCH   1  21
ATOM     10  N   UNL     1       6.932   2.623  27.050  0.00  0.00    -0.329 N 
ATOM     11  H   UNL     1       7.017   3.546  27.454  0.00  0.00    +0.145 HD
ATOM     12  H   UNL     1       6.877   1.871  27.730  0.00  0.00    +0.145 HD
ATOM     13  C   UNL     1       7.652   2.319  25.942  0.00  0.00    +0.195 A 
ATOM     14  N   UNL     1       8.042   3.405  25.181  0.00  0.00    -0.293 N 
ATOM     15  H   UNL     1       7.750   4.335  25.428  0.00  0.00    +0.172 HD
ATOM     16  C   UNL     1       8.778   3.324  24.010  0.00  0.00    +0.280 A 
ATOM     17  O   UNL     1       9.068   4.322  23.360  0.00  0.00    -0.265 OA
ATOM     18  C   UNL     1       9.112   1.957  23.672  0.00  0.00    +0.172 A 
ATOM     19  N   UNL     1       9.808   1.471  22.605  0.00  0.00    -0.229 NA
ATOM     20  C   UNL     1       9.741   0.167  22.744  0.00  0.00    +0.203 A 
ATOM     21  N   UNL     1       9.044  -0.212  23.876  0.00  0.00    -0.285 N 
ATOM     22  C   UNL     1       8.658   0.948  24.497  0.00  0.00    +0.171 A 
ATOM     23  N   UNL     1       7.943   1.079  25.645  0.00  0.00    -0.196 NA
ENDBRANCH   1  21
BRANCH   5  24
ATOM     24  O   UNL     1       9.674  -6.017  24.718  0.00  0.00    -0.302 OA
ATOM     25  H   UNL     1      10.416  -5.909  24.094  0.00  0.00    +0.222 HD
ENDBRANCH   5  24
BRANCH   7  26
ATOM     26  C   UNL     1       5.902  -3.290  22.331  0.00  0.00    +0.206 C 
BRANCH  26  27
ATOM     27  O   UNL     1       5.054  -2.831  23.366  0.00  0.00    -0.284 OA
BRANCH  27  28
ATOM     28  P   UNL     1       4.499  -3.797  24.561  0.00  0.00    +0.483 P 
ATOM     29  O   UNL     1       3.123  -4.348  24.190  0.00  0.00    -0.227 OA
BRANCH  28  30
ATOM     30  O   UNL     1       5.199  -5.181  23.794  0.00  0.00    -0.302 OA
ATOM     31  H   UNL     1       5.976  -4.843  23.308  0.00  0.00    +0.222 HD
ENDBRANCH  28  30
BRANCH  28  32
ATOM     32  O   UNL     1       3.800  -2.412  25.327  0.00  0.00    -0.186 OA
BRANCH  32  33
ATOM     33  P   UNL     1       4.933  -1.741  26.450  0.00  0.00    +0.481 P 
ATOM     34  O   UNL     1       5.946  -1.142  27.456  0.00  0.00    -0.227 OA
BRANCH  33  35
ATOM     35  O   UNL     1       5.318  -0.709  25.235  0.00  0.00    -0.302 OA
ATOM     36  H   UNL     1       4.545  -0.219  24.905  0.00  0.00    +0.222 HD
ENDBRANCH  33  35
BRANCH  33  37
ATOM     37  O   UNL     1       5.945  -2.906  25.920  0.00  0.00    -0.302 OA
ATOM     38  H   UNL     1       6.209  -3.430  26.700  0.00  0.00    +0.222 HD
ENDBRANCH  33  37
ENDBRANCH  32  33
ENDBRANCH  28  32
ENDBRANCH  27  28
ENDBRANCH  26  27
ENDBRANCH   7  26
TORSDOF 10
ENDMDL
MODEL 7
REMARK VINA RESULT:      -6.8      2.067      2.668
REMARK  Name = 
REMARK  10 active torsions:
REMARK  status: ('A' for Active; 'I' for Inactive)
REMARK    1  A    between atoms: N_8  and  C_9
REMARK    2  A    between atoms: C_12  and  C_14
REMARK    3  A    between atoms: C_14  and  O_15
REMARK    4  A    between atoms: O_15  and  P_16
REMARK    5  A    between atoms: P_16  and  O_17
REMARK    6  A    between atoms: P_16  and  O_19
REMARK    7  A    between atoms: O_19  and  P_20
REMARK    8  A    between atoms: P_20  and  O_21
REMARK    9  A    between atoms: P_20  and  O_22
REMARK   10  A    between atoms: P_27  and  O_28
REMARK                            x       y       z     vdW  Elec       q    Type
REMARK                         _______ _______ _______ _____ _____    ______ ____
ROOT
ATOM      1  C   UNL     1       7.167  -3.938  26.128  0.00  0.00    +0.254 C 
ATOM      2  C   UNL     1       7.265  -5.470  26.250  0.00  0.00    +0.212 C 
ATOM      3  C   UNL     1       5.887  -5.941  25.796  0.00  0.00    +0.195 C 
ATOM      4  O   UNL     1       5.033  -5.814  26.941  0.00  0.00    -0.278 OA
ATOM      5  P   UNL     1       5.917  -5.946  28.289  0.00  0.00    +0.476 P 
ATOM      6  O   UNL     1       5.619  -4.959  29.364  0.00  0.00    -0.227 OA
ATOM      7  C   UNL     1       5.524  -4.909  24.758  0.00  0.00    +0.179 C 
ATOM      8  O   UNL     1       7.380  -5.915  27.607  0.00  0.00    -0.276 OA
ATOM      9  O   UNL     1       5.956  -3.671  25.366  0.00  0.00    -0.346 OA
ENDROOT
BRANCH   1  21
ATOM     10  N   UNL     1       7.752   1.406  26.407  0.00  0.00    -0.329 N 
ATOM     11  H   UNL     1       8.283   2.266  26.413  0.00  0.00    +0.145 HD
ATOM     12  H   UNL     1       7.260   1.210  27.273  0.00  0.00    +0.145 HD
ATOM     13  C   UNL     1       8.278   0.309  25.806  0.00  0.00    +0.195 A 
ATOM     14  N   UNL     1       9.235   0.572  24.845  0.00  0.00    -0.293 N 
ATOM     15  H   UNL     1       9.461   1.518  24.592  0.00  0.00    +0.172 HD
ATOM     16  C   UNL     1       9.897  -0.396  24.107  0.00  0.00    +0.280 A 
ATOM     17  O   UNL     1      10.715  -0.101  23.243  0.00  0.00    -0.265 OA
ATOM     18  C   UNL     1       9.481  -1.734  24.468  0.00  0.00    +0.172 A 
ATOM     19  N   UNL     1       9.888  -2.935  23.968  0.00  0.00    -0.229 NA
ATOM     20  C   UNL     1       9.133  -3.814  24.586  0.00  0.00    +0.203 A 
ATOM     21  N   UNL     1       8.264  -3.228  25.487  0.00  0.00    -0.285 N 
ATOM     22  C   UNL     1       8.506  -1.879  25.434  0.00  0.00    +0.171 A 
ATOM     23  N   UNL     1       7.890  -0.894  26.139  0.00  0.00    -0.196 NA
ENDBRANCH   1  21
BRANCH   5  24
ATOM     24  O   UNL     1       5.658  -7.476  28.644  0.00  0.00    -0.302 OA
ATOM     25  H   UNL     1       6.469  -7.874  29.013  0.00  0.00    +0.222 HD
ENDBRANCH   5  24
BRANCH   7  26
ATOM     26  C   UNL     1       4.031  -4.861  24.416  0.00  0.00    +0.206 C 
BRANCH  26  27
ATOM     27  O   UNL     1       3.521  -3.629  24.889  0.00  0.00    -0.284 OA
BRANCH  27  28
ATOM     28  P   UNL     1       2.458  -3.519  26.125  0.00  0.00    +0.483 P 
ATOM     29  O   UNL     1       1.030  -3.471  25.582  0.00  0.00    -0.227 OA
BRANCH  28  30
ATOM     30  O   UNL     1       2.317  -5.242  26.185  0.00  0.00    -0.302 OA
ATOM     31  H   UNL     1       2.677  -5.501  27.056  0.00  0.00    +0.222 HD
ENDBRANCH  28  30
BRANCH  28  32
ATOM     32  O   UNL     1       2.599  -1.795  26.063  0.00  0.00    -0.186 OA
BRANCH  32  33
ATOM     33  P   UNL     1       3.818  -1.277  27.177  0.00  0.00    +0.481 P 
ATOM     34  O   UNL     1       4.908  -0.813  28.174  0.00  0.00    -0.227 OA
BRANCH  33  35
ATOM     35  O   UNL     1       4.796  -1.205  25.861  0.00  0.00    -0.302 OA
ATOM     36  H   UNL     1       5.529  -1.843  25.908  0.00  0.00    +0.222 HD
ENDBRANCH  33  35
BRANCH  33  37
ATOM     37  O   UNL     1       4.086  -2.868  27.417  0.00  0.00    -0.302 OA
ATOM     38  H   UNL     1       3.217  -3.312  27.380  0.00  0.00    +0.222 HD
ENDBRANCH  33  37
ENDBRANCH  32  33
ENDBRANCH  28  32
ENDBRANCH  27  28
ENDBRANCH  26  27
ENDBRANCH   7  26
TORSDOF 10
ENDMDL
MODEL 8
REMARK VINA RESULT:      -6.8      1.858      3.808
REMARK  Name = 
REMARK  10 active torsions:
REMARK  status: ('A' for Active; 'I' for Inactive)
REMARK    1  A    between atoms: N_8  and  C_9
REMARK    2  A    between atoms: C_12  and  C_14
REMARK    3  A    between atoms: C_14  and  O_15
REMARK    4  A    between atoms: O_15  and  P_16
REMARK    5  A    between atoms: P_16  and  O_17
REMARK    6  A    between atoms: P_16  and  O_19
REMARK    7  A    between atoms: O_19  and  P_20
REMARK    8  A    between atoms: P_20  and  O_21
REMARK    9  A    between atoms: P_20  and  O_22
REMARK   10  A    between atoms: P_27  and  O_28
REMARK                            x       y       z     vdW  Elec       q    Type
REMARK                         _______ _______ _______ _____ _____    ______ ____
ROOT
ATOM      1  C   UNL     1       7.690  -2.752  22.957  0.00  0.00    +0.254 C 
ATOM      2  C   UNL     1       6.543  -3.028  21.967  0.00  0.00    +0.212 C 
ATOM      3  C   UNL     1       5.412  -3.504  22.873  0.00  0.00    +0.195 C 
ATOM      4  O   UNL     1       5.663  -4.896  23.112  0.00  0.00    -0.278 OA
ATOM      5  P   UNL     1       6.490  -5.516  21.869  0.00  0.00    +0.476 P 
ATOM      6  O   UNL     1       7.630  -6.408  22.224  0.00  0.00    -0.227 OA
ATOM      7  C   UNL     1       5.655  -2.707  24.129  0.00  0.00    +0.179 C 
ATOM      8  O   UNL     1       6.813  -4.135  21.097  0.00  0.00    -0.276 OA
ATOM      9  O   UNL     1       7.091  -2.771  24.283  0.00  0.00    -0.346 OA
ENDROOT
BRANCH   1  21
ATOM     10  N   UNL     1       8.053   0.886  26.908  0.00  0.00    -0.329 N 
ATOM     11  H   UNL     1       8.501   1.631  27.424  0.00  0.00    +0.145 HD
ATOM     12  H   UNL     1       7.929   0.026  27.434  0.00  0.00    +0.145 HD
ATOM     13  C   UNL     1       8.375   0.698  25.604  0.00  0.00    +0.195 A 
ATOM     14  N   UNL     1       8.891   1.809  24.963  0.00  0.00    -0.293 N 
ATOM     15  H   UNL     1       8.956   2.691  25.441  0.00  0.00    +0.172 HD
ATOM     16  C   UNL     1       9.281   1.841  23.635  0.00  0.00    +0.280 A 
ATOM     17  O   UNL     1       9.702   2.867  23.111  0.00  0.00    -0.265 OA
ATOM     18  C   UNL     1       9.101   0.562  22.983  0.00  0.00    +0.172 A 
ATOM     19  N   UNL     1       9.356   0.200  21.694  0.00  0.00    -0.229 NA
ATOM     20  C   UNL     1       8.932  -1.042  21.619  0.00  0.00    +0.203 A 
ATOM     21  N   UNL     1       8.430  -1.506  22.820  0.00  0.00    -0.285 N 
ATOM     22  C   UNL     1       8.564  -0.477  23.716  0.00  0.00    +0.171 A 
ATOM     23  N   UNL     1       8.203  -0.463  25.027  0.00  0.00    -0.196 NA
ENDBRANCH   1  21
BRANCH   5  24
ATOM     24  O   UNL     1       5.302  -6.183  21.047  0.00  0.00    -0.302 OA
ATOM     25  H   UNL     1       4.505  -6.248  21.606  0.00  0.00    +0.222 HD
ENDBRANCH   5  24
BRANCH   7  26
ATOM     26  C   UNL     1       4.945  -3.260  25.370  0.00  0.00    +0.206 C 
BRANCH  26  27
ATOM     27  O   UNL     1       5.939  -3.724  26.264  0.00  0.00    -0.284 OA
BRANCH  27  28
ATOM     28  P   UNL     1       6.190  -5.308  26.575  0.00  0.00    +0.483 P 
ATOM     29  O   UNL     1       5.496  -5.700  27.879  0.00  0.00    -0.227 OA
BRANCH  28  30
ATOM     30  O   UNL     1       4.733  -5.724  25.740  0.00  0.00    -0.302 OA
ATOM     31  H   UNL     1       4.264  -4.879  25.599  0.00  0.00    +0.222 HD
ENDBRANCH  28  30
BRANCH  28  32
ATOM     32  O   UNL     1       7.647  -4.891  27.411  0.00  0.00    -0.186 OA
BRANCH  32  33
ATOM     33  P   UNL     1       8.986  -4.996  26.321  0.00  0.00    +0.481 P 
ATOM     34  O   UNL     1      10.185  -5.092  25.345  0.00  0.00    -0.227 OA
BRANCH  33  35
ATOM     35  O   UNL     1       8.839  -3.367  26.197  0.00  0.00    -0.302 OA
ATOM     36  H   UNL     1       7.967  -3.050  26.492  0.00  0.00    +0.222 HD
ENDBRANCH  33  35
BRANCH  33  37
ATOM     37  O   UNL     1       7.861  -5.288  25.177  0.00  0.00    -0.302 OA
ATOM     38  H   UNL     1       8.102  -4.751  24.397  0.00  0.00    +0.222 HD
ENDBRANCH  33  37
ENDBRANCH  32  33
ENDBRANCH  28  32
ENDBRANCH  27  28
ENDBRANCH  26  27
ENDBRANCH   7  26
TORSDOF 10
ENDMDL
MODEL 9
REMARK VINA RESULT:      -6.8      0.898      2.069
REMARK  Name = 
REMARK  10 active torsions:
REMARK  status: ('A' for Active; 'I' for Inactive)
REMARK    1  A    between atoms: N_8  and  C_9
REMARK    2  A    between atoms: C_12  and  C_14
REMARK    3  A    between atoms: C_14  and  O_15
REMARK    4  A    between atoms: O_15  and  P_16
REMARK    5  A    between atoms: P_16  and  O_17
REMARK    6  A    between atoms: P_16  and  O_19
REMARK    7  A    between atoms: O_19  and  P_20
REMARK    8  A    between atoms: P_20  and  O_21
REMARK    9  A    between atoms: P_20  and  O_22
REMARK   10  A    between atoms: P_27  and  O_28
REMARK                            x       y       z     vdW  Elec       q    Type
REMARK                         _______ _______ _______ _____ _____    ______ ____
ROOT
ATOM      1  C   UNL     1       8.114  -2.852  24.443  0.00  0.00    +0.254 C 
ATOM      2  C   UNL     1       8.841  -4.071  25.041  0.00  0.00    +0.212 C 
ATOM      3  C   UNL     1       7.991  -5.246  24.568  0.00  0.00    +0.195 C 
ATOM      4  O   UNL     1       6.896  -5.332  25.491  0.00  0.00    -0.278 OA
ATOM      5  P   UNL     1       7.349  -4.732  26.922  0.00  0.00    +0.476 P 
ATOM      6  O   UNL     1       6.370  -3.830  27.592  0.00  0.00    -0.227 OA
ATOM      7  C   UNL     1       7.503  -4.766  23.225  0.00  0.00    +0.179 C 
ATOM      8  O   UNL     1       8.772  -4.115  26.472  0.00  0.00    -0.276 OA
ATOM      9  O   UNL     1       7.163  -3.384  23.477  0.00  0.00    -0.346 OA
ENDROOT
BRANCH   1  21
ATOM     10  N   UNL     1       8.049   2.337  25.873  0.00  0.00    -0.329 N 
ATOM     11  H   UNL     1       8.448   3.260  25.972  0.00  0.00    +0.145 HD
ATOM     12  H   UNL     1       7.821   1.881  26.751  0.00  0.00    +0.145 HD
ATOM     13  C   UNL     1       8.546   1.501  24.926  0.00  0.00    +0.195 A 
ATOM     14  N   UNL     1       9.188   2.126  23.874  0.00  0.00    -0.293 N 
ATOM     15  H   UNL     1       9.218   3.129  23.815  0.00  0.00    +0.172 HD
ATOM     16  C   UNL     1       9.762   1.468  22.799  0.00  0.00    +0.280 A 
ATOM     17  O   UNL     1      10.291   2.078  21.877  0.00  0.00    -0.265 OA
ATOM     18  C   UNL     1       9.629   0.031  22.906  0.00  0.00    +0.172 A 
ATOM     19  N   UNL     1      10.050  -0.947  22.056  0.00  0.00    -0.229 NA
ATOM     20  C   UNL     1       9.595  -2.057  22.591  0.00  0.00    +0.203 A 
ATOM     21  N   UNL     1       8.912  -1.837  23.772  0.00  0.00    -0.285 N 
ATOM     22  C   UNL     1       8.955  -0.485  23.996  0.00  0.00    +0.171 A 
ATOM     23  N   UNL     1       8.414   0.205  25.034  0.00  0.00    -0.196 NA
ENDBRANCH   1  21
BRANCH   5  24
ATOM     24  O   UNL     1       7.707  -6.079  27.690  0.00  0.00    -0.302 OA
ATOM     25  H   UNL     1       7.794  -6.813  27.053  0.00  0.00    +0.222 HD
ENDBRANCH   5  24
BRANCH   7  26
ATOM     26  C   UNL     1       6.295  -5.538  22.683  0.00  0.00    +0.206 C 
BRANCH  26  27
ATOM     27  O   UNL     1       5.204  -4.639  22.618  0.00  0.00    -0.284 OA
BRANCH  27  28
ATOM     28  P   UNL     1       3.888  -4.761  23.579  0.00  0.00    +0.483 P 
ATOM     29  O   UNL     1       4.189  -5.682  24.761  0.00  0.00    -0.227 OA
BRANCH  28  30
ATOM     30  O   UNL     1       4.443  -3.436  24.542  0.00  0.00    -0.302 OA
ATOM     31  H   UNL     1       5.418  -3.503  24.539  0.00  0.00    +0.222 HD
ENDBRANCH  28  30
BRANCH  28  32
ATOM     32  O   UNL     1       3.334  -6.087  22.614  0.00  0.00    -0.186 OA
BRANCH  32  33
ATOM     33  P   UNL     1       2.071  -6.921  23.452  0.00  0.00    +0.481 P 
ATOM     34  O   UNL     1       0.940  -7.666  24.202  0.00  0.00    -0.227 OA
BRANCH  33  35
ATOM     35  O   UNL     1       3.229  -8.024  23.819  0.00  0.00    -0.302 OA
ATOM     36  H   UNL     1       3.772  -7.753  24.580  0.00  0.00    +0.222 HD
ENDBRANCH  33  35
BRANCH  33  37
ATOM     37  O   UNL     1       1.740  -7.598  22.006  0.00  0.00    -0.302 OA
ATOM     38  H   UNL     1       2.580  -7.957  21.660  0.00  0.00    +0.222 HD
ENDBRANCH  33  37
ENDBRANCH  32  33
ENDBRANCH  28  32
ENDBRANCH  27  28
ENDBRANCH  26  27
ENDBRANCH   7  26
TORSDOF 10
ENDMDL
