MODEL 1
REMARK VINA RESULT:      -7.5      0.000      0.000
REMARK  Name = 
REMARK  6 active torsions:
REMARK  status: ('A' for Active; 'I' for Inactive)
REMARK    1  A    between atoms: N_1  and  CA_2
REMARK    2  A    between atoms: CA_2  and  C_4
REMARK    3  A    between atoms: CA_2  and  C_22
REMARK    4  A    between atoms: N_6  and  CA_7
REMARK    5  A    between atoms: CA_15  and  C_19
REMARK    6  A    between atoms: C_19  and  O_20
REMARK                            x       y       z     vdW  Elec       q    Type
REMARK                         _______ _______ _______ _____ _____    ______ ____
ROOT
ATOM      1  C   UNL     1      10.048   1.230  23.806  0.00  0.00    +0.235 C 
ATOM      2  N   UNL     1       9.078   0.258  23.927  0.00  0.00    -0.301 N 
ATOM      3  H   UNL     1       8.177   0.396  23.474  0.00  0.00    +0.150 HD
ATOM      4  O   UNL     1      11.105   1.129  24.440  0.00  0.00    -0.274 OA
ENDROOT
BRANCH   2   5
ATOM      5  CA  UNL     1       9.284  -0.814  24.943  0.00  0.00    +0.180 C 
ATOM      6  C   UNL     1       9.591  -2.281  24.512  0.00  0.00    +0.242 C 
ATOM      7  O   UNL     1      10.351  -2.887  23.794  0.00  0.00    -0.273 OA
ATOM      8  N   UNL     1       8.562  -2.745  25.271  0.00  0.00    -0.258 N 
ATOM      9  CA  UNL     1       7.802  -3.893  25.127  0.00  0.00    +0.136 C 
ATOM     10  C   UNL     1       6.454  -3.784  25.056  0.00  0.00    +0.047 C 
ATOM     11 CL   UNL     1       5.355  -5.118  24.904  0.00  0.00    -0.086 Cl
ATOM     12  C   UNL     1       5.739  -2.451  25.016  0.00  0.00    +0.051 C 
ATOM     13  C   UNL     1       6.677  -1.314  24.624  0.00  0.00    +0.031 C 
ATOM     14  C   UNL     1       7.939  -1.429  25.467  0.00  0.00    +0.111 C 
BRANCH   9  15
ATOM     15  C   UNL     1       8.480  -5.240  25.167  0.00  0.00    +0.352 C 
ATOM     16  OXT UNL     1       8.987  -5.778  24.193  0.00  0.00    -0.244 OA
BRANCH  15  17
ATOM     17  O   UNL     1       8.434  -5.883  26.355  0.00  0.00    -0.476 OA
ATOM     18  H   UNL     1       8.746  -5.385  27.140  0.00  0.00    +0.295 HD
ENDBRANCH  15  17
ENDBRANCH   9  15
ENDBRANCH   2   5
BRANCH   1  19
ATOM     19  CA  UNL     1       9.759   2.514  22.993  0.00  0.00    +0.168 C 
BRANCH  19  20
ATOM     20  C   UNL     1      10.370   3.806  23.502  0.00  0.00    -0.022 A 
ATOM     21  C   UNL     1      11.709   4.161  23.263  0.00  0.00    +0.005 A 
ATOM     22  C   UNL     1      12.205   5.400  23.673  0.00  0.00    +0.000 A 
ATOM     23  C   UNL     1      11.377   6.298  24.341  0.00  0.00    +0.000 A 
ATOM     24  C   UNL     1      10.056   5.954  24.611  0.00  0.00    +0.000 A 
ATOM     25  C   UNL     1       9.557   4.715  24.200  0.00  0.00    +0.005 A 
ENDBRANCH  19  20
BRANCH  19  26
ATOM     26  N   UNL     1      10.103   2.234  21.578  0.00  0.00    -0.316 NA
ATOM     27  H1  UNL     1      10.401   1.266  21.493  0.00  0.00    +0.119 HD
ATOM     28  H2  UNL     1       9.227   2.282  21.049  0.00  0.00    +0.119 HD
ENDBRANCH  19  26
ENDBRANCH   1  19
TORSDOF 6
ENDMDL
MODEL 2
REMARK VINA RESULT:      -7.4      2.785      8.242
REMARK  Name = 
REMARK  6 active torsions:
REMARK  status: ('A' for Active; 'I' for Inactive)
REMARK    1  A    between atoms: N_1  and  CA_2
REMARK    2  A    between atoms: CA_2  and  C_4
REMARK    3  A    between atoms: CA_2  and  C_22
REMARK    4  A    between atoms: N_6  and  CA_7
REMARK    5  A    between atoms: CA_15  and  C_19
REMARK    6  A    between atoms: C_19  and  O_20
REMARK                            x       y       z     vdW  Elec       q    Type
REMARK                         _______ _______ _______ _____ _____    ______ ____
ROOT
ATOM      1  C   UNL     1       8.689  -3.897  25.287  0.00  0.00    +0.235 C 
ATOM      2  N   UNL     1       8.676  -2.518  25.258  0.00  0.00    -0.301 N 
ATOM      3  H   UNL     1       8.002  -2.016  25.832  0.00  0.00    +0.150 HD
ATOM      4  O   UNL     1       9.424  -4.523  24.515  0.00  0.00    -0.274 OA
ENDROOT
BRANCH   2   5
ATOM      5  CA  UNL     1       9.449  -1.834  24.183  0.00  0.00    +0.180 C 
ATOM      6  C   UNL     1      10.030  -0.402  24.397  0.00  0.00    +0.242 C 
ATOM      7  O   UNL     1      10.703   0.205  25.197  0.00  0.00    -0.273 OA
ATOM      8  N   UNL     1       9.425   0.040  23.263  0.00  0.00    -0.258 N 
ATOM      9  CA  UNL     1       9.015   1.316  22.917  0.00  0.00    +0.136 C 
ATOM     10  C   UNL     1       7.727   1.515  22.550  0.00  0.00    +0.047 C 
ATOM     11 CL   UNL     1       7.055   3.038  22.062  0.00  0.00    -0.086 Cl
ATOM     12  C   UNL     1       6.679   0.423  22.607  0.00  0.00    +0.051 C 
ATOM     13  C   UNL     1       7.110  -0.732  23.504  0.00  0.00    +0.031 C 
ATOM     14  C   UNL     1       8.534  -1.119  23.128  0.00  0.00    +0.111 C 
BRANCH   9  15
ATOM     15  C   UNL     1      10.032   2.428  22.845  0.00  0.00    +0.352 C 
ATOM     16  OXT UNL     1      10.220   3.239  23.741  0.00  0.00    -0.244 OA
BRANCH  15  17
ATOM     17  O   UNL     1      10.698   2.538  21.675  0.00  0.00    -0.476 OA
ATOM     18  H   UNL     1      11.400   3.221  21.628  0.00  0.00    +0.295 HD
ENDBRANCH  15  17
ENDBRANCH   9  15
ENDBRANCH   2   5
BRANCH   1  19
ATOM     19  CA  UNL     1       7.683  -4.661  26.180  0.00  0.00    +0.168 C 
BRANCH  19  20
ATOM     20  C   UNL     1       6.521  -5.343  25.484  0.00  0.00    -0.022 A 
ATOM     21  C   UNL     1       6.325  -5.283  24.094  0.00  0.00    +0.005 A 
ATOM     22  C   UNL     1       5.293  -6.000  23.485  0.00  0.00    +0.000 A 
ATOM     23  C   UNL     1       4.431  -6.776  24.256  0.00  0.00    +0.000 A 
ATOM     24  C   UNL     1       4.592  -6.826  25.637  0.00  0.00    +0.000 A 
ATOM     25  C   UNL     1       5.625  -6.111  26.248  0.00  0.00    +0.005 A 
ENDBRANCH  19  20
BRANCH  19  26
ATOM     26  N   UNL     1       8.462  -5.586  27.039  0.00  0.00    -0.316 NA
ATOM     27  H1  UNL     1       7.896  -5.852  27.841  0.00  0.00    +0.119 HD
ATOM     28  H2  UNL     1       8.577  -6.453  26.507  0.00  0.00    +0.119 HD
ENDBRANCH  19  26
ENDBRANCH   1  19
TORSDOF 6
ENDMDL
MODEL 3
REMARK VINA RESULT:      -7.4      2.497      3.536
REMARK  Name = 
REMARK  6 active torsions:
REMARK  status: ('A' for Active; 'I' for Inactive)
REMARK    1  A    between atoms: N_1  and  CA_2
REMARK    2  A    between atoms: CA_2  and  C_4
REMARK    3  A    between atoms: CA_2  and  C_22
REMARK    4  A    between atoms: N_6  and  CA_7
REMARK    5  A    between atoms: CA_15  and  C_19
REMARK    6  A    between atoms: C_19  and  O_20
REMARK                            x       y       z     vdW  Elec       q    Type
REMARK                         _______ _______ _______ _____ _____    ______ ____
ROOT
ATOM      1  C   UNL     1       9.708  -1.013  23.838  0.00  0.00    +0.235 C 
ATOM      2  N   UNL     1       8.445  -1.564  23.887  0.00  0.00    -0.301 N 
ATOM      3  H   UNL     1       7.794  -1.250  24.603  0.00  0.00    +0.150 HD
ATOM      4  O   UNL     1      10.546  -1.460  23.047  0.00  0.00    -0.274 OA
ENDROOT
BRANCH   2   5
ATOM      5  CA  UNL     1       8.184  -2.788  23.076  0.00  0.00    +0.180 C 
ATOM      6  C   UNL     1       6.744  -3.137  22.589  0.00  0.00    +0.242 C 
ATOM      7  O   UNL     1       5.820  -2.618  22.008  0.00  0.00    -0.273 OA
ATOM      8  N   UNL     1       6.834  -4.380  23.135  0.00  0.00    -0.258 N 
ATOM      9  CA  UNL     1       5.834  -5.224  23.587  0.00  0.00    +0.136 C 
ATOM     10  C   UNL     1       5.897  -5.695  24.854  0.00  0.00    +0.047 C 
ATOM     11 CL   UNL     1       4.747  -6.780  25.570  0.00  0.00    -0.086 Cl
ATOM     12  C   UNL     1       6.954  -5.254  25.844  0.00  0.00    +0.051 C 
ATOM     13  C   UNL     1       7.624  -3.952  25.417  0.00  0.00    +0.031 C 
ATOM     14  C   UNL     1       8.017  -4.079  23.952  0.00  0.00    +0.111 C 
BRANCH   9  15
ATOM     15  C   UNL     1       4.767  -5.688  22.628  0.00  0.00    +0.352 C 
ATOM     16  OXT UNL     1       3.568  -5.542  22.819  0.00  0.00    -0.244 OA
BRANCH  15  17
ATOM     17  O   UNL     1       5.207  -6.364  21.544  0.00  0.00    -0.476 OA
ATOM     18  H   UNL     1       4.586  -6.442  20.789  0.00  0.00    +0.295 HD
ENDBRANCH  15  17
ENDBRANCH   9  15
ENDBRANCH   2   5
BRANCH   1  19
ATOM     19  CA  UNL     1      10.122   0.064  24.868  0.00  0.00    +0.168 C 
BRANCH  19  20
ATOM     20  C   UNL     1       9.928   1.514  24.467  0.00  0.00    -0.022 A 
ATOM     21  C   UNL     1       8.808   2.269  24.857  0.00  0.00    +0.005 A 
ATOM     22  C   UNL     1       8.714   3.625  24.540  0.00  0.00    +0.000 A 
ATOM     23  C   UNL     1       9.728   4.247  23.817  0.00  0.00    +0.000 A 
ATOM     24  C   UNL     1      10.833   3.510  23.399  0.00  0.00    +0.000 A 
ATOM     25  C   UNL     1      10.930   2.153  23.716  0.00  0.00    +0.005 A 
ENDBRANCH  19  20
BRANCH  19  26
ATOM     26  N   UNL     1       9.462  -0.270  26.154  0.00  0.00    -0.316 NA
ATOM     27  H1  UNL     1       8.851   0.497  26.424  0.00  0.00    +0.119 HD
ATOM     28  H2  UNL     1       8.827  -1.050  25.963  0.00  0.00    +0.119 HD
ENDBRANCH  19  26
ENDBRANCH   1  19
TORSDOF 6
ENDMDL
MODEL 4
REMARK VINA RESULT:      -7.2      2.716      4.350
REMARK  Name = 
REMARK  6 active torsions:
REMARK  status: ('A' for Active; 'I' for Inactive)
REMARK    1  A    between atoms: N_1  and  CA_2
REMARK    2  A    between atoms: CA_2  and  C_4
REMARK    3  A    between atoms: CA_2  and  C_22
REMARK    4  A    between atoms: N_6  and  CA_7
REMARK    5  A    between atoms: CA_15  and  C_19
REMARK    6  A    between atoms: C_19  and  O_20
REMARK                            x       y       z     vdW  Elec       q    Type
REMARK                         _______ _______ _______ _____ _____    ______ ____
ROOT
ATOM      1  C   UNL     1       9.285  -2.490  24.316  0.00  0.00    +0.235 C 
ATOM      2  N   UNL     1       7.932  -2.754  24.284  0.00  0.00    -0.301 N 
ATOM      3  H   UNL     1       7.282  -2.063  24.651  0.00  0.00    +0.150 HD
ATOM      4  O   UNL     1      10.092  -3.362  23.976  0.00  0.00    -0.274 OA
ENDROOT
BRANCH   2   5
ATOM      5  CA  UNL     1       7.499  -4.148  23.977  0.00  0.00    +0.180 C 
ATOM      6  C   UNL     1       5.987  -4.509  23.844  0.00  0.00    +0.242 C 
ATOM      7  O   UNL     1       5.000  -4.128  23.259  0.00  0.00    -0.273 OA
ATOM      8  N   UNL     1       6.121  -5.508  24.757  0.00  0.00    -0.258 N 
ATOM      9  CA  UNL     1       5.179  -6.068  25.603  0.00  0.00    +0.136 C 
ATOM     10  C   UNL     1       5.429  -6.103  26.933  0.00  0.00    +0.047 C 
ATOM     11 CL   UNL     1       4.374  -6.790  28.127  0.00  0.00    -0.086 Cl
ATOM     12  C   UNL     1       6.649  -5.458  27.557  0.00  0.00    +0.051 C 
ATOM     13  C   UNL     1       7.286  -4.431  26.627  0.00  0.00    +0.031 C 
ATOM     14  C   UNL     1       7.431  -5.063  25.250  0.00  0.00    +0.111 C 
BRANCH   9  15
ATOM     15  C   UNL     1       3.954  -6.724  25.017  0.00  0.00    +0.352 C 
ATOM     16  OXT UNL     1       3.886  -7.911  24.733  0.00  0.00    -0.244 OA
BRANCH  15  17
ATOM     17  O   UNL     1       2.922  -5.897  24.740  0.00  0.00    -0.476 OA
ATOM     18  H   UNL     1       2.178  -5.889  25.379  0.00  0.00    +0.295 HD
ENDBRANCH  15  17
ENDBRANCH   9  15
ENDBRANCH   2   5
BRANCH   1  19
ATOM     19  CA  UNL     1       9.798  -1.157  24.911  0.00  0.00    +0.168 C 
BRANCH  19  20
ATOM     20  C   UNL     1       9.982   0.003  23.950  0.00  0.00    -0.022 A 
ATOM     21  C   UNL     1       9.674  -0.086  22.582  0.00  0.00    +0.005 A 
ATOM     22  C   UNL     1       9.775   1.032  21.752  0.00  0.00    +0.000 A 
ATOM     23  C   UNL     1      10.198   2.253  22.271  0.00  0.00    +0.000 A 
ATOM     24  C   UNL     1      10.533   2.354  23.618  0.00  0.00    +0.000 A 
ATOM     25  C   UNL     1      10.431   1.237  24.450  0.00  0.00    +0.005 A 
ENDBRANCH  19  20
BRANCH  19  26
ATOM     26  N   UNL     1       8.927  -0.816  26.062  0.00  0.00    -0.316 NA
ATOM     27  H1  UNL     1       9.456  -0.258  26.727  0.00  0.00    +0.119 HD
ATOM     28  H2  UNL     1       8.207  -0.180  25.707  0.00  0.00    +0.119 HD
ENDBRANCH  19  26
ENDBRANCH   1  19
TORSDOF 6
ENDMDL
MODEL 5
REMARK VINA RESULT:      -7.2      2.432      3.144
REMARK  Name = 
REMARK  6 active torsions:
REMARK  status: ('A' for Active; 'I' for Inactive)
REMARK    1  A    between atoms: N_1  and  CA_2
REMARK    2  A    between atoms: CA_2  and  C_4
REMARK    3  A    between atoms: CA_2  and  C_22
REMARK    4  A    between atoms: N_6  and  CA_7
REMARK    5  A    between atoms: CA_15  and  C_19
REMARK    6  A    between atoms: C_19  and  O_20
REMARK                            x       y       z     vdW  Elec       q    Type
REMARK                         _______ _______ _______ _____ _____    ______ ____
ROOT
ATOM      1  C   UNL     1       9.822  -0.441  23.098  0.00  0.00    +0.235 C 
ATOM      2  N   UNL     1       9.172  -1.405  23.839  0.00  0.00    -0.301 N 
ATOM      3  H   UNL     1       8.971  -1.225  24.820  0.00  0.00    +0.150 HD
ATOM      4  O   UNL     1      10.170  -0.687  21.937  0.00  0.00    -0.274 OA
ENDROOT
BRANCH   2   5
ATOM      5  CA  UNL     1       9.046  -2.771  23.254  0.00  0.00    +0.180 C 
ATOM      6  C   UNL     1       7.715  -3.239  22.587  0.00  0.00    +0.242 C 
ATOM      7  O   UNL     1       6.925  -2.864  21.753  0.00  0.00    -0.273 OA
ATOM      8  N   UNL     1       7.682  -4.346  23.376  0.00  0.00    -0.258 N 
ATOM      9  CA  UNL     1       6.601  -5.104  23.793  0.00  0.00    +0.136 C 
ATOM     10  C   UNL     1       6.418  -5.313  25.119  0.00  0.00    +0.047 C 
ATOM     11 CL   UNL     1       5.137  -6.258  25.810  0.00  0.00    -0.086 Cl
ATOM     12  C   UNL     1       7.281  -4.663  26.180  0.00  0.00    +0.051 C 
ATOM     13  C   UNL     1       8.040  -3.458  25.634  0.00  0.00    +0.031 C 
ATOM     14  C   UNL     1       8.696  -3.865  24.322  0.00  0.00    +0.111 C 
BRANCH   9  15
ATOM     15  C   UNL     1       5.722  -5.772  22.765  0.00  0.00    +0.352 C 
ATOM     16  OXT UNL     1       4.573  -5.430  22.525  0.00  0.00    -0.244 OA
BRANCH  15  17
ATOM     17  O   UNL     1       6.256  -6.850  22.151  0.00  0.00    -0.476 OA
ATOM     18  H   UNL     1       5.626  -7.504  21.779  0.00  0.00    +0.295 HD
ENDBRANCH  15  17
ENDBRANCH   9  15
ENDBRANCH   2   5
BRANCH   1  19
ATOM     19  CA  UNL     1      10.242   0.892  23.761  0.00  0.00    +0.168 C 
BRANCH  19  20
ATOM     20  C   UNL     1       9.431   2.125  23.407  0.00  0.00    -0.022 A 
ATOM     21  C   UNL     1       8.396   2.108  22.457  0.00  0.00    +0.005 A 
ATOM     22  C   UNL     1       7.617   3.244  22.228  0.00  0.00    +0.000 A 
ATOM     23  C   UNL     1       7.868   4.418  22.933  0.00  0.00    +0.000 A 
ATOM     24  C   UNL     1       8.907   4.462  23.858  0.00  0.00    +0.000 A 
ATOM     25  C   UNL     1       9.686   3.326  24.090  0.00  0.00    +0.005 A 
ENDBRANCH  19  20
BRANCH  19  26
ATOM     26  N   UNL     1      10.323   0.658  25.223  0.00  0.00    -0.316 NA
ATOM     27  H1  UNL     1       9.886   1.436  25.710  0.00  0.00    +0.119 HD
ATOM     28  H2  UNL     1       9.721  -0.145  25.425  0.00  0.00    +0.119 HD
ENDBRANCH  19  26
ENDBRANCH   1  19
TORSDOF 6
ENDMDL
MODEL 6
REMARK VINA RESULT:      -7.1      3.544      8.406
REMARK  Name = 
REMARK  6 active torsions:
REMARK  status: ('A' for Active; 'I' for Inactive)
REMARK    1  A    between atoms: N_1  and  CA_2
REMARK    2  A    between atoms: CA_2  and  C_4
REMARK    3  A    between atoms: CA_2  and  C_22
REMARK    4  A    between atoms: N_6  and  CA_7
REMARK    5  A    between atoms: CA_15  and  C_19
REMARK    6  A    between atoms: C_19  and  O_20
REMARK                            x       y       z     vdW  Elec       q    Type
REMARK                         _______ _______ _______ _____ _____    ______ ____
ROOT
ATOM      1  C   UNL     1       6.592  -5.081  27.069  0.00  0.00    +0.235 C 
ATOM      2  N   UNL     1       6.771  -3.797  26.602  0.00  0.00    -0.301 N 
ATOM      3  H   UNL     1       5.984  -3.308  26.181  0.00  0.00    +0.150 HD
ATOM      4  O   UNL     1       7.561  -5.729  27.482  0.00  0.00    -0.274 OA
ENDROOT
BRANCH   2   5
ATOM      5  CA  UNL     1       8.166  -3.287  26.474  0.00  0.00    +0.180 C 
ATOM      6  C   UNL     1       8.464  -1.756  26.460  0.00  0.00    +0.242 C 
ATOM      7  O   UNL     1       8.217  -0.767  27.110  0.00  0.00    -0.273 OA
ATOM      8  N   UNL     1       9.158  -1.877  25.297  0.00  0.00    -0.258 N 
ATOM      9  CA  UNL     1       9.390  -0.941  24.303  0.00  0.00    +0.136 C 
ATOM     10  C   UNL     1       9.048  -1.240  23.028  0.00  0.00    +0.047 C 
ATOM     11 CL   UNL     1       9.293  -0.199  21.661  0.00  0.00    -0.086 Cl
ATOM     12  C   UNL     1       8.318  -2.512  22.649  0.00  0.00    +0.051 C 
ATOM     13  C   UNL     1       7.647  -3.161  23.854  0.00  0.00    +0.031 C 
ATOM     14  C   UNL     1       8.662  -3.223  24.987  0.00  0.00    +0.111 C 
BRANCH   9  15
ATOM     15  C   UNL     1      10.119   0.335  24.642  0.00  0.00    +0.352 C 
ATOM     16  OXT UNL     1      11.318   0.502  24.470  0.00  0.00    -0.244 OA
BRANCH  15  17
ATOM     17  O   UNL     1       9.375   1.294  25.235  0.00  0.00    -0.476 OA
ATOM     18  H   UNL     1       9.729   1.677  26.066  0.00  0.00    +0.295 HD
ENDBRANCH  15  17
ENDBRANCH   9  15
ENDBRANCH   2   5
BRANCH   1  19
ATOM     19  CA  UNL     1       5.209  -5.764  26.946  0.00  0.00    +0.168 C 
BRANCH  19  20
ATOM     20  C   UNL     1       4.553  -5.751  25.578  0.00  0.00    -0.022 A 
ATOM     21  C   UNL     1       3.218  -5.357  25.377  0.00  0.00    +0.005 A 
ATOM     22  C   UNL     1       2.683  -5.274  24.090  0.00  0.00    +0.000 A 
ATOM     23  C   UNL     1       3.464  -5.598  22.985  0.00  0.00    +0.000 A 
ATOM     24  C   UNL     1       4.779  -6.016  23.165  0.00  0.00    +0.000 A 
ATOM     25  C   UNL     1       5.318  -6.098  24.452  0.00  0.00    +0.005 A 
ENDBRANCH  19  20
BRANCH  19  26
ATOM     26  N   UNL     1       5.332  -7.129  27.511  0.00  0.00    -0.316 NA
ATOM     27  H1  UNL     1       4.498  -7.342  28.052  0.00  0.00    +0.119 HD
ATOM     28  H2  UNL     1       5.298  -7.778  26.719  0.00  0.00    +0.119 HD
ENDBRANCH  19  26
ENDBRANCH   1  19
TORSDOF 6
ENDMDL
MODEL 7
REMARK VINA RESULT:      -6.9      3.029      8.007
REMARK  Name = 
REMARK  6 active torsions:
REMARK  status: ('A' for Active; 'I' for Inactive)
REMARK    1  A    between atoms: N_1  and  CA_2
REMARK    2  A    between atoms: CA_2  and  C_4
REMARK    3  A    between atoms: CA_2  and  C_22
REMARK    4  A    between atoms: N_6  and  CA_7
REMARK    5  A    between atoms: CA_15  and  C_19
REMARK    6  A    between atoms: C_19  and  O_20
REMARK                            x       y       z     vdW  Elec       q    Type
REMARK                         _______ _______ _______ _____ _____    ______ ____
ROOT
ATOM      1  C   UNL     1       8.028  -3.674  26.497  0.00  0.00    +0.235 C 
ATOM      2  N   UNL     1       7.571  -2.385  26.329  0.00  0.00    -0.301 N 
ATOM      3  H   UNL     1       6.600  -2.232  26.068  0.00  0.00    +0.150 HD
ATOM      4  O   UNL     1       9.229  -3.882  26.706  0.00  0.00    -0.274 OA
ENDROOT
BRANCH   2   5
ATOM      5  CA  UNL     1       8.580  -1.289  26.258  0.00  0.00    +0.180 C 
ATOM      6  C   UNL     1       8.140   0.202  26.133  0.00  0.00    +0.242 C 
ATOM      7  O   UNL     1       7.399   0.989  26.675  0.00  0.00    -0.273 OA
ATOM      8  N   UNL     1       8.928   0.369  25.038  0.00  0.00    -0.258 N 
ATOM      9  CA  UNL     1       8.806   1.260  23.986  0.00  0.00    +0.136 C 
ATOM     10  C   UNL     1       8.775   0.782  22.720  0.00  0.00    +0.047 C 
ATOM     11 CL   UNL     1       8.655   1.756  21.290  0.00  0.00    -0.086 Cl
ATOM     12  C   UNL     1       8.757  -0.699  22.402  0.00  0.00    +0.051 C 
ATOM     13  C   UNL     1       8.338  -1.534  23.607  0.00  0.00    +0.031 C 
ATOM     14  C   UNL     1       9.143  -1.066  24.811  0.00  0.00    +0.111 C 
BRANCH   9  15
ATOM     15  C   UNL     1       8.826   2.742  24.264  0.00  0.00    +0.352 C 
ATOM     16  OXT UNL     1       9.806   3.455  24.097  0.00  0.00    -0.244 OA
BRANCH  15  17
ATOM     17  O   UNL     1       7.695   3.253  24.798  0.00  0.00    -0.476 OA
ATOM     18  H   UNL     1       7.407   4.131  24.467  0.00  0.00    +0.295 HD
ENDBRANCH  15  17
ENDBRANCH   9  15
ENDBRANCH   2   5
BRANCH   1  19
ATOM     19  CA  UNL     1       7.068  -4.869  26.282  0.00  0.00    +0.168 C 
BRANCH  19  20
ATOM     20  C   UNL     1       6.712  -5.220  24.850  0.00  0.00    -0.022 A 
ATOM     21  C   UNL     1       7.639  -5.145  23.795  0.00  0.00    +0.005 A 
ATOM     22  C   UNL     1       7.293  -5.564  22.509  0.00  0.00    +0.000 A 
ATOM     23  C   UNL     1       6.014  -6.050  22.251  0.00  0.00    +0.000 A 
ATOM     24  C   UNL     1       5.075  -6.107  23.277  0.00  0.00    +0.000 A 
ATOM     25  C   UNL     1       5.419  -5.690  24.565  0.00  0.00    +0.005 A 
ENDBRANCH  19  20
BRANCH  19  26
ATOM     26  N   UNL     1       7.613  -6.022  27.039  0.00  0.00    -0.316 NA
ATOM     27  H1  UNL     1       8.400  -5.710  27.601  0.00  0.00    +0.119 HD
ATOM     28  H2  UNL     1       6.898  -6.289  27.722  0.00  0.00    +0.119 HD
ENDBRANCH  19  26
ENDBRANCH   1  19
TORSDOF 6
ENDMDL
MODEL 8
REMARK VINA RESULT:      -6.9      1.198      1.590
REMARK  Name = 
REMARK  6 active torsions:
REMARK  status: ('A' for Active; 'I' for Inactive)
REMARK    1  A    between atoms: N_1  and  CA_2
REMARK    2  A    between atoms: CA_2  and  C_4
REMARK    3  A    between atoms: CA_2  and  C_22
REMARK    4  A    between atoms: N_6  and  CA_7
REMARK    5  A    between atoms: CA_15  and  C_19
REMARK    6  A    between atoms: C_19  and  O_20
REMARK                            x       y       z     vdW  Elec       q    Type
REMARK                         _______ _______ _______ _____ _____    ______ ____
ROOT
ATOM      1  C   UNL     1       8.871   1.493  23.800  0.00  0.00    +0.235 C 
ATOM      2  N   UNL     1       9.017   0.153  23.509  0.00  0.00    -0.301 N 
ATOM      3  H   UNL     1       8.913  -0.160  22.547  0.00  0.00    +0.150 HD
ATOM      4  O   UNL     1       8.885   1.874  24.976  0.00  0.00    -0.274 OA
ENDROOT
BRANCH   2   5
ATOM      5  CA  UNL     1       9.038  -0.811  24.646  0.00  0.00    +0.180 C 
ATOM      6  C   UNL     1       9.385  -2.315  24.419  0.00  0.00    +0.242 C 
ATOM      7  O   UNL     1      10.241  -2.991  23.897  0.00  0.00    -0.273 OA
ATOM      8  N   UNL     1       8.239  -2.699  25.042  0.00  0.00    -0.258 N 
ATOM      9  CA  UNL     1       7.494  -3.855  24.891  0.00  0.00    +0.136 C 
ATOM     10  C   UNL     1       6.177  -3.753  24.592  0.00  0.00    +0.047 C 
ATOM     11 CL   UNL     1       5.094  -5.094  24.396  0.00  0.00    -0.086 Cl
ATOM     12  C   UNL     1       5.501  -2.430  24.303  0.00  0.00    +0.051 C 
ATOM     13  C   UNL     1       6.509  -1.339  23.959  0.00  0.00    +0.031 C 
ATOM     14  C   UNL     1       7.616  -1.370  25.003  0.00  0.00    +0.111 C 
BRANCH   9  15
ATOM     15  C   UNL     1       8.133  -5.191  25.174  0.00  0.00    +0.352 C 
ATOM     16  OXT UNL     1       7.981  -5.813  26.217  0.00  0.00    -0.244 OA
BRANCH  15  17
ATOM     17  O   UNL     1       8.971  -5.654  24.221  0.00  0.00    -0.476 OA
ATOM     18  H   UNL     1       8.821  -5.332  23.306  0.00  0.00    +0.295 HD
ENDBRANCH  15  17
ENDBRANCH   9  15
ENDBRANCH   2   5
BRANCH   1  19
ATOM     19  CA  UNL     1       8.548   2.499  22.669  0.00  0.00    +0.168 C 
BRANCH  19  20
ATOM     20  C   UNL     1       8.593   3.973  23.023  0.00  0.00    -0.022 A 
ATOM     21  C   UNL     1       9.683   4.564  23.685  0.00  0.00    +0.005 A 
ATOM     22  C   UNL     1       9.722   5.942  23.911  0.00  0.00    +0.000 A 
ATOM     23  C   UNL     1       8.667   6.749  23.493  0.00  0.00    +0.000 A 
ATOM     24  C   UNL     1       7.567   6.179  22.860  0.00  0.00    +0.000 A 
ATOM     25  C   UNL     1       7.527   4.801  22.631  0.00  0.00    +0.005 A 
ENDBRANCH  19  20
BRANCH  19  26
ATOM     26  N   UNL     1       9.407   2.160  21.510  0.00  0.00    -0.316 NA
ATOM     27  H1  UNL     1       9.554   1.154  21.486  0.00  0.00    +0.119 HD
ATOM     28  H2  UNL     1       8.858   2.360  20.669  0.00  0.00    +0.119 HD
ENDBRANCH  19  26
ENDBRANCH   1  19
TORSDOF 6
ENDMDL
MODEL 9
REMARK VINA RESULT:      -6.7      2.818      4.087
REMARK  Name = 
REMARK  6 active torsions:
REMARK  status: ('A' for Active; 'I' for Inactive)
REMARK    1  A    between atoms: N_1  and  CA_2
REMARK    2  A    between atoms: CA_2  and  C_4
REMARK    3  A    between atoms: CA_2  and  C_22
REMARK    4  A    between atoms: N_6  and  CA_7
REMARK    5  A    between atoms: CA_15  and  C_19
REMARK    6  A    between atoms: C_19  and  O_20
REMARK                            x       y       z     vdW  Elec       q    Type
REMARK                         _______ _______ _______ _____ _____    ______ ____
ROOT
ATOM      1  C   UNL     1       9.141  -1.952  23.900  0.00  0.00    +0.235 C 
ATOM      2  N   UNL     1       8.437  -3.053  24.338  0.00  0.00    -0.301 N 
ATOM      3  H   UNL     1       7.767  -3.495  23.712  0.00  0.00    +0.150 HD
ATOM      4  O   UNL     1       9.876  -1.339  24.682  0.00  0.00    -0.274 OA
ENDROOT
BRANCH   2   5
ATOM      5  CA  UNL     1       8.477  -3.376  25.793  0.00  0.00    +0.180 C 
ATOM      6  C   UNL     1       7.974  -4.753  26.325  0.00  0.00    +0.242 C 
ATOM      7  O   UNL     1       8.130  -5.933  26.112  0.00  0.00    -0.273 OA
ATOM      8  N   UNL     1       7.145  -4.136  27.209  0.00  0.00    -0.258 N 
ATOM      9  CA  UNL     1       5.966  -4.584  27.780  0.00  0.00    +0.136 C 
ATOM     10  C   UNL     1       4.849  -3.829  27.658  0.00  0.00    +0.047 C 
ATOM     11 CL   UNL     1       3.301  -4.226  28.332  0.00  0.00    -0.086 Cl
ATOM     12  C   UNL     1       4.800  -2.564  26.827  0.00  0.00    +0.051 C 
ATOM     13  C   UNL     1       5.955  -2.491  25.835  0.00  0.00    +0.031 C 
ATOM     14  C   UNL     1       7.242  -2.813  26.580  0.00  0.00    +0.111 C 
BRANCH   9  15
ATOM     15  C   UNL     1       5.979  -5.838  28.618  0.00  0.00    +0.352 C 
ATOM     16  OXT UNL     1       6.200  -5.853  29.821  0.00  0.00    -0.244 OA
BRANCH  15  17
ATOM     17  O   UNL     1       5.801  -6.995  27.944  0.00  0.00    -0.476 OA
ATOM     18  H   UNL     1       5.057  -7.565  28.232  0.00  0.00    +0.295 HD
ENDBRANCH  15  17
ENDBRANCH   9  15
ENDBRANCH   2   5
BRANCH   1  19
ATOM     19  CA  UNL     1       8.903  -1.399  22.474  0.00  0.00    +0.168 C 
BRANCH  19  20
ATOM     20  C   UNL     1       8.358   0.012  22.363  0.00  0.00    -0.022 A 
ATOM     21  C   UNL     1       7.069   0.367  22.799  0.00  0.00    +0.005 A 
ATOM     22  C   UNL     1       6.642   1.695  22.760  0.00  0.00    +0.000 A 
ATOM     23  C   UNL     1       7.487   2.688  22.272  0.00  0.00    +0.000 A 
ATOM     24  C   UNL     1       8.756   2.353  21.812  0.00  0.00    +0.000 A 
ATOM     25  C   UNL     1       9.187   1.025  21.852  0.00  0.00    +0.005 A 
ENDBRANCH  19  20
BRANCH  19  26
ATOM     26  N   UNL     1      10.156  -1.593  21.704  0.00  0.00    -0.316 NA
ATOM     27  H1  UNL     1      10.657  -0.709  21.654  0.00  0.00    +0.119 HD
ATOM     28  H2  UNL     1      10.758  -2.198  22.271  0.00  0.00    +0.119 HD
ENDBRANCH  19  26
ENDBRANCH   1  19
TORSDOF 6
ENDMDL
