MODEL 1
REMARK VINA RESULT:      -4.5      0.000      0.000
REMARK  Name = 
REMARK  5 active torsions:
REMARK  status: ('A' for Active; 'I' for Inactive)
REMARK    1  A    between atoms: C_1  and  C_2
REMARK    2  A    between atoms: C_5  and  O_7
REMARK    3  A    between atoms: C_8  and  O_10
REMARK    4  A    between atoms: C_11  and  O_13
REMARK    5  A    between atoms: C_14  and  O_16
REMARK                            x       y       z     vdW  Elec       q    Type
REMARK                         _______ _______ _______ _____ _____    ______ ____
ROOT
ATOM      1  C   UNL     1       9.954  -1.789  23.647  0.00  0.00    +0.041 C 
ATOM      2  C   UNL     1       9.380  -0.414  23.322  0.00  0.00    +0.149 C 
ATOM      3  C   UNL     1       9.145   0.426  24.592  0.00  0.00    +0.174 C 
ATOM      4  C   UNL     1       8.705   1.839  24.212  0.00  0.00    +0.179 C 
ATOM      5  C   UNL     1       9.703   2.471  23.242  0.00  0.00    +0.201 C 
ATOM      6  C   UNL     1       9.957   1.543  22.043  0.00  0.00    +0.279 C 
ATOM      7  O   UNL     1      10.288   0.214  22.405  0.00  0.00    -0.343 OA
ENDROOT
BRANCH   3   8
ATOM      8  O   UNL     1      10.338   0.517  25.382  0.00  0.00    -0.387 OA
ATOM      9  H   UNL     1      11.067   0.621  24.735  0.00  0.00    +0.210 HD
ENDBRANCH   3   8
BRANCH   4  10
ATOM     10  O   UNL     1       8.614   2.644  25.400  0.00  0.00    -0.386 OA
ATOM     11  H   UNL     1       7.890   2.246  25.926  0.00  0.00    +0.210 HD
ENDBRANCH   4  10
BRANCH   5  12
ATOM     12  O   UNL     1       9.179   3.749  22.836  0.00  0.00    -0.384 OA
ATOM     13  H   UNL     1       9.052   3.706  21.867  0.00  0.00    +0.210 HD
ENDBRANCH   5  12
BRANCH   6  14
ATOM     14  O   UNL     1       8.865   1.575  21.126  0.00  0.00    -0.365 OA
ATOM     15  H   UNL     1       8.104   1.976  21.573  0.00  0.00    +0.213 HD
ENDBRANCH   6  14
TORSDOF 4
ENDMDL
MODEL 2
REMARK VINA RESULT:      -4.5      1.487      4.002
REMARK  Name = 
REMARK  5 active torsions:
REMARK  status: ('A' for Active; 'I' for Inactive)
REMARK    1  A    between atoms: C_1  and  C_2
REMARK    2  A    between atoms: C_5  and  O_7
REMARK    3  A    between atoms: C_8  and  O_10
REMARK    4  A    between atoms: C_11  and  O_13
REMARK    5  A    between atoms: C_14  and  O_16
REMARK                            x       y       z     vdW  Elec       q    Type
REMARK                         _______ _______ _______ _____ _____    ______ ____
ROOT
ATOM      1  C   UNL     1       9.076   3.517  23.847  0.00  0.00    +0.041 C 
ATOM      2  C   UNL     1       9.054   1.994  23.754  0.00  0.00    +0.149 C 
ATOM      3  C   UNL     1       9.108   1.506  22.295  0.00  0.00    +0.174 C 
ATOM      4  C   UNL     1       9.224  -0.017  22.255  0.00  0.00    +0.179 C 
ATOM      5  C   UNL     1      10.410  -0.489  23.098  0.00  0.00    +0.201 C 
ATOM      6  C   UNL     1      10.340   0.105  24.514  0.00  0.00    +0.279 C 
ATOM      7  O   UNL     1      10.153   1.509  24.540  0.00  0.00    -0.343 OA
ENDROOT
BRANCH   3   8
ATOM      8  O   UNL     1      10.230   2.067  21.601  0.00  0.00    -0.387 OA
ATOM      9  H   UNL     1       9.896   2.899  21.205  0.00  0.00    +0.210 HD
ENDBRANCH   3   8
BRANCH   4  10
ATOM     10  O   UNL     1       9.401  -0.445  20.894  0.00  0.00    -0.386 OA
ATOM     11  H   UNL     1      10.370  -0.513  20.769  0.00  0.00    +0.210 HD
ENDBRANCH   4  10
BRANCH   5  12
ATOM     12  O   UNL     1      10.399  -1.928  23.113  0.00  0.00    -0.384 OA
ATOM     13  H   UNL     1      11.104  -2.207  23.730  0.00  0.00    +0.210 HD
ENDBRANCH   5  12
BRANCH   6  14
ATOM     14  O   UNL     1       9.360  -0.564  25.305  0.00  0.00    -0.365 OA
ATOM     15  H   UNL     1       8.487  -0.219  25.064  0.00  0.00    +0.213 HD
ENDBRANCH   6  14
TORSDOF 4
ENDMDL
MODEL 3
REMARK VINA RESULT:      -4.5      5.004      6.651
REMARK  Name = 
REMARK  5 active torsions:
REMARK  status: ('A' for Active; 'I' for Inactive)
REMARK    1  A    between atoms: C_1  and  C_2
REMARK    2  A    between atoms: C_5  and  O_7
REMARK    3  A    between atoms: C_8  and  O_10
REMARK    4  A    between atoms: C_11  and  O_13
REMARK    5  A    between atoms: C_14  and  O_16
REMARK                            x       y       z     vdW  Elec       q    Type
REMARK                         _______ _______ _______ _____ _____    ______ ____
ROOT
ATOM      1  C   UNL     1       8.875  -2.499  23.035  0.00  0.00    +0.041 C 
ATOM      2  C   UNL     1       8.928  -3.216  24.380  0.00  0.00    +0.149 C 
ATOM      3  C   UNL     1       7.702  -2.891  25.254  0.00  0.00    +0.174 C 
ATOM      4  C   UNL     1       7.726  -3.735  26.527  0.00  0.00    +0.179 C 
ATOM      5  C   UNL     1       7.852  -5.220  26.186  0.00  0.00    +0.201 C 
ATOM      6  C   UNL     1       9.041  -5.462  25.243  0.00  0.00    +0.279 C 
ATOM      7  O   UNL     1       9.052  -4.619  24.104  0.00  0.00    -0.343 OA
ENDROOT
BRANCH   3   8
ATOM      8  O   UNL     1       6.480  -3.157  24.553  0.00  0.00    -0.387 OA
ATOM      9  H   UNL     1       6.755  -3.523  23.687  0.00  0.00    +0.210 HD
ENDBRANCH   3   8
BRANCH   4  10
ATOM     10  O   UNL     1       6.514  -3.512  27.268  0.00  0.00    -0.386 OA
ATOM     11  H   UNL     1       6.728  -2.800  27.905  0.00  0.00    +0.210 HD
ENDBRANCH   4  10
BRANCH   5  12
ATOM     12  O   UNL     1       7.982  -5.949  27.420  0.00  0.00    -0.384 OA
ATOM     13  H   UNL     1       7.578  -5.395  28.118  0.00  0.00    +0.210 HD
ENDBRANCH   5  12
BRANCH   6  14
ATOM     14  O   UNL     1      10.279  -5.398  25.948  0.00  0.00    -0.365 OA
ATOM     15  H   UNL     1      10.285  -6.101  26.616  0.00  0.00    +0.213 HD
ENDBRANCH   6  14
TORSDOF 4
ENDMDL
MODEL 4
REMARK VINA RESULT:      -4.4      5.325      7.256
REMARK  Name = 
REMARK  5 active torsions:
REMARK  status: ('A' for Active; 'I' for Inactive)
REMARK    1  A    between atoms: C_1  and  C_2
REMARK    2  A    between atoms: C_5  and  O_7
REMARK    3  A    between atoms: C_8  and  O_10
REMARK    4  A    between atoms: C_11  and  O_13
REMARK    5  A    between atoms: C_14  and  O_16
REMARK                            x       y       z     vdW  Elec       q    Type
REMARK                         _______ _______ _______ _____ _____    ______ ____
ROOT
ATOM      1  C   UNL     1       7.154  -3.430  22.561  0.00  0.00    +0.041 C 
ATOM      2  C   UNL     1       7.295  -4.435  23.700  0.00  0.00    +0.149 C 
ATOM      3  C   UNL     1       8.752  -4.553  24.186  0.00  0.00    +0.174 C 
ATOM      4  C   UNL     1       8.823  -5.461  25.413  0.00  0.00    +0.179 C 
ATOM      5  C   UNL     1       7.859  -4.978  26.497  0.00  0.00    +0.201 C 
ATOM      6  C   UNL     1       6.444  -4.799  25.923  0.00  0.00    +0.279 C 
ATOM      7  O   UNL     1       6.398  -4.020  24.740  0.00  0.00    -0.343 OA
ENDROOT
BRANCH   3   8
ATOM      8  O   UNL     1       9.287  -3.270  24.536  0.00  0.00    -0.387 OA
ATOM      9  H   UNL     1       8.548  -2.791  24.965  0.00  0.00    +0.210 HD
ENDBRANCH   3   8
BRANCH   4  10
ATOM     10  O   UNL     1      10.165  -5.458  25.929  0.00  0.00    -0.386 OA
ATOM     11  H   UNL     1      10.389  -4.513  26.060  0.00  0.00    +0.210 HD
ENDBRANCH   4  10
BRANCH   5  12
ATOM     12  O   UNL     1       7.889  -5.932  27.574  0.00  0.00    -0.384 OA
ATOM     13  H   UNL     1       7.269  -5.605  28.256  0.00  0.00    +0.210 HD
ENDBRANCH   5  12
BRANCH   6  14
ATOM     14  O   UNL     1       5.798  -6.058  25.742  0.00  0.00    -0.365 OA
ATOM     15  H   UNL     1       6.170  -6.685  26.380  0.00  0.00    +0.213 HD
ENDBRANCH   6  14
TORSDOF 4
ENDMDL
MODEL 5
REMARK VINA RESULT:      -4.4      5.407      7.005
REMARK  Name = 
REMARK  5 active torsions:
REMARK  status: ('A' for Active; 'I' for Inactive)
REMARK    1  A    between atoms: C_1  and  C_2
REMARK    2  A    between atoms: C_5  and  O_7
REMARK    3  A    between atoms: C_8  and  O_10
REMARK    4  A    between atoms: C_11  and  O_13
REMARK    5  A    between atoms: C_14  and  O_16
REMARK                            x       y       z     vdW  Elec       q    Type
REMARK                         _______ _______ _______ _____ _____    ______ ____
ROOT
ATOM      1  C   UNL     1       5.087  -3.347  24.492  0.00  0.00    +0.041 C 
ATOM      2  C   UNL     1       6.494  -3.578  25.035  0.00  0.00    +0.149 C 
ATOM      3  C   UNL     1       6.508  -4.616  26.173  0.00  0.00    +0.174 C 
ATOM      4  C   UNL     1       7.947  -4.919  26.589  0.00  0.00    +0.179 C 
ATOM      5  C   UNL     1       8.781  -5.335  25.377  0.00  0.00    +0.201 C 
ATOM      6  C   UNL     1       8.652  -4.299  24.248  0.00  0.00    +0.279 C 
ATOM      7  O   UNL     1       7.314  -3.966  23.923  0.00  0.00    -0.343 OA
ENDROOT
BRANCH   3   8
ATOM      8  O   UNL     1       5.883  -5.841  25.765  0.00  0.00    -0.387 OA
ATOM      9  H   UNL     1       5.375  -6.142  26.547  0.00  0.00    +0.210 HD
ENDBRANCH   3   8
BRANCH   4  10
ATOM     10  O   UNL     1       7.947  -5.980  27.559  0.00  0.00    -0.386 OA
ATOM     11  H   UNL     1       8.409  -6.727  27.126  0.00  0.00    +0.210 HD
ENDBRANCH   4  10
BRANCH   5  12
ATOM     12  O   UNL     1      10.144  -5.496  25.811  0.00  0.00    -0.384 OA
ATOM     13  H   UNL     1      10.123  -6.090  26.588  0.00  0.00    +0.210 HD
ENDBRANCH   5  12
BRANCH   6  14
ATOM     14  O   UNL     1       9.425  -3.133  24.529  0.00  0.00    -0.365 OA
ATOM     15  H   UNL     1       9.560  -2.650  23.699  0.00  0.00    +0.213 HD
ENDBRANCH   6  14
TORSDOF 4
ENDMDL
MODEL 6
REMARK VINA RESULT:      -4.4      1.654      3.043
REMARK  Name = 
REMARK  5 active torsions:
REMARK  status: ('A' for Active; 'I' for Inactive)
REMARK    1  A    between atoms: C_1  and  C_2
REMARK    2  A    between atoms: C_5  and  O_7
REMARK    3  A    between atoms: C_8  and  O_10
REMARK    4  A    between atoms: C_11  and  O_13
REMARK    5  A    between atoms: C_14  and  O_16
REMARK                            x       y       z     vdW  Elec       q    Type
REMARK                         _______ _______ _______ _____ _____    ______ ____
ROOT
ATOM      1  C   UNL     1       8.736  -1.454  25.698  0.00  0.00    +0.041 C 
ATOM      2  C   UNL     1       9.460  -0.628  24.640  0.00  0.00    +0.149 C 
ATOM      3  C   UNL     1       9.208  -1.165  23.219  0.00  0.00    +0.174 C 
ATOM      4  C   UNL     1       9.834  -0.231  22.185  0.00  0.00    +0.179 C 
ATOM      5  C   UNL     1       9.343   1.203  22.388  0.00  0.00    +0.201 C 
ATOM      6  C   UNL     1       9.545   1.644  23.847  0.00  0.00    +0.279 C 
ATOM      7  O   UNL     1       9.030   0.731  24.800  0.00  0.00    -0.343 OA
ENDROOT
BRANCH   3   8
ATOM      8  O   UNL     1       7.804  -1.272  22.946  0.00  0.00    -0.387 OA
ATOM      9  H   UNL     1       7.364  -1.142  23.812  0.00  0.00    +0.210 HD
ENDBRANCH   3   8
BRANCH   4  10
ATOM     10  O   UNL     1       9.481  -0.677  20.865  0.00  0.00    -0.386 OA
ATOM     11  H   UNL     1      10.120  -1.389  20.653  0.00  0.00    +0.210 HD
ENDBRANCH   4  10
BRANCH   5  12
ATOM     12  O   UNL     1      10.051   2.049  21.464  0.00  0.00    -0.384 OA
ATOM     13  H   UNL     1      10.971   1.719  21.429  0.00  0.00    +0.210 HD
ENDBRANCH   5  12
BRANCH   6  14
ATOM     14  O   UNL     1      10.914   1.950  24.107  0.00  0.00    -0.365 OA
ATOM     15  H   UNL     1      11.117   2.806  23.701  0.00  0.00    +0.213 HD
ENDBRANCH   6  14
TORSDOF 4
ENDMDL
MODEL 7
REMARK VINA RESULT:      -4.3      1.863      3.533
REMARK  Name = 
REMARK  5 active torsions:
REMARK  status: ('A' for Active; 'I' for Inactive)
REMARK    1  A    between atoms: C_1  and  C_2
REMARK    2  A    between atoms: C_5  and  O_7
REMARK    3  A    between atoms: C_8  and  O_10
REMARK    4  A    between atoms: C_11  and  O_13
REMARK    5  A    between atoms: C_14  and  O_16
REMARK                            x       y       z     vdW  Elec       q    Type
REMARK                         _______ _______ _______ _____ _____    ______ ____
ROOT
ATOM      1  C   UNL     1       8.590  -0.807  26.840  0.00  0.00    +0.041 C 
ATOM      2  C   UNL     1       8.649  -0.942  25.322  0.00  0.00    +0.149 C 
ATOM      3  C   UNL     1       9.348   0.263  24.664  0.00  0.00    +0.174 C 
ATOM      4  C   UNL     1       9.509   0.022  23.164  0.00  0.00    +0.179 C 
ATOM      5  C   UNL     1      10.220  -1.307  22.906  0.00  0.00    +0.201 C 
ATOM      6  C   UNL     1       9.523  -2.450  23.661  0.00  0.00    +0.279 C 
ATOM      7  O   UNL     1       9.307  -2.184  25.036  0.00  0.00    -0.343 OA
ENDROOT
BRANCH   3   8
ATOM      8  O   UNL     1      10.645   0.485  25.233  0.00  0.00    -0.387 OA
ATOM      9  H   UNL     1      11.147   0.971  24.546  0.00  0.00    +0.210 HD
ENDBRANCH   3   8
BRANCH   4  10
ATOM     10  O   UNL     1      10.274   1.096  22.590  0.00  0.00    -0.386 OA
ATOM     11  H   UNL     1       9.636   1.607  22.051  0.00  0.00    +0.210 HD
ENDBRANCH   4  10
BRANCH   5  12
ATOM     12  O   UNL     1      10.241  -1.530  21.485  0.00  0.00    -0.384 OA
ATOM     13  H   UNL     1       9.312  -1.654  21.206  0.00  0.00    +0.210 HD
ENDBRANCH   5  12
BRANCH   6  14
ATOM     14  O   UNL     1       8.314  -2.835  23.010  0.00  0.00    -0.365 OA
ATOM     15  H   UNL     1       8.506  -2.980  22.071  0.00  0.00    +0.213 HD
ENDBRANCH   6  14
TORSDOF 4
ENDMDL
MODEL 8
REMARK VINA RESULT:      -4.3      1.529      1.738
REMARK  Name = 
REMARK  5 active torsions:
REMARK  status: ('A' for Active; 'I' for Inactive)
REMARK    1  A    between atoms: C_1  and  C_2
REMARK    2  A    between atoms: C_5  and  O_7
REMARK    3  A    between atoms: C_8  and  O_10
REMARK    4  A    between atoms: C_11  and  O_13
REMARK    5  A    between atoms: C_14  and  O_16
REMARK                            x       y       z     vdW  Elec       q    Type
REMARK                         _______ _______ _______ _____ _____    ______ ____
ROOT
ATOM      1  C   UNL     1       7.943  -2.618  22.352  0.00  0.00    +0.041 C 
ATOM      2  C   UNL     1       8.251  -1.135  22.538  0.00  0.00    +0.149 C 
ATOM      3  C   UNL     1       8.728  -0.823  23.969  0.00  0.00    +0.174 C 
ATOM      4  C   UNL     1       9.157   0.640  24.071  0.00  0.00    +0.179 C 
ATOM      5  C   UNL     1      10.194   0.973  22.999  0.00  0.00    +0.201 C 
ATOM      6  C   UNL     1       9.690   0.556  21.608  0.00  0.00    +0.279 C 
ATOM      7  O   UNL     1       9.221  -0.779  21.543  0.00  0.00    -0.343 OA
ENDROOT
BRANCH   3   8
ATOM      8  O   UNL     1       9.839  -1.651  24.338  0.00  0.00    -0.387 OA
ATOM      9  H   UNL     1       9.594  -2.554  24.046  0.00  0.00    +0.210 HD
ENDBRANCH   3   8
BRANCH   4  10
ATOM     10  O   UNL     1       9.717   0.881  25.373  0.00  0.00    -0.386 OA
ATOM     11  H   UNL     1       8.964   0.806  25.996  0.00  0.00    +0.210 HD
ENDBRANCH   4  10
BRANCH   5  12
ATOM     12  O   UNL     1      10.473   2.383  23.074  0.00  0.00    -0.384 OA
ATOM     13  H   UNL     1      10.282   2.659  23.993  0.00  0.00    +0.210 HD
ENDBRANCH   5  12
BRANCH   6  14
ATOM     14  O   UNL     1       8.715   1.474  21.117  0.00  0.00    -0.365 OA
ATOM     15  H   UNL     1       7.931   1.417  21.684  0.00  0.00    +0.213 HD
ENDBRANCH   6  14
TORSDOF 4
ENDMDL
MODEL 9
REMARK VINA RESULT:      -4.2      1.540      3.166
REMARK  Name = 
REMARK  5 active torsions:
REMARK  status: ('A' for Active; 'I' for Inactive)
REMARK    1  A    between atoms: C_1  and  C_2
REMARK    2  A    between atoms: C_5  and  O_7
REMARK    3  A    between atoms: C_8  and  O_10
REMARK    4  A    between atoms: C_11  and  O_13
REMARK    5  A    between atoms: C_14  and  O_16
REMARK                            x       y       z     vdW  Elec       q    Type
REMARK                         _______ _______ _______ _____ _____    ______ ____
ROOT
ATOM      1  C   UNL     1       8.160   2.655  25.347  0.00  0.00    +0.041 C 
ATOM      2  C   UNL     1       8.975   1.922  24.286  0.00  0.00    +0.149 C 
ATOM      3  C   UNL     1       9.243   0.456  24.678  0.00  0.00    +0.174 C 
ATOM      4  C   UNL     1       9.937  -0.275  23.530  0.00  0.00    +0.179 C 
ATOM      5  C   UNL     1       9.135  -0.130  22.236  0.00  0.00    +0.201 C 
ATOM      6  C   UNL     1       8.827   1.349  21.952  0.00  0.00    +0.279 C 
ATOM      7  O   UNL     1       8.256   2.039  23.049  0.00  0.00    -0.343 OA
ENDROOT
BRANCH   3   8
ATOM      8  O   UNL     1       8.023  -0.231  24.985  0.00  0.00    -0.387 OA
ATOM      9  H   UNL     1       7.557  -0.323  24.128  0.00  0.00    +0.210 HD
ENDBRANCH   3   8
BRANCH   4  10
ATOM     10  O   UNL     1      10.065  -1.668  23.862  0.00  0.00    -0.386 OA
ATOM     11  H   UNL     1      10.091  -2.137  23.003  0.00  0.00    +0.210 HD
ENDBRANCH   4  10
BRANCH   5  12
ATOM     12  O   UNL     1       9.892  -0.739  21.175  0.00  0.00    -0.384 OA
ATOM     13  H   UNL     1       9.391  -1.530  20.890  0.00  0.00    +0.210 HD
ENDBRANCH   5  12
BRANCH   6  14
ATOM     14  O   UNL     1       9.979   2.028  21.453  0.00  0.00    -0.365 OA
ATOM     15  H   UNL     1      10.654   1.366  21.241  0.00  0.00    +0.213 HD
ENDBRANCH   6  14
TORSDOF 4
ENDMDL
