MODEL 1
REMARK VINA RESULT:      -6.8      0.000      0.000
REMARK  Name = 
REMARK  11 active torsions:
REMARK  status: ('A' for Active; 'I' for Inactive)
REMARK    1  A    between atoms: N_6  and  C_9
REMARK    2  A    between atoms: C_12  and  C_14
REMARK    3  A    between atoms: C_14  and  O_15
REMARK    4  A    between atoms: O_15  and  P_16
REMARK    5  A    between atoms: P_16  and  O_17
REMARK    6  A    between atoms: P_16  and  O_19
REMARK    7  A    between atoms: O_19  and  P_20
REMARK    8  A    between atoms: P_20  and  O_21
REMARK    9  A    between atoms: P_20  and  O_22
REMARK   10  A    between atoms: C_24  and  O_26
REMARK   11  A    between atoms: C_27  and  O_29
REMARK                            x       y       z     vdW  Elec       q    Type
REMARK                         _______ _______ _______ _____ _____    ______ ____
ROOT
ATOM      1  C   UNL     1       9.149  -3.981  24.625  0.00  0.00    +0.255 C 
ATOM      2  C   UNL     1       9.295  -4.857  25.888  0.00  0.00    +0.195 C 
ATOM      3  C   UNL     1       7.862  -5.261  26.249  0.00  0.00    +0.178 C 
ATOM      4  C   UNL     1       6.990  -4.595  25.182  0.00  0.00    +0.178 C 
ATOM      5  O   UNL     1       7.855  -4.320  24.076  0.00  0.00    -0.346 OA
ENDROOT
BRANCH   1  12
ATOM      6  N   UNL     1       9.505   1.527  24.964  0.00  0.00    -0.343 N 
ATOM      7  H   UNL     1       8.769   2.032  25.441  0.00  0.00    +0.144 HD
ATOM      8  H   UNL     1       9.767   1.933  24.071  0.00  0.00    +0.144 HD
ATOM      9  C   UNL     1       9.411   0.165  24.912  0.00  0.00    +0.123 A 
ATOM     10  C   UNL     1       8.701  -0.552  25.984  0.00  0.00    +0.061 A 
ATOM     11  C   UNL     1       8.630  -1.875  25.854  0.00  0.00    +0.096 A 
ATOM     12  N   UNL     1       9.222  -2.527  24.792  0.00  0.00    -0.270 N 
ATOM     13  C   UNL     1       9.897  -1.805  23.794  0.00  0.00    +0.352 A 
ATOM     14  O   UNL     1      10.430  -2.369  22.842  0.00  0.00    -0.244 OA
ATOM     15  N   UNL     1       9.956  -0.432  23.901  0.00  0.00    -0.178 NA
ENDBRANCH   1  12
BRANCH   2  16
ATOM     16  O   UNL     1      10.068  -6.043  25.612  0.00  0.00    -0.385 OA
ATOM     17  H   UNL     1      10.337  -6.025  24.677  0.00  0.00    +0.210 HD
ENDBRANCH   2  16
BRANCH   3  18
ATOM     18  O   UNL     1       7.503  -4.791  27.548  0.00  0.00    -0.386 OA
ATOM     19  H   UNL     1       8.209  -5.086  28.156  0.00  0.00    +0.210 HD
ENDBRANCH   3  18
BRANCH   4  20
ATOM     20  C   UNL     1       5.808  -5.460  24.743  0.00  0.00    +0.206 C 
BRANCH  20  21
ATOM     21  O   UNL     1       5.613  -6.546  25.646  0.00  0.00    -0.284 OA
BRANCH  21  22
ATOM     22  P   UNL     1       4.121  -6.668  26.342  0.00  0.00    +0.483 P 
ATOM     23  O   UNL     1       3.234  -5.595  25.716  0.00  0.00    -0.227 OA
BRANCH  22  24
ATOM     24  O   UNL     1       3.647  -7.740  25.070  0.00  0.00    -0.302 OA
ATOM     25  H   UNL     1       4.332  -7.609  24.383  0.00  0.00    +0.222 HD
ENDBRANCH  22  24
BRANCH  22  26
ATOM     26  O   UNL     1       4.596  -5.596  27.614  0.00  0.00    -0.186 OA
BRANCH  26  27
ATOM     27  P   UNL     1       4.515  -6.427  29.129  0.00  0.00    +0.481 P 
ATOM     28  O   UNL     1       4.443  -7.172  30.485  0.00  0.00    -0.227 OA
BRANCH  27  29
ATOM     29  O   UNL     1       5.773  -5.468  29.558  0.00  0.00    -0.302 OA
ATOM     30  H   UNL     1       5.613  -5.007  30.402  0.00  0.00    +0.222 HD
ENDBRANCH  27  29
BRANCH  27  31
ATOM     31  O   UNL     1       5.478  -7.547  28.429  0.00  0.00    -0.302 OA
ATOM     32  H   UNL     1       5.271  -7.498  27.472  0.00  0.00    +0.222 HD
ENDBRANCH  27  31
ENDBRANCH  26  27
ENDBRANCH  22  26
ENDBRANCH  21  22
ENDBRANCH  20  21
ENDBRANCH   4  20
TORSDOF 11
ENDMDL
MODEL 2
REMARK VINA RESULT:      -6.7      2.869      3.739
REMARK  Name = 
REMARK  11 active torsions:
REMARK  status: ('A' for Active; 'I' for Inactive)
REMARK    1  A    between atoms: N_6  and  C_9
REMARK    2  A    between atoms: C_12  and  C_14
REMARK    3  A    between atoms: C_14  and  O_15
REMARK    4  A    between atoms: O_15  and  P_16
REMARK    5  A    between atoms: P_16  and  O_17
REMARK    6  A    between atoms: P_16  and  O_19
REMARK    7  A    between atoms: O_19  and  P_20
REMARK    8  A    between atoms: P_20  and  O_21
REMARK    9  A    between atoms: P_20  and  O_22
REMARK   10  A    between atoms: C_24  and  O_26
REMARK   11  A    between atoms: C_27  and  O_29
REMARK                            x       y       z     vdW  Elec       q    Type
REMARK                         _______ _______ _______ _____ _____    ______ ____
ROOT
ATOM      1  C   UNL     1       9.339  -2.187  23.339  0.00  0.00    +0.255 C 
ATOM      2  C   UNL     1       9.481  -2.950  24.674  0.00  0.00    +0.195 C 
ATOM      3  C   UNL     1       8.057  -3.020  25.235  0.00  0.00    +0.178 C 
ATOM      4  C   UNL     1       7.195  -2.297  24.198  0.00  0.00    +0.178 C 
ATOM      5  O   UNL     1       7.945  -2.309  22.979  0.00  0.00    -0.346 OA
ENDROOT
BRANCH   1  12
ATOM      6  N   UNL     1      10.602   3.186  23.001  0.00  0.00    -0.343 N 
ATOM      7  H   UNL     1      10.422   3.779  23.802  0.00  0.00    +0.144 HD
ATOM      8  H   UNL     1      10.289   3.582  22.121  0.00  0.00    +0.144 HD
ATOM      9  C   UNL     1      10.306   1.858  23.113  0.00  0.00    +0.123 A 
ATOM     10  C   UNL     1      10.351   1.215  24.437  0.00  0.00    +0.061 A 
ATOM     11  C   UNL     1      10.028  -0.075  24.471  0.00  0.00    +0.096 A 
ATOM     12  N   UNL     1       9.707  -0.768  23.323  0.00  0.00    -0.270 N 
ATOM     13  C   UNL     1       9.683  -0.119  22.078  0.00  0.00    +0.352 A 
ATOM     14  O   UNL     1       9.399  -0.720  21.044  0.00  0.00    -0.244 OA
ATOM     15  N   UNL     1       9.989   1.224  22.029  0.00  0.00    -0.178 NA
ENDBRANCH   1  12
BRANCH   2  16
ATOM     16  O   UNL     1       9.974  -4.288  24.459  0.00  0.00    -0.385 OA
ATOM     17  H   UNL     1       9.602  -4.868  25.147  0.00  0.00    +0.210 HD
ENDBRANCH   2  16
BRANCH   3  18
ATOM     18  O   UNL     1       7.966  -2.366  26.500  0.00  0.00    -0.386 OA
ATOM     19  H   UNL     1       7.023  -2.381  26.755  0.00  0.00    +0.210 HD
ENDBRANCH   3  18
BRANCH   4  20
ATOM     20  C   UNL     1       5.824  -2.943  23.996  0.00  0.00    +0.206 C 
BRANCH  20  21
ATOM     21  O   UNL     1       5.930  -4.365  24.000  0.00  0.00    -0.284 OA
BRANCH  21  22
ATOM     22  P   UNL     1       5.590  -5.133  22.578  0.00  0.00    +0.483 P 
ATOM     23  O   UNL     1       5.372  -4.058  21.517  0.00  0.00    -0.227 OA
BRANCH  22  24
ATOM     24  O   UNL     1       7.276  -5.109  22.195  0.00  0.00    -0.302 OA
ATOM     25  H   UNL     1       7.295  -4.981  21.224  0.00  0.00    +0.222 HD
ENDBRANCH  22  24
BRANCH  22  26
ATOM     26  O   UNL     1       3.902  -5.157  22.963  0.00  0.00    -0.186 OA
BRANCH  26  27
ATOM     27  P   UNL     1       3.543  -6.570  23.893  0.00  0.00    +0.481 P 
ATOM     28  O   UNL     1       3.222  -7.836  24.725  0.00  0.00    -0.227 OA
BRANCH  27  29
ATOM     29  O   UNL     1       4.995  -7.113  23.360  0.00  0.00    -0.302 OA
ATOM     30  H   UNL     1       5.343  -7.835  23.915  0.00  0.00    +0.222 HD
ENDBRANCH  27  29
BRANCH  27  31
ATOM     31  O   UNL     1       2.748  -7.095  22.566  0.00  0.00    -0.302 OA
ATOM     32  H   UNL     1       2.037  -7.676  22.908  0.00  0.00    +0.222 HD
ENDBRANCH  27  31
ENDBRANCH  26  27
ENDBRANCH  22  26
ENDBRANCH  21  22
ENDBRANCH  20  21
ENDBRANCH   4  20
TORSDOF 11
ENDMDL
MODEL 3
REMARK VINA RESULT:      -6.7      2.311      3.373
REMARK  Name = 
REMARK  11 active torsions:
REMARK  status: ('A' for Active; 'I' for Inactive)
REMARK    1  A    between atoms: N_6  and  C_9
REMARK    2  A    between atoms: C_12  and  C_14
REMARK    3  A    between atoms: C_14  and  O_15
REMARK    4  A    between atoms: O_15  and  P_16
REMARK    5  A    between atoms: P_16  and  O_17
REMARK    6  A    between atoms: P_16  and  O_19
REMARK    7  A    between atoms: O_19  and  P_20
REMARK    8  A    between atoms: P_20  and  O_21
REMARK    9  A    between atoms: P_20  and  O_22
REMARK   10  A    between atoms: C_24  and  O_26
REMARK   11  A    between atoms: C_27  and  O_29
REMARK                            x       y       z     vdW  Elec       q    Type
REMARK                         _______ _______ _______ _____ _____    ______ ____
ROOT
ATOM      1  C   UNL     1       9.442  -2.418  24.420  0.00  0.00    +0.255 C 
ATOM      2  C   UNL     1       8.266  -2.484  25.418  0.00  0.00    +0.195 C 
ATOM      3  C   UNL     1       7.228  -3.383  24.737  0.00  0.00    +0.178 C 
ATOM      4  C   UNL     1       7.866  -3.770  23.402  0.00  0.00    +0.178 C 
ATOM      5  O   UNL     1       9.273  -3.568  23.560  0.00  0.00    -0.346 OA
ENDROOT
BRANCH   1  12
ATOM      6  N   UNL     1      10.053   2.232  21.492  0.00  0.00    -0.343 N 
ATOM      7  H   UNL     1      10.299   2.161  20.512  0.00  0.00    +0.144 HD
ATOM      8  H   UNL     1      10.601   2.918  22.002  0.00  0.00    +0.144 HD
ATOM      9  C   UNL     1       9.882   1.072  22.192  0.00  0.00    +0.123 A 
ATOM     10  C   UNL     1       9.442  -0.141  21.484  0.00  0.00    +0.061 A 
ATOM     11  C   UNL     1       9.320  -1.239  22.227  0.00  0.00    +0.096 A 
ATOM     12  N   UNL     1       9.561  -1.220  23.585  0.00  0.00    -0.270 N 
ATOM     13  C   UNL     1       9.972  -0.039  24.223  0.00  0.00    +0.352 A 
ATOM     14  O   UNL     1      10.191  -0.003  25.431  0.00  0.00    -0.244 OA
ATOM     15  N   UNL     1      10.129   1.100  23.462  0.00  0.00    -0.178 NA
ENDBRANCH   1  12
BRANCH   2  16
ATOM     16  O   UNL     1       8.673  -3.087  26.663  0.00  0.00    -0.385 OA
ATOM     17  H   UNL     1       9.514  -3.556  26.519  0.00  0.00    +0.210 HD
ENDBRANCH   2  16
BRANCH   3  18
ATOM     18  O   UNL     1       6.003  -2.684  24.519  0.00  0.00    -0.386 OA
ATOM     19  H   UNL     1       5.297  -3.224  24.927  0.00  0.00    +0.210 HD
ENDBRANCH   3  18
BRANCH   4  20
ATOM     20  C   UNL     1       7.569  -5.212  22.987  0.00  0.00    +0.206 C 
BRANCH  20  21
ATOM     21  O   UNL     1       6.455  -5.728  23.713  0.00  0.00    -0.284 OA
BRANCH  21  22
ATOM     22  P   UNL     1       5.019  -5.805  22.904  0.00  0.00    +0.483 P 
ATOM     23  O   UNL     1       4.797  -4.451  22.235  0.00  0.00    -0.227 OA
BRANCH  22  24
ATOM     24  O   UNL     1       5.875  -6.314  21.490  0.00  0.00    -0.302 OA
ATOM     25  H   UNL     1       5.250  -6.136  20.758  0.00  0.00    +0.222 HD
ENDBRANCH  22  24
BRANCH  22  26
ATOM     26  O   UNL     1       4.163  -5.295  24.319  0.00  0.00    -0.186 OA
BRANCH  26  27
ATOM     27  P   UNL     1       3.388  -6.660  25.047  0.00  0.00    +0.481 P 
ATOM     28  O   UNL     1       2.696  -7.882  25.698  0.00  0.00    -0.227 OA
BRANCH  27  29
ATOM     29  O   UNL     1       4.768  -6.792  25.922  0.00  0.00    -0.302 OA
ATOM     30  H   UNL     1       4.705  -6.331  26.779  0.00  0.00    +0.222 HD
ENDBRANCH  27  29
BRANCH  27  31
ATOM     31  O   UNL     1       3.986  -7.517  23.790  0.00  0.00    -0.302 OA
ATOM     32  H   UNL     1       3.250  -7.568  23.145  0.00  0.00    +0.222 HD
ENDBRANCH  27  31
ENDBRANCH  26  27
ENDBRANCH  22  26
ENDBRANCH  21  22
ENDBRANCH  20  21
ENDBRANCH   4  20
TORSDOF 11
ENDMDL
MODEL 4
REMARK VINA RESULT:      -6.7      3.509      4.589
REMARK  Name = 
REMARK  11 active torsions:
REMARK  status: ('A' for Active; 'I' for Inactive)
REMARK    1  A    between atoms: N_6  and  C_9
REMARK    2  A    between atoms: C_12  and  C_14
REMARK    3  A    between atoms: C_14  and  O_15
REMARK    4  A    between atoms: O_15  and  P_16
REMARK    5  A    between atoms: P_16  and  O_17
REMARK    6  A    between atoms: P_16  and  O_19
REMARK    7  A    between atoms: O_19  and  P_20
REMARK    8  A    between atoms: P_20  and  O_21
REMARK    9  A    between atoms: P_20  and  O_22
REMARK   10  A    between atoms: C_24  and  O_26
REMARK   11  A    between atoms: C_27  and  O_29
REMARK                            x       y       z     vdW  Elec       q    Type
REMARK                         _______ _______ _______ _____ _____    ______ ____
ROOT
ATOM      1  C   UNL     1       8.805  -0.316  24.872  0.00  0.00    +0.255 C 
ATOM      2  C   UNL     1       7.541  -0.628  25.703  0.00  0.00    +0.195 C 
ATOM      3  C   UNL     1       6.530  -1.165  24.685  0.00  0.00    +0.178 C 
ATOM      4  C   UNL     1       7.268  -1.126  23.346  0.00  0.00    +0.178 C 
ATOM      5  O   UNL     1       8.663  -1.092  23.661  0.00  0.00    -0.346 OA
ENDROOT
BRANCH   1  12
ATOM      6  N   UNL     1      10.002   4.870  23.372  0.00  0.00    -0.343 N 
ATOM      7  H   UNL     1       9.271   5.437  22.961  0.00  0.00    +0.144 HD
ATOM      8  H   UNL     1      10.884   4.913  22.870  0.00  0.00    +0.144 HD
ATOM      9  C   UNL     1       9.680   3.600  23.758  0.00  0.00    +0.123 A 
ATOM     10  C   UNL     1       8.298   3.295  24.162  0.00  0.00    +0.061 A 
ATOM     11  C   UNL     1       8.054   2.033  24.503  0.00  0.00    +0.096 A 
ATOM     12  N   UNL     1       9.053   1.082  24.509  0.00  0.00    -0.270 N 
ATOM     13  C   UNL     1      10.362   1.416  24.124  0.00  0.00    +0.352 A 
ATOM     14  O   UNL     1      11.265   0.583  24.122  0.00  0.00    -0.244 OA
ATOM     15  N   UNL     1      10.624   2.714  23.742  0.00  0.00    -0.178 NA
ENDBRANCH   1  12
BRANCH   2  16
ATOM     16  O   UNL     1       7.806  -1.644  26.692  0.00  0.00    -0.385 OA
ATOM     17  H   UNL     1       7.072  -1.650  27.331  0.00  0.00    +0.210 HD
ENDBRANCH   2  16
BRANCH   3  18
ATOM     18  O   UNL     1       5.363  -0.346  24.633  0.00  0.00    -0.386 OA
ATOM     19  H   UNL     1       4.658  -0.834  25.102  0.00  0.00    +0.210 HD
ENDBRANCH   3  18
BRANCH   4  20
ATOM     20  C   UNL     1       6.945  -2.316  22.443  0.00  0.00    +0.206 C 
BRANCH  20  21
ATOM     21  O   UNL     1       7.841  -3.398  22.692  0.00  0.00    -0.284 OA
BRANCH  21  22
ATOM     22  P   UNL     1       7.158  -4.832  23.141  0.00  0.00    +0.483 P 
ATOM     23  O   UNL     1       6.598  -4.653  24.550  0.00  0.00    -0.227 OA
BRANCH  22  24
ATOM     24  O   UNL     1       5.645  -4.275  22.515  0.00  0.00    -0.302 OA
ATOM     25  H   UNL     1       5.443  -3.484  23.055  0.00  0.00    +0.222 HD
ENDBRANCH  22  24
BRANCH  22  26
ATOM     26  O   UNL     1       8.672  -5.389  23.767  0.00  0.00    -0.186 OA
BRANCH  26  27
ATOM     27  P   UNL     1       8.795  -4.966  25.440  0.00  0.00    +0.481 P 
ATOM     28  O   UNL     1       8.905  -4.588  26.937  0.00  0.00    -0.227 OA
BRANCH  27  29
ATOM     29  O   UNL     1       9.434  -3.562  24.888  0.00  0.00    -0.302 OA
ATOM     30  H   UNL     1       9.803  -3.018  25.609  0.00  0.00    +0.222 HD
ENDBRANCH  27  29
BRANCH  27  31
ATOM     31  O   UNL     1      10.230  -5.747  25.408  0.00  0.00    -0.302 OA
ATOM     32  H   UNL     1      10.902  -5.052  25.564  0.00  0.00    +0.222 HD
ENDBRANCH  27  31
ENDBRANCH  26  27
ENDBRANCH  22  26
ENDBRANCH  21  22
ENDBRANCH  20  21
ENDBRANCH   4  20
TORSDOF 11
ENDMDL
MODEL 5
REMARK VINA RESULT:      -6.7      4.178      7.791
REMARK  Name = 
REMARK  11 active torsions:
REMARK  status: ('A' for Active; 'I' for Inactive)
REMARK    1  A    between atoms: N_6  and  C_9
REMARK    2  A    between atoms: C_12  and  C_14
REMARK    3  A    between atoms: C_14  and  O_15
REMARK    4  A    between atoms: O_15  and  P_16
REMARK    5  A    between atoms: P_16  and  O_17
REMARK    6  A    between atoms: P_16  and  O_19
REMARK    7  A    between atoms: O_19  and  P_20
REMARK    8  A    between atoms: P_20  and  O_21
REMARK    9  A    between atoms: P_20  and  O_22
REMARK   10  A    between atoms: C_24  and  O_26
REMARK   11  A    between atoms: C_27  and  O_29
REMARK                            x       y       z     vdW  Elec       q    Type
REMARK                         _______ _______ _______ _____ _____    ______ ____
ROOT
ATOM      1  C   UNL     1       8.129  -4.874  26.018  0.00  0.00    +0.255 C 
ATOM      2  C   UNL     1       8.898  -4.791  24.682  0.00  0.00    +0.195 C 
ATOM      3  C   UNL     1       8.625  -3.375  24.163  0.00  0.00    +0.178 C 
ATOM      4  C   UNL     1       7.722  -2.741  25.223  0.00  0.00    +0.178 C 
ATOM      5  O   UNL     1       7.917  -3.501  26.419  0.00  0.00    -0.346 OA
ENDROOT
BRANCH   1  12
ATOM      6  N   UNL     1       3.262  -7.480  26.326  0.00  0.00    -0.343 N 
ATOM      7  H   UNL     1       2.520  -7.199  25.697  0.00  0.00    +0.144 HD
ATOM      8  H   UNL     1       2.961  -7.584  27.291  0.00  0.00    +0.144 HD
ATOM      9  C   UNL     1       4.464  -6.841  26.218  0.00  0.00    +0.123 A 
ATOM     10  C   UNL     1       4.873  -6.285  24.918  0.00  0.00    +0.061 A 
ATOM     11  C   UNL     1       6.046  -5.656  24.894  0.00  0.00    +0.096 A 
ATOM     12  N   UNL     1       6.839  -5.569  26.020  0.00  0.00    -0.270 N 
ATOM     13  C   UNL     1       6.415  -6.120  27.239  0.00  0.00    +0.352 A 
ATOM     14  O   UNL     1       7.108  -6.052  28.252  0.00  0.00    -0.244 OA
ATOM     15  N   UNL     1       5.190  -6.750  27.286  0.00  0.00    -0.178 NA
ENDBRANCH   1  12
BRANCH   2  16
ATOM     16  O   UNL     1      10.316  -4.958  24.886  0.00  0.00    -0.385 OA
ATOM     17  H   UNL     1      10.474  -5.127  25.832  0.00  0.00    +0.210 HD
ENDBRANCH   2  16
BRANCH   3  18
ATOM     18  O   UNL     1       7.963  -3.406  22.899  0.00  0.00    -0.386 OA
ATOM     19  H   UNL     1       7.355  -4.170  22.922  0.00  0.00    +0.210 HD
ENDBRANCH   3  18
BRANCH   4  20
ATOM     20  C   UNL     1       8.024  -1.262  25.466  0.00  0.00    +0.206 C 
BRANCH  20  21
ATOM     21  O   UNL     1       8.640  -0.677  24.320  0.00  0.00    -0.284 OA
BRANCH  21  22
ATOM     22  P   UNL     1      10.085   0.083  24.568  0.00  0.00    +0.483 P 
ATOM     23  O   UNL     1       9.814   1.585  24.591  0.00  0.00    -0.227 OA
BRANCH  22  24
ATOM     24  O   UNL     1       9.781   0.046  26.270  0.00  0.00    -0.302 OA
ATOM     25  H   UNL     1       8.956  -0.475  26.351  0.00  0.00    +0.222 HD
ENDBRANCH  22  24
BRANCH  22  26
ATOM     26  O   UNL     1      10.389   0.120  22.865  0.00  0.00    -0.186 OA
BRANCH  26  27
ATOM     27  P   UNL     1       9.082   0.921  22.063  0.00  0.00    +0.481 P 
ATOM     28  O   UNL     1       7.912   1.639  21.346  0.00  0.00    -0.227 OA
BRANCH  27  29
ATOM     29  O   UNL     1       9.369  -0.139  20.847  0.00  0.00    -0.302 OA
ATOM     30  H   UNL     1       9.402  -1.061  21.163  0.00  0.00    +0.222 HD
ENDBRANCH  27  29
BRANCH  27  31
ATOM     31  O   UNL     1      10.211   1.981  21.540  0.00  0.00    -0.302 OA
ATOM     32  H   UNL     1      11.069   1.531  21.686  0.00  0.00    +0.222 HD
ENDBRANCH  27  31
ENDBRANCH  26  27
ENDBRANCH  22  26
ENDBRANCH  21  22
ENDBRANCH  20  21
ENDBRANCH   4  20
TORSDOF 11
ENDMDL
MODEL 6
REMARK VINA RESULT:      -6.6      4.652      7.708
REMARK  Name = 
REMARK  11 active torsions:
REMARK  status: ('A' for Active; 'I' for Inactive)
REMARK    1  A    between atoms: N_6  and  C_9
REMARK    2  A    between atoms: C_12  and  C_14
REMARK    3  A    between atoms: C_14  and  O_15
REMARK    4  A    between atoms: O_15  and  P_16
REMARK    5  A    between atoms: P_16  and  O_17
REMARK    6  A    between atoms: P_16  and  O_19
REMARK    7  A    between atoms: O_19  and  P_20
REMARK    8  A    between atoms: P_20  and  O_21
REMARK    9  A    between atoms: P_20  and  O_22
REMARK   10  A    between atoms: C_24  and  O_26
REMARK   11  A    between atoms: C_27  and  O_29
REMARK                            x       y       z     vdW  Elec       q    Type
REMARK                         _______ _______ _______ _____ _____    ______ ____
ROOT
ATOM      1  C   UNL     1       7.693  -5.079  23.787  0.00  0.00    +0.255 C 
ATOM      2  C   UNL     1       6.739  -5.310  22.595  0.00  0.00    +0.195 C 
ATOM      3  C   UNL     1       6.247  -3.909  22.214  0.00  0.00    +0.178 C 
ATOM      4  C   UNL     1       6.942  -2.972  23.204  0.00  0.00    +0.178 C 
ATOM      5  O   UNL     1       8.075  -3.688  23.703  0.00  0.00    -0.346 OA
ENDROOT
BRANCH   1  12
ATOM      6  N   UNL     1       6.009  -5.968  28.978  0.00  0.00    -0.343 N 
ATOM      7  H   UNL     1       5.061  -5.717  29.231  0.00  0.00    +0.144 HD
ATOM      8  H   UNL     1       6.706  -5.659  29.649  0.00  0.00    +0.144 HD
ATOM      9  C   UNL     1       6.398  -5.764  27.686  0.00  0.00    +0.123 A 
ATOM     10  C   UNL     1       5.392  -5.807  26.612  0.00  0.00    +0.061 A 
ATOM     11  C   UNL     1       5.841  -5.576  25.381  0.00  0.00    +0.096 A 
ATOM     12  N   UNL     1       7.179  -5.345  25.133  0.00  0.00    -0.270 N 
ATOM     13  C   UNL     1       8.107  -5.320  26.186  0.00  0.00    +0.352 A 
ATOM     14  O   UNL     1       9.302  -5.116  25.985  0.00  0.00    -0.244 OA
ATOM     15  N   UNL     1       7.653  -5.531  27.470  0.00  0.00    -0.178 NA
ENDBRANCH   1  12
BRANCH   2  16
ATOM     16  O   UNL     1       7.436  -5.890  21.475  0.00  0.00    -0.385 OA
ATOM     17  H   UNL     1       7.494  -6.852  21.612  0.00  0.00    +0.210 HD
ENDBRANCH   2  16
BRANCH   3  18
ATOM     18  O   UNL     1       4.830  -3.805  22.342  0.00  0.00    -0.386 OA
ATOM     19  H   UNL     1       4.449  -4.143  21.508  0.00  0.00    +0.210 HD
ENDBRANCH   3  18
BRANCH   4  20
ATOM     20  C   UNL     1       7.372  -1.645  22.578  0.00  0.00    +0.206 C 
BRANCH  20  21
ATOM     21  O   UNL     1       8.456  -1.070  23.305  0.00  0.00    -0.284 OA
BRANCH  21  22
ATOM     22  P   UNL     1       9.531  -0.168  22.436  0.00  0.00    +0.483 P 
ATOM     23  O   UNL     1      10.793  -0.019  23.282  0.00  0.00    -0.227 OA
BRANCH  22  24
ATOM     24  O   UNL     1      10.189  -1.630  21.787  0.00  0.00    -0.302 OA
ATOM     25  H   UNL     1      10.973  -1.331  21.282  0.00  0.00    +0.222 HD
ENDBRANCH  22  24
BRANCH  22  26
ATOM     26  O   UNL     1       8.871   1.294  23.086  0.00  0.00    -0.186 OA
BRANCH  26  27
ATOM     27  P   UNL     1      10.118   2.488  23.199  0.00  0.00    +0.481 P 
ATOM     28  O   UNL     1      11.234   3.557  23.299  0.00  0.00    -0.227 OA
BRANCH  27  29
ATOM     29  O   UNL     1       8.906   3.566  22.962  0.00  0.00    -0.302 OA
ATOM     30  H   UNL     1       8.368   3.347  22.179  0.00  0.00    +0.222 HD
ENDBRANCH  27  29
BRANCH  27  31
ATOM     31  O   UNL     1      10.339   2.235  21.600  0.00  0.00    -0.302 OA
ATOM     32  H   UNL     1      11.091   2.812  21.352  0.00  0.00    +0.222 HD
ENDBRANCH  27  31
ENDBRANCH  26  27
ENDBRANCH  22  26
ENDBRANCH  21  22
ENDBRANCH  20  21
ENDBRANCH   4  20
TORSDOF 11
ENDMDL
MODEL 7
REMARK VINA RESULT:      -6.5      2.813      4.260
REMARK  Name = 
REMARK  11 active torsions:
REMARK  status: ('A' for Active; 'I' for Inactive)
REMARK    1  A    between atoms: N_6  and  C_9
REMARK    2  A    between atoms: C_12  and  C_14
REMARK    3  A    between atoms: C_14  and  O_15
REMARK    4  A    between atoms: O_15  and  P_16
REMARK    5  A    between atoms: P_16  and  O_17
REMARK    6  A    between atoms: P_16  and  O_19
REMARK    7  A    between atoms: O_19  and  P_20
REMARK    8  A    between atoms: P_20  and  O_21
REMARK    9  A    between atoms: P_20  and  O_22
REMARK   10  A    between atoms: C_24  and  O_26
REMARK   11  A    between atoms: C_27  and  O_29
REMARK                            x       y       z     vdW  Elec       q    Type
REMARK                         _______ _______ _______ _____ _____    ______ ____
ROOT
ATOM      1  C   UNL     1       9.122  -1.650  23.290  0.00  0.00    +0.255 C 
ATOM      2  C   UNL     1       9.468  -2.500  24.531  0.00  0.00    +0.195 C 
ATOM      3  C   UNL     1       8.205  -2.458  25.396  0.00  0.00    +0.178 C 
ATOM      4  C   UNL     1       7.222  -1.592  24.607  0.00  0.00    +0.178 C 
ATOM      5  O   UNL     1       7.677  -1.608  23.250  0.00  0.00    -0.346 OA
ENDROOT
BRANCH   1  12
ATOM      6  N   UNL     1      10.922   3.558  22.828  0.00  0.00    -0.343 N 
ATOM      7  H   UNL     1      10.832   4.176  23.625  0.00  0.00    +0.144 HD
ATOM      8  H   UNL     1      10.622   3.974  21.952  0.00  0.00    +0.144 HD
ATOM      9  C   UNL     1      10.494   2.269  22.970  0.00  0.00    +0.123 A 
ATOM     10  C   UNL     1      10.518   1.641  24.301  0.00  0.00    +0.061 A 
ATOM     11  C   UNL     1      10.064   0.392  24.366  0.00  0.00    +0.096 A 
ATOM     12  N   UNL     1       9.633  -0.278  23.239  0.00  0.00    -0.270 N 
ATOM     13  C   UNL     1       9.635   0.356  21.986  0.00  0.00    +0.352 A 
ATOM     14  O   UNL     1       9.255  -0.225  20.972  0.00  0.00    -0.244 OA
ATOM     15  N   UNL     1      10.076   1.659  21.907  0.00  0.00    -0.178 NA
ENDBRANCH   1  12
BRANCH   2  16
ATOM     16  O   UNL     1       9.748  -3.867  24.164  0.00  0.00    -0.385 OA
ATOM     17  H   UNL     1      10.043  -3.883  23.236  0.00  0.00    +0.210 HD
ENDBRANCH   2  16
BRANCH   3  18
ATOM     18  O   UNL     1       8.470  -1.874  26.671  0.00  0.00    -0.386 OA
ATOM     19  H   UNL     1       7.610  -1.573  27.024  0.00  0.00    +0.210 HD
ENDBRANCH   3  18
BRANCH   4  20
ATOM     20  C   UNL     1       5.777  -2.082  24.699  0.00  0.00    +0.206 C 
BRANCH  20  21
ATOM     21  O   UNL     1       5.732  -3.465  25.045  0.00  0.00    -0.284 OA
BRANCH  21  22
ATOM     22  P   UNL     1       4.490  -4.345  24.407  0.00  0.00    +0.483 P 
ATOM     23  O   UNL     1       3.940  -5.234  25.519  0.00  0.00    -0.227 OA
BRANCH  22  24
ATOM     24  O   UNL     1       3.392  -3.108  24.913  0.00  0.00    -0.302 OA
ATOM     25  H   UNL     1       3.607  -2.973  25.858  0.00  0.00    +0.222 HD
ENDBRANCH  22  24
BRANCH  22  26
ATOM     26  O   UNL     1       5.589  -5.582  23.901  0.00  0.00    -0.186 OA
BRANCH  26  27
ATOM     27  P   UNL     1       5.834  -5.472  22.193  0.00  0.00    +0.481 P 
ATOM     28  O   UNL     1       6.053  -5.372  20.663  0.00  0.00    -0.227 OA
BRANCH  27  29
ATOM     29  O   UNL     1       7.115  -4.527  22.583  0.00  0.00    -0.302 OA
ATOM     30  H   UNL     1       7.896  -4.720  22.031  0.00  0.00    +0.222 HD
ENDBRANCH  27  29
BRANCH  27  31
ATOM     31  O   UNL     1       4.775  -4.228  22.243  0.00  0.00    -0.302 OA
ATOM     32  H   UNL     1       5.163  -3.540  21.661  0.00  0.00    +0.222 HD
ENDBRANCH  27  31
ENDBRANCH  26  27
ENDBRANCH  22  26
ENDBRANCH  21  22
ENDBRANCH  20  21
ENDBRANCH   4  20
TORSDOF 11
ENDMDL
MODEL 8
REMARK VINA RESULT:      -6.5      4.751      7.361
REMARK  Name = 
REMARK  11 active torsions:
REMARK  status: ('A' for Active; 'I' for Inactive)
REMARK    1  A    between atoms: N_6  and  C_9
REMARK    2  A    between atoms: C_12  and  C_14
REMARK    3  A    between atoms: C_14  and  O_15
REMARK    4  A    between atoms: O_15  and  P_16
REMARK    5  A    between atoms: P_16  and  O_17
REMARK    6  A    between atoms: P_16  and  O_19
REMARK    7  A    between atoms: O_19  and  P_20
REMARK    8  A    between atoms: P_20  and  O_21
REMARK    9  A    between atoms: P_20  and  O_22
REMARK   10  A    between atoms: C_24  and  O_26
REMARK   11  A    between atoms: C_27  and  O_29
REMARK                            x       y       z     vdW  Elec       q    Type
REMARK                         _______ _______ _______ _____ _____    ______ ____
ROOT
ATOM      1  C   UNL     1       8.084   3.664  23.466  0.00  0.00    +0.255 C 
ATOM      2  C   UNL     1       7.572   3.217  22.080  0.00  0.00    +0.195 C 
ATOM      3  C   UNL     1       7.802   1.702  22.050  0.00  0.00    +0.178 C 
ATOM      4  C   UNL     1       8.428   1.378  23.408  0.00  0.00    +0.178 C 
ATOM      5  O   UNL     1       8.087   2.465  24.273  0.00  0.00    -0.346 OA
ENDROOT
BRANCH   1  12
ATOM      6  N   UNL     1      12.967   6.227  23.878  0.00  0.00    -0.343 N 
ATOM      7  H   UNL     1      13.777   5.686  24.152  0.00  0.00    +0.144 HD
ATOM      8  H   UNL     1      12.878   7.109  24.371  0.00  0.00    +0.144 HD
ATOM      9  C   UNL     1      11.775   5.571  23.758  0.00  0.00    +0.123 A 
ATOM     10  C   UNL     1      11.768   4.141  23.407  0.00  0.00    +0.061 A 
ATOM     11  C   UNL     1      10.571   3.564  23.331  0.00  0.00    +0.096 A 
ATOM     12  N   UNL     1       9.411   4.282  23.536  0.00  0.00    -0.270 N 
ATOM     13  C   UNL     1       9.461   5.647  23.861  0.00  0.00    +0.352 A 
ATOM     14  O   UNL     1       8.439   6.302  24.047  0.00  0.00    -0.244 OA
ATOM     15  N   UNL     1      10.695   6.253  23.970  0.00  0.00    -0.178 NA
ENDBRANCH   1  12
BRANCH   2  16
ATOM     16  O   UNL     1       6.163   3.487  21.933  0.00  0.00    -0.385 OA
ATOM     17  H   UNL     1       5.665   2.737  22.302  0.00  0.00    +0.210 HD
ENDBRANCH   2  16
BRANCH   3  18
ATOM     18  O   UNL     1       8.688   1.334  20.994  0.00  0.00    -0.386 OA
ATOM     19  H   UNL     1       8.162   0.807  20.360  0.00  0.00    +0.210 HD
ENDBRANCH   3  18
BRANCH   4  20
ATOM     20  C   UNL     1       7.948   0.049  23.992  0.00  0.00    +0.206 C 
BRANCH  20  21
ATOM     21  O   UNL     1       7.626  -0.873  22.953  0.00  0.00    -0.284 OA
BRANCH  21  22
ATOM     22  P   UNL     1       8.586  -2.210  22.830  0.00  0.00    +0.483 P 
ATOM     23  O   UNL     1       7.869  -3.207  21.924  0.00  0.00    -0.227 OA
BRANCH  22  24
ATOM     24  O   UNL     1       9.317  -1.522  21.422  0.00  0.00    -0.302 OA
ATOM     25  H   UNL     1      10.206  -1.929  21.395  0.00  0.00    +0.222 HD
ENDBRANCH  22  24
BRANCH  22  26
ATOM     26  O   UNL     1       7.854  -2.898  24.240  0.00  0.00    -0.186 OA
BRANCH  26  27
ATOM     27  P   UNL     1       8.967  -3.988  24.993  0.00  0.00    +0.481 P 
ATOM     28  O   UNL     1       9.963  -4.964  25.666  0.00  0.00    -0.227 OA
BRANCH  27  29
ATOM     29  O   UNL     1      10.080  -3.309  23.999  0.00  0.00    -0.302 OA
ATOM     30  H   UNL     1      10.126  -3.761  23.136  0.00  0.00    +0.222 HD
ENDBRANCH  27  29
BRANCH  27  31
ATOM     31  O   UNL     1       8.480  -5.071  23.870  0.00  0.00    -0.302 OA
ATOM     32  H   UNL     1       7.909  -5.702  24.356  0.00  0.00    +0.222 HD
ENDBRANCH  27  31
ENDBRANCH  26  27
ENDBRANCH  22  26
ENDBRANCH  21  22
ENDBRANCH  20  21
ENDBRANCH   4  20
TORSDOF 11
ENDMDL
MODEL 9
REMARK VINA RESULT:      -6.4      4.124      7.301
REMARK  Name = 
REMARK  11 active torsions:
REMARK  status: ('A' for Active; 'I' for Inactive)
REMARK    1  A    between atoms: N_6  and  C_9
REMARK    2  A    between atoms: C_12  and  C_14
REMARK    3  A    between atoms: C_14  and  O_15
REMARK    4  A    between atoms: O_15  and  P_16
REMARK    5  A    between atoms: P_16  and  O_17
REMARK    6  A    between atoms: P_16  and  O_19
REMARK    7  A    between atoms: O_19  and  P_20
REMARK    8  A    between atoms: P_20  and  O_21
REMARK    9  A    between atoms: P_20  and  O_22
REMARK   10  A    between atoms: C_24  and  O_26
REMARK   11  A    between atoms: C_27  and  O_29
REMARK                            x       y       z     vdW  Elec       q    Type
REMARK                         _______ _______ _______ _____ _____    ______ ____
ROOT
ATOM      1  C   UNL     1       7.786  -5.185  25.768  0.00  0.00    +0.255 C 
ATOM      2  C   UNL     1       9.097  -4.893  25.005  0.00  0.00    +0.195 C 
ATOM      3  C   UNL     1       9.190  -3.364  24.965  0.00  0.00    +0.178 C 
ATOM      4  C   UNL     1       7.938  -2.879  25.697  0.00  0.00    +0.178 C 
ATOM      5  O   UNL     1       7.499  -3.975  26.505  0.00  0.00    -0.346 OA
ENDROOT
BRANCH   1  12
ATOM      6  N   UNL     1       3.184  -6.603  23.052  0.00  0.00    -0.343 N 
ATOM      7  H   UNL     1       2.881  -6.029  22.275  0.00  0.00    +0.144 HD
ATOM      8  H   UNL     1       2.437  -6.846  23.696  0.00  0.00    +0.144 HD
ATOM      9  C   UNL     1       4.336  -6.251  23.694  0.00  0.00    +0.123 A 
ATOM     10  C   UNL     1       5.385  -5.531  22.954  0.00  0.00    +0.061 A 
ATOM     11  C   UNL     1       6.469  -5.200  23.651  0.00  0.00    +0.096 A 
ATOM     12  N   UNL     1       6.606  -5.547  24.980  0.00  0.00    -0.270 N 
ATOM     13  C   UNL     1       5.583  -6.241  25.647  0.00  0.00    +0.352 A 
ATOM     14  O   UNL     1       5.687  -6.559  26.829  0.00  0.00    -0.244 OA
ATOM     15  N   UNL     1       4.443  -6.567  24.945  0.00  0.00    -0.178 NA
ENDBRANCH   1  12
BRANCH   2  16
ATOM     16  O   UNL     1      10.239  -5.420  25.711  0.00  0.00    -0.385 OA
ATOM     17  H   UNL     1      10.270  -5.014  26.595  0.00  0.00    +0.210 HD
ENDBRANCH   2  16
BRANCH   3  18
ATOM     18  O   UNL     1       9.199  -2.881  23.622  0.00  0.00    -0.386 OA
ATOM     19  H   UNL     1       9.478  -1.946  23.663  0.00  0.00    +0.210 HD
ENDBRANCH   3  18
BRANCH   4  20
ATOM     20  C   UNL     1       8.184  -1.638  26.556  0.00  0.00    +0.206 C 
BRANCH  20  21
ATOM     21  O   UNL     1       8.898  -0.647  25.820  0.00  0.00    -0.284 OA
BRANCH  21  22
ATOM     22  P   UNL     1       8.012   0.611  25.223  0.00  0.00    +0.483 P 
ATOM     23  O   UNL     1       6.540   0.216  25.311  0.00  0.00    -0.227 OA
BRANCH  22  24
ATOM     24  O   UNL     1       7.891   1.249  26.826  0.00  0.00    -0.302 OA
ATOM     25  H   UNL     1       8.638   0.834  27.302  0.00  0.00    +0.222 HD
ENDBRANCH  22  24
BRANCH  22  26
ATOM     26  O   UNL     1       8.133  -0.029  23.620  0.00  0.00    -0.186 OA
BRANCH  26  27
ATOM     27  P   UNL     1       9.265   0.910  22.709  0.00  0.00    +0.481 P 
ATOM     28  O   UNL     1      10.279   1.751  21.895  0.00  0.00    -0.227 OA
BRANCH  27  29
ATOM     29  O   UNL     1      10.355  -0.223  23.171  0.00  0.00    -0.302 OA
ATOM     30  H   UNL     1      10.052  -0.730  23.947  0.00  0.00    +0.222 HD
ENDBRANCH  27  29
BRANCH  27  31
ATOM     31  O   UNL     1       9.451   1.789  24.074  0.00  0.00    -0.302 OA
ATOM     32  H   UNL     1       8.661   1.586  24.617  0.00  0.00    +0.222 HD
ENDBRANCH  27  31
ENDBRANCH  26  27
ENDBRANCH  22  26
ENDBRANCH  21  22
ENDBRANCH  20  21
ENDBRANCH   4  20
TORSDOF 11
ENDMDL
