MODEL 1
REMARK VINA RESULT:      -6.6      0.000      0.000
REMARK  Name = 
REMARK  5 active torsions:
REMARK  status: ('A' for Active; 'I' for Inactive)
REMARK    1  A    between atoms: C_2  and  C_3
REMARK    2  A    between atoms: C_8  and  N_10
REMARK    3  A    between atoms: N_10  and  C_11
REMARK    4  A    between atoms: C_21  and  C_23
REMARK    5  A    between atoms: C_23  and  C_24
REMARK                            x       y       z     vdW  Elec       q    Type
REMARK                         _______ _______ _______ _____ _____    ______ ____
ROOT
ATOM      1  C   UNL     1       9.818  -2.254  23.833  0.00  0.00    +0.009 C 
ATOM      2  C   UNL     1       8.934  -1.835  22.632  0.00  0.00    +0.095 C 
ATOM      3  C   UNL     1       9.510  -0.542  22.009  0.00  0.00    +0.130 C 
ATOM      4  N   UNL     1       9.670   0.532  22.997  0.00  0.00    -0.299 N 
ATOM      5  C   UNL     1       9.104   1.798  22.898  0.00  0.00    +0.229 C 
ATOM      6  O   UNL     1       9.200   2.602  23.827  0.00  0.00    -0.274 OA
ATOM      7  C   UNL     1      10.449   0.175  24.195  0.00  0.00    +0.108 C 
ATOM      8  C   UNL     1       9.977  -1.124  24.860  0.00  0.00    +0.024 C 
ATOM      9  C   UNL     1       9.367  -3.562  24.485  0.00  0.00    +0.009 C 
ENDROOT
BRANCH   2  10
ATOM     10  N   UNL     1       7.504  -1.732  22.981  0.00  0.00    -0.313 N 
ATOM     11  C   UNL     1       6.689  -2.846  22.802  0.00  0.00    +0.134 A 
ATOM     12  C   UNL     1       5.593  -3.155  23.645  0.00  0.00    +0.059 A 
ATOM     13  C   UNL     1       5.035  -2.647  24.859  0.00  0.00    +0.032 A 
ATOM     14  C   UNL     1       3.920  -3.396  25.164  0.00  0.00    +0.085 A 
ATOM     15  N   UNL     1       3.793  -4.356  24.197  0.00  0.00    -0.346 N 
ATOM     16  H   UNL     1       3.073  -5.061  24.148  0.00  0.00    +0.167 HD
ATOM     17  C   UNL     1       4.807  -4.240  23.287  0.00  0.00    +0.143 A 
ATOM     18  N   UNL     1       4.977  -5.050  22.235  0.00  0.00    -0.218 NA
ATOM     19  C   UNL     1       6.065  -4.699  21.528  0.00  0.00    +0.225 A 
ATOM     20  N   UNL     1       6.915  -3.672  21.750  0.00  0.00    -0.220 NA
ATOM     21  C   UNL     1       6.818  -0.500  23.334  0.00  0.00    +0.131 C 
ENDBRANCH   2  10
BRANCH   5  22
ATOM     22  C   UNL     1       8.352   2.146  21.618  0.00  0.00    +0.214 C 
BRANCH  22  23
ATOM     23  C   UNL     1       7.128   2.982  21.955  0.00  0.00    +0.072 C 
ATOM     24  N   UNL     1       6.111   3.676  22.235  0.00  0.00    -0.196 NA
ENDBRANCH  22  23
ENDBRANCH   5  22
TORSDOF 3
ENDMDL
MODEL 2
REMARK VINA RESULT:      -6.6      2.564      6.354
REMARK  Name = 
REMARK  5 active torsions:
REMARK  status: ('A' for Active; 'I' for Inactive)
REMARK    1  A    between atoms: C_2  and  C_3
REMARK    2  A    between atoms: C_8  and  N_10
REMARK    3  A    between atoms: N_10  and  C_11
REMARK    4  A    between atoms: C_21  and  C_23
REMARK    5  A    between atoms: C_23  and  C_24
REMARK                            x       y       z     vdW  Elec       q    Type
REMARK                         _______ _______ _______ _____ _____    ______ ____
ROOT
ATOM      1  C   UNL     1       7.375  -1.620  26.531  0.00  0.00    +0.009 C 
ATOM      2  C   UNL     1       7.078  -1.352  25.034  0.00  0.00    +0.095 C 
ATOM      3  C   UNL     1       6.499  -2.638  24.397  0.00  0.00    +0.130 C 
ATOM      4  N   UNL     1       7.366  -3.804  24.604  0.00  0.00    -0.299 N 
ATOM      5  C   UNL     1       7.883  -4.605  23.591  0.00  0.00    +0.229 C 
ATOM      6  O   UNL     1       8.692  -5.498  23.848  0.00  0.00    -0.274 OA
ATOM      7  C   UNL     1       7.736  -4.075  26.004  0.00  0.00    +0.108 C 
ATOM      8  C   UNL     1       8.282  -2.841  26.735  0.00  0.00    +0.024 C 
ATOM      9  C   UNL     1       7.896  -0.387  27.271  0.00  0.00    +0.009 C 
ENDROOT
BRANCH   2  10
ATOM     10  N   UNL     1       8.243  -0.811  24.307  0.00  0.00    -0.313 N 
ATOM     11  C   UNL     1       8.099   0.383  23.607  0.00  0.00    +0.134 A 
ATOM     12  C   UNL     1       9.139   1.335  23.465  0.00  0.00    +0.059 A 
ATOM     13  C   UNL     1      10.464   1.515  23.969  0.00  0.00    +0.032 A 
ATOM     14  C   UNL     1      10.979   2.668  23.418  0.00  0.00    +0.085 A 
ATOM     15  N   UNL     1      10.009   3.210  22.619  0.00  0.00    -0.346 N 
ATOM     16  H   UNL     1      10.085   4.061  22.083  0.00  0.00    +0.167 HD
ATOM     17  C   UNL     1       8.885   2.432  22.655  0.00  0.00    +0.143 A 
ATOM     18  N   UNL     1       7.751   2.708  21.999  0.00  0.00    -0.218 NA
ATOM     19  C   UNL     1       6.818   1.770  22.236  0.00  0.00    +0.225 A 
ATOM     20  N   UNL     1       6.922   0.654  22.990  0.00  0.00    -0.220 NA
ATOM     21  C   UNL     1       9.500  -1.512  24.104  0.00  0.00    +0.131 C 
ENDBRANCH   2  10
BRANCH   5  22
ATOM     22  C   UNL     1       7.432  -4.326  22.161  0.00  0.00    +0.214 C 
BRANCH  22  23
ATOM     23  C   UNL     1       6.281  -5.250  21.798  0.00  0.00    +0.072 C 
ATOM     24  N   UNL     1       5.325  -6.017  21.497  0.00  0.00    -0.196 NA
ENDBRANCH  22  23
ENDBRANCH   5  22
TORSDOF 3
ENDMDL
MODEL 3
REMARK VINA RESULT:      -6.4      3.127      6.482
REMARK  Name = 
REMARK  5 active torsions:
REMARK  status: ('A' for Active; 'I' for Inactive)
REMARK    1  A    between atoms: C_2  and  C_3
REMARK    2  A    between atoms: C_8  and  N_10
REMARK    3  A    between atoms: N_10  and  C_11
REMARK    4  A    between atoms: C_21  and  C_23
REMARK    5  A    between atoms: C_23  and  C_24
REMARK                            x       y       z     vdW  Elec       q    Type
REMARK                         _______ _______ _______ _____ _____    ______ ____
ROOT
ATOM      1  C   UNL     1      10.163   0.662  22.736  0.00  0.00    +0.009 C 
ATOM      2  C   UNL     1       9.480   0.750  24.124  0.00  0.00    +0.095 C 
ATOM      3  C   UNL     1       9.792  -0.538  24.922  0.00  0.00    +0.130 C 
ATOM      4  N   UNL     1       9.427  -1.754  24.185  0.00  0.00    -0.299 N 
ATOM      5  C   UNL     1       8.566  -2.742  24.651  0.00  0.00    +0.229 C 
ATOM      6  O   UNL     1       8.229  -3.675  23.921  0.00  0.00    -0.274 OA
ATOM      7  C   UNL     1       9.996  -1.866  22.831  0.00  0.00    +0.108 C 
ATOM      8  C   UNL     1       9.774  -0.612  21.975  0.00  0.00    +0.024 C 
ATOM      9  C   UNL     1       9.966   1.920  21.888  0.00  0.00    +0.009 C 
ENDROOT
BRANCH   2  10
ATOM     10  N   UNL     1       8.038   1.050  24.035  0.00  0.00    -0.313 N 
ATOM     11  C   UNL     1       7.594   2.317  24.400  0.00  0.00    +0.134 A 
ATOM     12  C   UNL     1       6.499   2.970  23.780  0.00  0.00    +0.059 A 
ATOM     13  C   UNL     1       5.634   2.727  22.668  0.00  0.00    +0.032 A 
ATOM     14  C   UNL     1       4.727   3.762  22.598  0.00  0.00    +0.085 A 
ATOM     15  N   UNL     1       5.023   4.637  23.607  0.00  0.00    -0.346 N 
ATOM     16  H   UNL     1       4.539   5.497  23.811  0.00  0.00    +0.167 HD
ATOM     17  C   UNL     1       6.104   4.186  24.314  0.00  0.00    +0.143 A 
ATOM     18  N   UNL     1       6.656   4.833  25.348  0.00  0.00    -0.218 NA
ATOM     19  C   UNL     1       7.709   4.155  25.833  0.00  0.00    +0.225 A 
ATOM     20  N   UNL     1       8.203   2.965  25.423  0.00  0.00    -0.220 NA
ATOM     21  C   UNL     1       6.997   0.072  23.765  0.00  0.00    +0.131 C 
ENDBRANCH   2  10
BRANCH   5  22
ATOM     22  C   UNL     1       8.042  -2.617  26.078  0.00  0.00    +0.214 C 
BRANCH  22  23
ATOM     23  C   UNL     1       7.902  -3.999  26.694  0.00  0.00    +0.072 C 
ATOM     24  N   UNL     1       7.786  -5.146  27.207  0.00  0.00    -0.196 NA
ENDBRANCH  22  23
ENDBRANCH   5  22
TORSDOF 3
ENDMDL
MODEL 4
REMARK VINA RESULT:      -6.2      1.892      2.300
REMARK  Name = 
REMARK  5 active torsions:
REMARK  status: ('A' for Active; 'I' for Inactive)
REMARK    1  A    between atoms: C_2  and  C_3
REMARK    2  A    between atoms: C_8  and  N_10
REMARK    3  A    between atoms: N_10  and  C_11
REMARK    4  A    between atoms: C_21  and  C_23
REMARK    5  A    between atoms: C_23  and  C_24
REMARK                            x       y       z     vdW  Elec       q    Type
REMARK                         _______ _______ _______ _____ _____    ______ ____
ROOT
ATOM      1  C   UNL     1       8.775  -3.245  25.933  0.00  0.00    +0.009 C 
ATOM      2  C   UNL     1       8.614  -3.038  24.406  0.00  0.00    +0.095 C 
ATOM      3  C   UNL     1       9.339  -1.735  23.994  0.00  0.00    +0.130 C 
ATOM      4  N   UNL     1       8.890  -0.575  24.775  0.00  0.00    -0.299 N 
ATOM      5  C   UNL     1       8.372   0.597  24.235  0.00  0.00    +0.229 C 
ATOM      6  O   UNL     1       7.917   1.477  24.969  0.00  0.00    -0.274 OA
ATOM      7  C   UNL     1       8.960  -0.734  26.237  0.00  0.00    +0.108 C 
ATOM      8  C   UNL     1       8.302  -2.027  26.738  0.00  0.00    +0.024 C 
ATOM      9  C   UNL     1       8.143  -4.545  26.434  0.00  0.00    +0.009 C 
ENDROOT
BRANCH   2  10
ATOM     10  N   UNL     1       7.206  -3.090  23.966  0.00  0.00    -0.313 N 
ATOM     11  C   UNL     1       6.782  -4.177  23.207  0.00  0.00    +0.134 A 
ATOM     12  C   UNL     1       5.478  -4.725  23.288  0.00  0.00    +0.059 A 
ATOM     13  C   UNL     1       4.313  -4.530  24.094  0.00  0.00    +0.032 A 
ATOM     14  C   UNL     1       3.332  -5.385  23.642  0.00  0.00    +0.085 A 
ATOM     15  N   UNL     1       3.863  -6.111  22.610  0.00  0.00    -0.346 N 
ATOM     16  H   UNL     1       3.390  -6.824  22.077  0.00  0.00    +0.167 HD
ATOM     17  C   UNL     1       5.163  -5.742  22.400  0.00  0.00    +0.143 A 
ATOM     18  N   UNL     1       5.965  -6.286  21.477  0.00  0.00    -0.218 NA
ATOM     19  C   UNL     1       7.188  -5.730  21.513  0.00  0.00    +0.225 A 
ATOM     20  N   UNL     1       7.634  -4.735  22.311  0.00  0.00    -0.220 NA
ATOM     21  C   UNL     1       6.248  -2.007  24.103  0.00  0.00    +0.131 C 
ENDBRANCH   2  10
BRANCH   5  22
ATOM     22  C   UNL     1       8.368   0.745  22.717  0.00  0.00    +0.214 C 
BRANCH  22  23
ATOM     23  C   UNL     1       9.576   1.558  22.279  0.00  0.00    +0.072 C 
ATOM     24  N   UNL     1      10.577   2.234  21.916  0.00  0.00    -0.196 NA
ENDBRANCH  22  23
ENDBRANCH   5  22
TORSDOF 3
ENDMDL
MODEL 5
REMARK VINA RESULT:      -6.2      2.567      6.380
REMARK  Name = 
REMARK  5 active torsions:
REMARK  status: ('A' for Active; 'I' for Inactive)
REMARK    1  A    between atoms: C_2  and  C_3
REMARK    2  A    between atoms: C_8  and  N_10
REMARK    3  A    between atoms: N_10  and  C_11
REMARK    4  A    between atoms: C_21  and  C_23
REMARK    5  A    between atoms: C_23  and  C_24
REMARK                            x       y       z     vdW  Elec       q    Type
REMARK                         _______ _______ _______ _____ _____    ______ ____
ROOT
ATOM      1  C   UNL     1       7.834  -2.029  26.405  0.00  0.00    +0.009 C 
ATOM      2  C   UNL     1       6.781  -1.595  25.355  0.00  0.00    +0.095 C 
ATOM      3  C   UNL     1       5.737  -2.725  25.190  0.00  0.00    +0.130 C 
ATOM      4  N   UNL     1       6.358  -4.017  24.871  0.00  0.00    -0.299 N 
ATOM      5  C   UNL     1       6.056  -4.793  23.758  0.00  0.00    +0.229 C 
ATOM      6  O   UNL     1       6.704  -5.812  23.510  0.00  0.00    -0.274 OA
ATOM      7  C   UNL     1       7.413  -4.456  25.800  0.00  0.00    +0.108 C 
ATOM      8  C   UNL     1       8.476  -3.380  26.061  0.00  0.00    +0.024 C 
ATOM      9  C   UNL     1       8.882  -0.951  26.688  0.00  0.00    +0.009 C 
ENDROOT
BRANCH   2  10
ATOM     10  N   UNL     1       7.387  -1.166  24.079  0.00  0.00    -0.313 N 
ATOM     11  C   UNL     1       7.261   0.165  23.693  0.00  0.00    +0.134 A 
ATOM     12  C   UNL     1       8.257   0.865  22.967  0.00  0.00    +0.059 A 
ATOM     13  C   UNL     1       9.590   0.613  22.516  0.00  0.00    +0.032 A 
ATOM     14  C   UNL     1      10.023   1.721  21.821  0.00  0.00    +0.085 A 
ATOM     15  N   UNL     1       9.016   2.647  21.855  0.00  0.00    -0.346 N 
ATOM     16  H   UNL     1       9.036   3.565  21.437  0.00  0.00    +0.167 HD
ATOM     17  C   UNL     1       7.953   2.156  22.562  0.00  0.00    +0.143 A 
ATOM     18  N   UNL     1       6.822   2.832  22.797  0.00  0.00    -0.218 NA
ATOM     19  C   UNL     1       5.966   2.099  23.528  0.00  0.00    +0.225 A 
ATOM     20  N   UNL     1       6.120   0.837  23.985  0.00  0.00    -0.220 NA
ATOM     21  C   UNL     1       7.960  -2.058  23.086  0.00  0.00    +0.131 C 
ENDBRANCH   2  10
BRANCH   5  22
ATOM     22  C   UNL     1       4.920  -4.331  22.851  0.00  0.00    +0.214 C 
BRANCH  22  23
ATOM     23  C   UNL     1       3.674  -5.155  23.133  0.00  0.00    +0.072 C 
ATOM     24  N   UNL     1       2.639  -5.838  23.368  0.00  0.00    -0.196 NA
ENDBRANCH  22  23
ENDBRANCH   5  22
TORSDOF 3
ENDMDL
MODEL 6
REMARK VINA RESULT:      -6.1      2.820      6.209
REMARK  Name = 
REMARK  5 active torsions:
REMARK  status: ('A' for Active; 'I' for Inactive)
REMARK    1  A    between atoms: C_2  and  C_3
REMARK    2  A    between atoms: C_8  and  N_10
REMARK    3  A    between atoms: N_10  and  C_11
REMARK    4  A    between atoms: C_21  and  C_23
REMARK    5  A    between atoms: C_23  and  C_24
REMARK                            x       y       z     vdW  Elec       q    Type
REMARK                         _______ _______ _______ _____ _____    ______ ____
ROOT
ATOM      1  C   UNL     1       7.241  -0.108  26.766  0.00  0.00    +0.009 C 
ATOM      2  C   UNL     1       7.011   0.172  25.259  0.00  0.00    +0.095 C 
ATOM      3  C   UNL     1       6.917  -1.175  24.505  0.00  0.00    +0.130 C 
ATOM      4  N   UNL     1       8.080  -2.036  24.751  0.00  0.00    -0.299 N 
ATOM      5  C   UNL     1       8.907  -2.562  23.764  0.00  0.00    +0.229 C 
ATOM      6  O   UNL     1       9.926  -3.186  24.066  0.00  0.00    -0.274 OA
ATOM      7  C   UNL     1       8.389  -2.289  26.169  0.00  0.00    +0.108 C 
ATOM      8  C   UNL     1       8.460  -1.009  27.011  0.00  0.00    +0.024 C 
ATOM      9  C   UNL     1       7.288   1.164  27.614  0.00  0.00    +0.009 C 
ENDROOT
BRANCH   2  10
ATOM     10  N   UNL     1       8.012   1.095  24.689  0.00  0.00    -0.313 N 
ATOM     11  C   UNL     1       7.577   2.125  23.861  0.00  0.00    +0.134 A 
ATOM     12  C   UNL     1       8.200   3.397  23.803  0.00  0.00    +0.059 A 
ATOM     13  C   UNL     1       9.242   4.081  24.503  0.00  0.00    +0.032 A 
ATOM     14  C   UNL     1       9.392   5.327  23.935  0.00  0.00    +0.085 A 
ATOM     15  N   UNL     1       8.464   5.438  22.935  0.00  0.00    -0.346 N 
ATOM     16  H   UNL     1       8.324   6.239  22.339  0.00  0.00    +0.167 HD
ATOM     17  C   UNL     1       7.722   4.292  22.858  0.00  0.00    +0.143 A 
ATOM     18  N   UNL     1       6.715   4.098  21.997  0.00  0.00    -0.218 NA
ATOM     19  C   UNL     1       6.166   2.884  22.164  0.00  0.00    +0.225 A 
ATOM     20  N   UNL     1       6.526   1.911  23.031  0.00  0.00    -0.220 NA
ATOM     21  C   UNL     1       9.452   0.919  24.770  0.00  0.00    +0.131 C 
ENDBRANCH   2  10
BRANCH   5  22
ATOM     22  C   UNL     1       8.522  -2.323  22.308  0.00  0.00    +0.214 C 
BRANCH  22  23
ATOM     23  C   UNL     1       9.158  -1.033  21.815  0.00  0.00    +0.072 C 
ATOM     24  N   UNL     1       9.685   0.037  21.406  0.00  0.00    -0.196 NA
ENDBRANCH  22  23
ENDBRANCH   5  22
TORSDOF 3
ENDMDL
MODEL 7
REMARK VINA RESULT:      -6.1      3.174      6.921
REMARK  Name = 
REMARK  5 active torsions:
REMARK  status: ('A' for Active; 'I' for Inactive)
REMARK    1  A    between atoms: C_2  and  C_3
REMARK    2  A    between atoms: C_8  and  N_10
REMARK    3  A    between atoms: N_10  and  C_11
REMARK    4  A    between atoms: C_21  and  C_23
REMARK    5  A    between atoms: C_23  and  C_24
REMARK                            x       y       z     vdW  Elec       q    Type
REMARK                         _______ _______ _______ _____ _____    ______ ____
ROOT
ATOM      1  C   UNL     1       5.872  -5.037  22.762  0.00  0.00    +0.009 C 
ATOM      2  C   UNL     1       6.882  -4.628  23.863  0.00  0.00    +0.095 C 
ATOM      3  C   UNL     1       6.645  -5.506  25.115  0.00  0.00    +0.130 C 
ATOM      4  N   UNL     1       5.252  -5.458  25.576  0.00  0.00    -0.299 N 
ATOM      5  C   UNL     1       4.847  -5.092  26.854  0.00  0.00    +0.229 C 
ATOM      6  O   UNL     1       3.650  -4.973  27.123  0.00  0.00    -0.274 OA
ATOM      7  C   UNL     1       4.239  -5.776  24.555  0.00  0.00    +0.108 C 
ATOM      8  C   UNL     1       4.420  -4.982  23.254  0.00  0.00    +0.024 C 
ATOM      9  C   UNL     1       6.064  -4.266  21.454  0.00  0.00    +0.009 C 
ENDROOT
BRANCH   2  10
ATOM     10  N   UNL     1       6.863  -3.181  24.150  0.00  0.00    -0.313 N 
ATOM     11  C   UNL     1       7.955  -2.408  23.767  0.00  0.00    +0.134 A 
ATOM     12  C   UNL     1       7.848  -1.061  23.340  0.00  0.00    +0.059 A 
ATOM     13  C   UNL     1       6.794  -0.138  23.055  0.00  0.00    +0.032 A 
ATOM     14  C   UNL     1       7.364   1.063  22.693  0.00  0.00    +0.085 A 
ATOM     15  N   UNL     1       8.722   0.899  22.722  0.00  0.00    -0.346 N 
ATOM     16  H   UNL     1       9.412   1.600  22.500  0.00  0.00    +0.167 HD
ATOM     17  C   UNL     1       9.031  -0.383  23.086  0.00  0.00    +0.143 A 
ATOM     18  N   UNL     1      10.275  -0.865  23.181  0.00  0.00    -0.218 NA
ATOM     19  C   UNL     1      10.265  -2.157  23.547  0.00  0.00    +0.225 A 
ATOM     20  N   UNL     1       9.201  -2.941  23.832  0.00  0.00    -0.220 NA
ATOM     21  C   UNL     1       5.870  -2.505  24.967  0.00  0.00    +0.131 C 
ENDBRANCH   2  10
BRANCH   5  22
ATOM     22  C   UNL     1       5.928  -4.824  27.897  0.00  0.00    +0.214 C 
BRANCH  22  23
ATOM     23  C   UNL     1       6.220  -6.100  28.670  0.00  0.00    +0.072 C 
ATOM     24  N   UNL     1       6.463  -7.159  29.311  0.00  0.00    -0.196 NA
ENDBRANCH  22  23
ENDBRANCH   5  22
TORSDOF 3
ENDMDL
MODEL 8
REMARK VINA RESULT:      -6.1      2.767      6.093
REMARK  Name = 
REMARK  5 active torsions:
REMARK  status: ('A' for Active; 'I' for Inactive)
REMARK    1  A    between atoms: C_2  and  C_3
REMARK    2  A    between atoms: C_8  and  N_10
REMARK    3  A    between atoms: N_10  and  C_11
REMARK    4  A    between atoms: C_21  and  C_23
REMARK    5  A    between atoms: C_23  and  C_24
REMARK                            x       y       z     vdW  Elec       q    Type
REMARK                         _______ _______ _______ _____ _____    ______ ____
ROOT
ATOM      1  C   UNL     1       6.243  -5.748  23.045  0.00  0.00    +0.009 C 
ATOM      2  C   UNL     1       6.788  -4.683  24.030  0.00  0.00    +0.095 C 
ATOM      3  C   UNL     1       5.888  -4.653  25.288  0.00  0.00    +0.130 C 
ATOM      4  N   UNL     1       4.472  -4.449  24.957  0.00  0.00    -0.299 N 
ATOM      5  C   UNL     1       3.676  -3.423  25.456  0.00  0.00    +0.229 C 
ATOM      6  O   UNL     1       2.527  -3.262  25.039  0.00  0.00    -0.274 OA
ATOM      7  C   UNL     1       3.911  -5.393  23.975  0.00  0.00    +0.108 C 
ATOM      8  C   UNL     1       4.763  -5.524  22.706  0.00  0.00    +0.024 C 
ATOM      9  C   UNL     1       7.103  -5.901  21.789  0.00  0.00    +0.009 C 
ENDROOT
BRANCH   2  10
ATOM     10  N   UNL     1       6.964  -3.359  23.403  0.00  0.00    -0.313 N 
ATOM     11  C   UNL     1       7.906  -2.485  23.938  0.00  0.00    +0.134 A 
ATOM     12  C   UNL     1       8.659  -1.574  23.156  0.00  0.00    +0.059 A 
ATOM     13  C   UNL     1       8.840  -1.294  21.766  0.00  0.00    +0.032 A 
ATOM     14  C   UNL     1       9.717  -0.238  21.653  0.00  0.00    +0.085 A 
ATOM     15  N   UNL     1      10.098   0.118  22.919  0.00  0.00    -0.346 N 
ATOM     16  H   UNL     1      10.739   0.856  23.163  0.00  0.00    +0.167 HD
ATOM     17  C   UNL     1       9.488  -0.693  23.835  0.00  0.00    +0.143 A 
ATOM     18  N   UNL     1       9.675  -0.617  25.158  0.00  0.00    -0.218 NA
ATOM     19  C   UNL     1       8.953  -1.549  25.802  0.00  0.00    +0.225 A 
ATOM     20  N   UNL     1       8.105  -2.463  25.279  0.00  0.00    -0.220 NA
ATOM     21  C   UNL     1       6.107  -2.804  22.370  0.00  0.00    +0.131 C 
ENDBRANCH   2  10
BRANCH   5  22
ATOM     22  C   UNL     1       4.277  -2.501  26.511  0.00  0.00    +0.214 C 
BRANCH  22  23
ATOM     23  C   UNL     1       4.824  -1.249  25.844  0.00  0.00    +0.072 C 
ATOM     24  N   UNL     1       5.278  -0.210  25.291  0.00  0.00    -0.196 NA
ENDBRANCH  22  23
ENDBRANCH   5  22
TORSDOF 3
ENDMDL
MODEL 9
REMARK VINA RESULT:      -6.1      2.438      6.508
REMARK  Name = 
REMARK  5 active torsions:
REMARK  status: ('A' for Active; 'I' for Inactive)
REMARK    1  A    between atoms: C_2  and  C_3
REMARK    2  A    between atoms: C_8  and  N_10
REMARK    3  A    between atoms: N_10  and  C_11
REMARK    4  A    between atoms: C_21  and  C_23
REMARK    5  A    between atoms: C_23  and  C_24
REMARK                            x       y       z     vdW  Elec       q    Type
REMARK                         _______ _______ _______ _____ _____    ______ ____
ROOT
ATOM      1  C   UNL     1      10.243  -0.107  24.225  0.00  0.00    +0.009 C 
ATOM      2  C   UNL     1       8.810  -0.016  24.807  0.00  0.00    +0.095 C 
ATOM      3  C   UNL     1       8.229  -1.444  24.940  0.00  0.00    +0.130 C 
ATOM      4  N   UNL     1       8.283  -2.190  23.677  0.00  0.00    -0.299 N 
ATOM      5  C   UNL     1       7.187  -2.766  23.043  0.00  0.00    +0.229 C 
ATOM      6  O   UNL     1       7.306  -3.279  21.929  0.00  0.00    -0.274 OA
ATOM      7  C   UNL     1       9.609  -2.258  23.040  0.00  0.00    +0.108 C 
ATOM      8  C   UNL     1      10.287  -0.888  22.905  0.00  0.00    +0.024 C 
ATOM      9  C   UNL     1      10.933   1.254  24.111  0.00  0.00    +0.009 C 
ENDROOT
BRANCH   2  10
ATOM     10  N   UNL     1       7.940   0.903  24.047  0.00  0.00    -0.313 N 
ATOM     11  C   UNL     1       7.674   2.162  24.575  0.00  0.00    +0.134 A 
ATOM     12  C   UNL     1       7.488   3.320  23.779  0.00  0.00    +0.059 A 
ATOM     13  C   UNL     1       7.592   3.661  22.395  0.00  0.00    +0.032 A 
ATOM     14  C   UNL     1       7.249   4.988  22.254  0.00  0.00    +0.085 A 
ATOM     15  N   UNL     1       6.966   5.474  23.502  0.00  0.00    -0.346 N 
ATOM     16  H   UNL     1       6.688   6.417  23.726  0.00  0.00    +0.167 HD
ATOM     17  C   UNL     1       7.129   4.487  24.435  0.00  0.00    +0.143 A 
ATOM     18  N   UNL     1       6.953   4.653  25.752  0.00  0.00    -0.218 NA
ATOM     19  C   UNL     1       7.196   3.512  26.418  0.00  0.00    +0.225 A 
ATOM     20  N   UNL     1       7.545   2.306  25.918  0.00  0.00    -0.220 NA
ATOM     21  C   UNL     1       7.178   0.543  22.863  0.00  0.00    +0.131 C 
ENDBRANCH   2  10
BRANCH   5  22
ATOM     22  C   UNL     1       5.842  -2.721  23.761  0.00  0.00    +0.214 C 
BRANCH  22  23
ATOM     23  C   UNL     1       4.952  -3.842  23.249  0.00  0.00    +0.072 C 
ATOM     24  N   UNL     1       4.213  -4.773  22.824  0.00  0.00    -0.196 NA
ENDBRANCH  22  23
ENDBRANCH   5  22
TORSDOF 3
ENDMDL
