MODEL 1
REMARK VINA RESULT:      -6.4      0.000      0.000
REMARK  Name = 
REMARK  30 active torsions:
REMARK  status: ('A' for Active; 'I' for Inactive)
REMARK    1  A    between atoms: C_1  and  C_2
REMARK    2  A    between atoms: C_2  and  C_3
REMARK    3  A    between atoms: C_3  and  C_4
REMARK    4  A    between atoms: C_4  and  C_5
REMARK    5  A    between atoms: C_5  and  N_6
REMARK    6  A    between atoms: N_6  and  C_7
REMARK    7  A    between atoms: C_7  and  O_9
REMARK    8  A    between atoms: C_7  and  C_10
REMARK    9  A    between atoms: C_10  and  C_12
REMARK   10  A    between atoms: C_10  and  N_27
REMARK   11  A    between atoms: C_12  and  C_13
REMARK   12  A    between atoms: C_16  and  O_17
REMARK   13  A    between atoms: O_17  and  C_18
REMARK   14  A    between atoms: C_18  and  C_19
REMARK   15  A    between atoms: C_19  and  O_20
REMARK   16  A    between atoms: C_22  and  C_24
REMARK   17  A    between atoms: C_24  and  O_25
REMARK   18  A    between atoms: N_27  and  C_28
REMARK   19  A    between atoms: C_28  and  O_30
REMARK   20  A    between atoms: C_28  and  C_31
REMARK   21  A    between atoms: C_31  and  C_33
REMARK   22  A    between atoms: C_31  and  N_40
REMARK   23  A    between atoms: C_33  and  C_34
REMARK   24  A    between atoms: N_40  and  C_41
REMARK   25  A    between atoms: C_41  and  O_43
REMARK   26  A    between atoms: C_41  and  O_44
REMARK   27  A    between atoms: O_44  and  C_45
REMARK   28  A    between atoms: C_45  and  C_46
REMARK   29  A    between atoms: C_45  and  C_47
REMARK   30  A    between atoms: C_45  and  C_48
REMARK                            x       y       z     vdW  Elec       q    Type
REMARK                         _______ _______ _______ _____ _____    ______ ____
ROOT
ATOM      1  C   UNL     1       9.768  -0.809  24.009  0.00  0.00    +0.104 C 
ENDROOT
BRANCH   1   2
ATOM      2  N   UNL     1       8.475  -1.116  24.749  0.00  0.00    -0.284 NA
ATOM      3  H   UNL     1       8.163  -0.260  25.201  0.00  0.00    +0.125 HD
BRANCH   2   4
ATOM      4  C   UNL     1       8.673  -2.122  25.805  0.00  0.00    +0.200 C 
BRANCH   4   5
ATOM      5  O   UNL     1       8.082  -1.570  26.984  0.00  0.00    -0.376 OA
ATOM      6  H   UNL     1       7.378  -2.174  27.265  0.00  0.00    +0.212 HD
ENDBRANCH   4   5
BRANCH   4   7
ATOM      7  C   UNL     1       8.149  -3.633  25.711  0.00  0.00    +0.106 C 
BRANCH   7   8
ATOM      8  N   UNL     1       8.179  -4.570  26.849  0.00  0.00    -0.262 NA
ATOM      9  H   UNL     1       8.540  -4.116  27.684  0.00  0.00    +0.127 HD
BRANCH   8  10
ATOM     10  C   UNL     1       6.995  -5.284  27.240  0.00  0.00    +0.326 C 
BRANCH  10  11
ATOM     11  O   UNL     1       7.412  -6.196  28.232  0.00  0.00    -0.355 OA
ATOM     12  H   UNL     1       7.847  -5.606  28.872  0.00  0.00    +0.214 HD
ENDBRANCH  10  11
BRANCH  10  13
ATOM     13  O   UNL     1       6.435  -6.052  26.182  0.00  0.00    -0.333 OA
BRANCH  13  14
ATOM     14  C   UNL     1       5.013  -5.933  25.944  0.00  0.00    +0.065 C 
ATOM     15  C   UNL     1       4.127  -6.618  27.000  0.00  0.00    +0.041 C 
ATOM     16  C   UNL     1       4.741  -6.665  24.615  0.00  0.00    +0.041 C 
ATOM     17  C   UNL     1       4.606  -4.463  25.818  0.00  0.00    +0.041 C 
ENDBRANCH  13  14
ENDBRANCH  10  13
ENDBRANCH   8  10
ENDBRANCH   7   8
BRANCH   7  18
ATOM     18  C   UNL     1       8.748  -4.342  24.451  0.00  0.00    +0.058 C 
BRANCH  18  19
ATOM     19  C   UNL     1       7.778  -4.575  23.302  0.00  0.00    -0.046 A 
ATOM     20  C   UNL     1       6.862  -3.579  22.937  0.00  0.00    +0.004 A 
ATOM     21  C   UNL     1       5.941  -3.798  21.908  0.00  0.00    +0.000 A 
ATOM     22  C   UNL     1       5.922  -5.018  21.235  0.00  0.00    +0.000 A 
ATOM     23  C   UNL     1       6.824  -6.017  21.588  0.00  0.00    +0.000 A 
ATOM     24  C   UNL     1       7.742  -5.800  22.619  0.00  0.00    +0.004 A 
ENDBRANCH  18  19
ENDBRANCH   7  18
ENDBRANCH   4   7
ENDBRANCH   2   4
ENDBRANCH   1   2
BRANCH   1  25
ATOM     25  C   UNL     1      10.535   0.433  24.555  0.00  0.00    +0.057 C 
BRANCH  25  26
ATOM     26  C   UNL     1      10.099   1.855  24.388  0.00  0.00    -0.045 A 
ATOM     27  C   UNL     1       8.934   2.244  25.090  0.00  0.00    +0.022 A 
ATOM     28  C   UNL     1       8.497   3.570  25.127  0.00  0.00    +0.101 A 
ATOM     29  C   UNL     1       9.242   4.531  24.424  0.00  0.00    +0.135 A 
ATOM     30  C   UNL     1      10.321   4.113  23.614  0.00  0.00    +0.047 A 
ATOM     31  C   UNL     1      10.746   2.785  23.597  0.00  0.00    +0.007 A 
BRANCH  28  32
ATOM     32  C   UNL     1       7.280   3.829  25.953  0.00  0.00    +0.340 C 
ATOM     33  O   UNL     1       6.935   3.119  26.877  0.00  0.00    -0.245 OA
BRANCH  32  34
ATOM     34  O   UNL     1       6.579   4.950  25.615  0.00  0.00    -0.477 OA
ATOM     35  H   UNL     1       5.830   5.121  26.201  0.00  0.00    +0.295 HD
ENDBRANCH  32  34
ENDBRANCH  28  32
BRANCH  29  36
ATOM     36  O   UNL     1       8.885   5.857  24.527  0.00  0.00    -0.480 OA
BRANCH  36  37
ATOM     37  C   UNL     1       8.831   6.563  23.285  0.00  0.00    +0.349 C 
BRANCH  37  38
ATOM     38  C   UNL     1       7.465   6.429  22.620  0.00  0.00    +0.343 C 
ATOM     39  O   UNL     1       6.407   6.587  23.194  0.00  0.00    -0.247 OA
BRANCH  38  40
ATOM     40  O   UNL     1       7.547   6.113  21.302  0.00  0.00    -0.478 OA
ATOM     41  H   UNL     1       7.898   6.855  20.766  0.00  0.00    +0.295 HD
ENDBRANCH  38  40
ENDBRANCH  37  38
ENDBRANCH  36  37
ENDBRANCH  29  36
ENDBRANCH  25  26
ENDBRANCH   1  25
BRANCH   1  42
ATOM     42  C   UNL     1       9.664  -0.613  22.418  0.00  0.00    +0.200 C 
BRANCH  42  43
ATOM     43  O   UNL     1       9.897  -1.825  21.715  0.00  0.00    -0.376 OA
ATOM     44  H   UNL     1       9.560  -2.542  22.271  0.00  0.00    +0.212 HD
ENDBRANCH  42  43
BRANCH  42  45
ATOM     45  N   UNL     1       8.430  -0.065  21.869  0.00  0.00    -0.291 NA
ATOM     46  H   UNL     1       8.041  -0.802  21.283  0.00  0.00    +0.124 HD
BRANCH  45  47
ATOM     47  C   UNL     1       8.634   1.132  21.054  0.00  0.00    +0.083 C 
BRANCH  47  48
ATOM     48  C   UNL     1       7.831   2.332  21.542  0.00  0.00    +0.015 C 
BRANCH  48  49
ATOM     49  C   UNL     1       6.633   1.830  22.364  0.00  0.00    +0.001 C 
BRANCH  49  51
ATOM     50  C   UNL     1       4.714   2.582  23.796  0.00  0.00    +0.004 C 
ATOM     51  C   UNL     1       5.647   2.952  22.661  0.00  0.00    -0.003 C 
ENDBRANCH  49  51
ENDBRANCH  48  49
ENDBRANCH  47  48
ENDBRANCH  45  47
ENDBRANCH  42  45
ENDBRANCH   1  42
TORSDOF 26
ENDMDL
MODEL 2
REMARK VINA RESULT:      -6.3      2.578      7.453
REMARK  Name = 
REMARK  30 active torsions:
REMARK  status: ('A' for Active; 'I' for Inactive)
REMARK    1  A    between atoms: C_1  and  C_2
REMARK    2  A    between atoms: C_2  and  C_3
REMARK    3  A    between atoms: C_3  and  C_4
REMARK    4  A    between atoms: C_4  and  C_5
REMARK    5  A    between atoms: C_5  and  N_6
REMARK    6  A    between atoms: N_6  and  C_7
REMARK    7  A    between atoms: C_7  and  O_9
REMARK    8  A    between atoms: C_7  and  C_10
REMARK    9  A    between atoms: C_10  and  C_12
REMARK   10  A    between atoms: C_10  and  N_27
REMARK   11  A    between atoms: C_12  and  C_13
REMARK   12  A    between atoms: C_16  and  O_17
REMARK   13  A    between atoms: O_17  and  C_18
REMARK   14  A    between atoms: C_18  and  C_19
REMARK   15  A    between atoms: C_19  and  O_20
REMARK   16  A    between atoms: C_22  and  C_24
REMARK   17  A    between atoms: C_24  and  O_25
REMARK   18  A    between atoms: N_27  and  C_28
REMARK   19  A    between atoms: C_28  and  O_30
REMARK   20  A    between atoms: C_28  and  C_31
REMARK   21  A    between atoms: C_31  and  C_33
REMARK   22  A    between atoms: C_31  and  N_40
REMARK   23  A    between atoms: C_33  and  C_34
REMARK   24  A    between atoms: N_40  and  C_41
REMARK   25  A    between atoms: C_41  and  O_43
REMARK   26  A    between atoms: C_41  and  O_44
REMARK   27  A    between atoms: O_44  and  C_45
REMARK   28  A    between atoms: C_45  and  C_46
REMARK   29  A    between atoms: C_45  and  C_47
REMARK   30  A    between atoms: C_45  and  C_48
REMARK                            x       y       z     vdW  Elec       q    Type
REMARK                         _______ _______ _______ _____ _____    ______ ____
ROOT
ATOM      1  C   UNL     1       8.463   1.377  23.552  0.00  0.00    +0.104 C 
ENDROOT
BRANCH   1   2
ATOM      2  N   UNL     1       7.671   2.042  24.667  0.00  0.00    -0.284 NA
ATOM      3  H   UNL     1       8.211   2.835  25.004  0.00  0.00    +0.125 HD
BRANCH   2   4
ATOM      4  C   UNL     1       7.464   1.136  25.809  0.00  0.00    +0.200 C 
BRANCH   4   5
ATOM      5  O   UNL     1       7.623   1.943  26.979  0.00  0.00    -0.376 OA
ATOM      6  H   UNL     1       6.868   2.550  27.016  0.00  0.00    +0.212 HD
ENDBRANCH   4   5
BRANCH   4   7
ATOM      7  C   UNL     1       6.133   0.277  26.039  0.00  0.00    +0.106 C 
BRANCH   7   8
ATOM      8  N   UNL     1       4.894   0.842  26.606  0.00  0.00    -0.262 NA
ATOM      9  H   UNL     1       5.038   1.137  27.569  0.00  0.00    +0.127 HD
BRANCH   8  10
ATOM     10  C   UNL     1       4.205   1.912  25.940  0.00  0.00    +0.326 C 
BRANCH  10  11
ATOM     11  O   UNL     1       2.836   1.704  26.205  0.00  0.00    -0.355 OA
ATOM     12  H   UNL     1       2.754   2.053  27.109  0.00  0.00    +0.214 HD
ENDBRANCH  10  11
BRANCH  10  13
ATOM     13  O   UNL     1       4.362   1.878  24.527  0.00  0.00    -0.333 OA
BRANCH  13  14
ATOM     14  C   UNL     1       4.329   3.137  23.817  0.00  0.00    +0.065 C 
ATOM     15  C   UNL     1       4.686   4.366  24.672  0.00  0.00    +0.041 C 
ATOM     16  C   UNL     1       2.867   3.335  23.371  0.00  0.00    +0.041 C 
ATOM     17  C   UNL     1       5.241   3.091  22.589  0.00  0.00    +0.041 C 
ENDBRANCH  13  14
ENDBRANCH  10  13
ENDBRANCH   8  10
ENDBRANCH   7   8
BRANCH   7  18
ATOM     18  C   UNL     1       6.467  -1.062  26.777  0.00  0.00    +0.058 C 
BRANCH  18  19
ATOM     19  C   UNL     1       5.826  -2.313  26.196  0.00  0.00    -0.046 A 
ATOM     20  C   UNL     1       5.022  -2.230  25.051  0.00  0.00    +0.004 A 
ATOM     21  C   UNL     1       4.398  -3.368  24.532  0.00  0.00    +0.000 A 
ATOM     22  C   UNL     1       4.564  -4.603  25.155  0.00  0.00    +0.000 A 
ATOM     23  C   UNL     1       5.357  -4.701  26.295  0.00  0.00    +0.000 A 
ATOM     24  C   UNL     1       5.978  -3.563  26.816  0.00  0.00    +0.004 A 
ENDBRANCH  18  19
ENDBRANCH   7  18
ENDBRANCH   4   7
ENDBRANCH   2   4
ENDBRANCH   1   2
BRANCH   1  25
ATOM     25  C   UNL     1       9.215   0.084  23.989  0.00  0.00    +0.057 C 
BRANCH  25  26
ATOM     26  C   UNL     1       8.780  -1.313  23.676  0.00  0.00    -0.045 A 
ATOM     27  C   UNL     1       9.260  -2.331  24.534  0.00  0.00    +0.022 A 
ATOM     28  C   UNL     1       8.825  -3.653  24.434  0.00  0.00    +0.101 A 
ATOM     29  C   UNL     1       7.893  -3.968  23.431  0.00  0.00    +0.135 A 
ATOM     30  C   UNL     1       7.527  -2.979  22.491  0.00  0.00    +0.047 A 
ATOM     31  C   UNL     1       7.967  -1.661  22.614  0.00  0.00    +0.007 A 
BRANCH  28  32
ATOM     32  C   UNL     1       9.384  -4.599  25.445  0.00  0.00    +0.340 C 
ATOM     33  O   UNL     1       9.262  -4.444  26.645  0.00  0.00    -0.245 OA
BRANCH  32  34
ATOM     34  O   UNL     1      10.033  -5.682  24.929  0.00  0.00    -0.477 OA
ATOM     35  H   UNL     1      10.158  -6.392  25.572  0.00  0.00    +0.295 HD
ENDBRANCH  32  34
ENDBRANCH  28  32
BRANCH  29  36
ATOM     36  O   UNL     1       7.379  -5.244  23.376  0.00  0.00    -0.480 OA
BRANCH  36  37
ATOM     37  C   UNL     1       7.472  -5.876  22.097  0.00  0.00    +0.349 C 
BRANCH  37  38
ATOM     38  C   UNL     1       6.114  -5.951  21.406  0.00  0.00    +0.343 C 
ATOM     39  O   UNL     1       5.907  -5.590  20.265  0.00  0.00    -0.247 OA
BRANCH  38  40
ATOM     40  O   UNL     1       5.144  -6.469  22.201  0.00  0.00    -0.478 OA
ATOM     41  H   UNL     1       4.245  -6.248  21.877  0.00  0.00    +0.295 HD
ENDBRANCH  38  40
ENDBRANCH  37  38
ENDBRANCH  36  37
ENDBRANCH  29  36
ENDBRANCH  25  26
ENDBRANCH   1  25
BRANCH   1  42
ATOM     42  C   UNL     1       9.537   2.288  22.781  0.00  0.00    +0.200 C 
BRANCH  42  43
ATOM     43  O   UNL     1       9.613   1.970  21.398  0.00  0.00    -0.376 OA
ATOM     44  H   UNL     1       8.997   2.559  20.940  0.00  0.00    +0.212 HD
ENDBRANCH  42  43
BRANCH  42  45
ATOM     45  N   UNL     1       9.389   3.737  22.848  0.00  0.00    -0.291 NA
ATOM     46  H   UNL     1       9.789   4.092  21.982  0.00  0.00    +0.124 HD
BRANCH  45  47
ATOM     47  C   UNL     1      10.089   4.343  23.979  0.00  0.00    +0.083 C 
BRANCH  47  48
ATOM     48  C   UNL     1      10.413   5.818  23.762  0.00  0.00    +0.015 C 
BRANCH  48  49
ATOM     49  C   UNL     1      11.920   6.033  23.971  0.00  0.00    +0.001 C 
BRANCH  49  51
ATOM     50  C   UNL     1      13.435   5.639  22.009  0.00  0.00    +0.004 C 
ATOM     51  C   UNL     1      12.745   5.010  23.203  0.00  0.00    -0.003 C 
ENDBRANCH  49  51
ENDBRANCH  48  49
ENDBRANCH  47  48
ENDBRANCH  45  47
ENDBRANCH  42  45
ENDBRANCH   1  42
TORSDOF 26
ENDMDL
MODEL 3
REMARK VINA RESULT:      -6.3      2.554      8.978
REMARK  Name = 
REMARK  30 active torsions:
REMARK  status: ('A' for Active; 'I' for Inactive)
REMARK    1  A    between atoms: C_1  and  C_2
REMARK    2  A    between atoms: C_2  and  C_3
REMARK    3  A    between atoms: C_3  and  C_4
REMARK    4  A    between atoms: C_4  and  C_5
REMARK    5  A    between atoms: C_5  and  N_6
REMARK    6  A    between atoms: N_6  and  C_7
REMARK    7  A    between atoms: C_7  and  O_9
REMARK    8  A    between atoms: C_7  and  C_10
REMARK    9  A    between atoms: C_10  and  C_12
REMARK   10  A    between atoms: C_10  and  N_27
REMARK   11  A    between atoms: C_12  and  C_13
REMARK   12  A    between atoms: C_16  and  O_17
REMARK   13  A    between atoms: O_17  and  C_18
REMARK   14  A    between atoms: C_18  and  C_19
REMARK   15  A    between atoms: C_19  and  O_20
REMARK   16  A    between atoms: C_22  and  C_24
REMARK   17  A    between atoms: C_24  and  O_25
REMARK   18  A    between atoms: N_27  and  C_28
REMARK   19  A    between atoms: C_28  and  O_30
REMARK   20  A    between atoms: C_28  and  C_31
REMARK   21  A    between atoms: C_31  and  C_33
REMARK   22  A    between atoms: C_31  and  N_40
REMARK   23  A    between atoms: C_33  and  C_34
REMARK   24  A    between atoms: N_40  and  C_41
REMARK   25  A    between atoms: C_41  and  O_43
REMARK   26  A    between atoms: C_41  and  O_44
REMARK   27  A    between atoms: O_44  and  C_45
REMARK   28  A    between atoms: C_45  and  C_46
REMARK   29  A    between atoms: C_45  and  C_47
REMARK   30  A    between atoms: C_45  and  C_48
REMARK                            x       y       z     vdW  Elec       q    Type
REMARK                         _______ _______ _______ _____ _____    ______ ____
ROOT
ATOM      1  C   UNL     1       7.638   0.889  26.072  0.00  0.00    +0.104 C 
ENDROOT
BRANCH   1   2
ATOM      2  N   UNL     1       7.899   2.383  25.957  0.00  0.00    -0.284 NA
ATOM      3  H   UNL     1       7.329   2.854  26.654  0.00  0.00    +0.125 HD
BRANCH   2   4
ATOM      4  C   UNL     1       7.505   2.908  24.640  0.00  0.00    +0.200 C 
BRANCH   4   5
ATOM      5  O   UNL     1       6.564   3.953  24.904  0.00  0.00    -0.376 OA
ATOM      6  H   UNL     1       6.915   4.765  24.506  0.00  0.00    +0.212 HD
ENDBRANCH   4   5
BRANCH   4   7
ATOM      7  C   UNL     1       8.536   3.499  23.567  0.00  0.00    +0.106 C 
BRANCH   7   8
ATOM      8  N   UNL     1       8.604   4.930  23.214  0.00  0.00    -0.262 NA
ATOM      9  H   UNL     1       7.724   5.396  23.421  0.00  0.00    +0.127 HD
BRANCH   8  10
ATOM     10  C   UNL     1       9.651   5.764  23.734  0.00  0.00    +0.326 C 
BRANCH  10  11
ATOM     11  O   UNL     1       9.063   7.029  23.935  0.00  0.00    -0.355 OA
ATOM     12  H   UNL     1       8.612   7.175  23.087  0.00  0.00    +0.214 HD
ENDBRANCH  10  11
BRANCH  10  13
ATOM     13  O   UNL     1      10.722   5.946  22.815  0.00  0.00    -0.333 OA
BRANCH  13  14
ATOM     14  C   UNL     1      12.049   5.562  23.245  0.00  0.00    +0.065 C 
ATOM     15  C   UNL     1      13.153   5.795  22.199  0.00  0.00    +0.041 C 
ATOM     16  C   UNL     1      11.995   4.040  23.482  0.00  0.00    +0.041 C 
ATOM     17  C   UNL     1      12.425   6.275  24.546  0.00  0.00    +0.041 C 
ENDBRANCH  13  14
ENDBRANCH  10  13
ENDBRANCH   8  10
ENDBRANCH   7   8
BRANCH   7  18
ATOM     18  C   UNL     1       8.504   2.651  22.252  0.00  0.00    +0.058 C 
BRANCH  18  19
ATOM     19  C   UNL     1       9.219   1.311  22.315  0.00  0.00    -0.046 A 
ATOM     20  C   UNL     1       9.018   0.354  21.310  0.00  0.00    +0.004 A 
ATOM     21  C   UNL     1       9.642  -0.896  21.378  0.00  0.00    +0.000 A 
ATOM     22  C   UNL     1      10.469  -1.207  22.455  0.00  0.00    +0.000 A 
ATOM     23  C   UNL     1      10.676  -0.268  23.462  0.00  0.00    +0.000 A 
ATOM     24  C   UNL     1      10.051   0.979  23.396  0.00  0.00    +0.004 A 
ENDBRANCH  18  19
ENDBRANCH   7  18
ENDBRANCH   4   7
ENDBRANCH   2   4
ENDBRANCH   1   2
BRANCH   1  25
ATOM     25  C   UNL     1       6.721   0.314  24.952  0.00  0.00    +0.057 C 
BRANCH  25  26
ATOM     26  C   UNL     1       6.942  -0.983  24.238  0.00  0.00    -0.045 A 
ATOM     27  C   UNL     1       7.821  -1.902  24.859  0.00  0.00    +0.022 A 
ATOM     28  C   UNL     1       8.010  -3.195  24.369  0.00  0.00    +0.101 A 
ATOM     29  C   UNL     1       7.310  -3.572  23.211  0.00  0.00    +0.135 A 
ATOM     30  C   UNL     1       6.546  -2.607  22.519  0.00  0.00    +0.047 A 
ATOM     31  C   UNL     1       6.364  -1.321  23.031  0.00  0.00    +0.007 A 
BRANCH  28  32
ATOM     32  C   UNL     1       8.929  -4.063  25.165  0.00  0.00    +0.340 C 
ATOM     33  O   UNL     1       9.970  -4.513  24.729  0.00  0.00    -0.245 OA
BRANCH  32  34
ATOM     34  O   UNL     1       8.530  -4.306  26.447  0.00  0.00    -0.477 OA
ATOM     35  H   UNL     1       9.244  -4.215  27.091  0.00  0.00    +0.295 HD
ENDBRANCH  32  34
ENDBRANCH  28  32
BRANCH  29  36
ATOM     36  O   UNL     1       7.408  -4.872  22.767  0.00  0.00    -0.480 OA
BRANCH  36  37
ATOM     37  C   UNL     1       6.377  -5.278  21.864  0.00  0.00    +0.349 C 
BRANCH  37  38
ATOM     38  C   UNL     1       5.116  -5.710  22.605  0.00  0.00    +0.343 C 
ATOM     39  O   UNL     1       4.070  -5.093  22.592  0.00  0.00    -0.247 OA
BRANCH  38  40
ATOM     40  O   UNL     1       5.278  -6.870  23.292  0.00  0.00    -0.478 OA
ATOM     41  H   UNL     1       4.565  -7.515  23.098  0.00  0.00    +0.295 HD
ENDBRANCH  38  40
ENDBRANCH  37  38
ENDBRANCH  36  37
ENDBRANCH  29  36
ENDBRANCH  25  26
ENDBRANCH   1  25
BRANCH   1  42
ATOM     42  C   UNL     1       7.036   0.362  27.465  0.00  0.00    +0.200 C 
BRANCH  42  43
ATOM     43  O   UNL     1       7.795   0.810  28.579  0.00  0.00    -0.376 OA
ATOM     44  H   UNL     1       8.300   0.049  28.899  0.00  0.00    +0.212 HD
ENDBRANCH  42  43
BRANCH  42  45
ATOM     45  N   UNL     1       5.647   0.677  27.779  0.00  0.00    -0.291 NA
ATOM     46  H   UNL     1       5.686   1.382  28.513  0.00  0.00    +0.124 HD
BRANCH  45  47
ATOM     47  C   UNL     1       4.884  -0.472  28.264  0.00  0.00    +0.083 C 
BRANCH  47  48
ATOM     48  C   UNL     1       5.112  -1.734  27.439  0.00  0.00    +0.015 C 
BRANCH  48  49
ATOM     49  C   UNL     1       3.911  -1.942  26.503  0.00  0.00    +0.001 C 
BRANCH  49  51
ATOM     50  C   UNL     1       4.930  -4.201  26.107  0.00  0.00    +0.004 C 
ATOM     51  C   UNL     1       4.177  -3.042  25.485  0.00  0.00    -0.003 C 
ENDBRANCH  49  51
ENDBRANCH  48  49
ENDBRANCH  47  48
ENDBRANCH  45  47
ENDBRANCH  42  45
ENDBRANCH   1  42
TORSDOF 26
ENDMDL
MODEL 4
REMARK VINA RESULT:      -6.3      2.373      8.866
REMARK  Name = 
REMARK  30 active torsions:
REMARK  status: ('A' for Active; 'I' for Inactive)
REMARK    1  A    between atoms: C_1  and  C_2
REMARK    2  A    between atoms: C_2  and  C_3
REMARK    3  A    between atoms: C_3  and  C_4
REMARK    4  A    between atoms: C_4  and  C_5
REMARK    5  A    between atoms: C_5  and  N_6
REMARK    6  A    between atoms: N_6  and  C_7
REMARK    7  A    between atoms: C_7  and  O_9
REMARK    8  A    between atoms: C_7  and  C_10
REMARK    9  A    between atoms: C_10  and  C_12
REMARK   10  A    between atoms: C_10  and  N_27
REMARK   11  A    between atoms: C_12  and  C_13
REMARK   12  A    between atoms: C_16  and  O_17
REMARK   13  A    between atoms: O_17  and  C_18
REMARK   14  A    between atoms: C_18  and  C_19
REMARK   15  A    between atoms: C_19  and  O_20
REMARK   16  A    between atoms: C_22  and  C_24
REMARK   17  A    between atoms: C_24  and  O_25
REMARK   18  A    between atoms: N_27  and  C_28
REMARK   19  A    between atoms: C_28  and  O_30
REMARK   20  A    between atoms: C_28  and  C_31
REMARK   21  A    between atoms: C_31  and  C_33
REMARK   22  A    between atoms: C_31  and  N_40
REMARK   23  A    between atoms: C_33  and  C_34
REMARK   24  A    between atoms: N_40  and  C_41
REMARK   25  A    between atoms: C_41  and  O_43
REMARK   26  A    between atoms: C_41  and  O_44
REMARK   27  A    between atoms: O_44  and  C_45
REMARK   28  A    between atoms: C_45  and  C_46
REMARK   29  A    between atoms: C_45  and  C_47
REMARK   30  A    between atoms: C_45  and  C_48
REMARK                            x       y       z     vdW  Elec       q    Type
REMARK                         _______ _______ _______ _____ _____    ______ ____
ROOT
ATOM      1  C   UNL     1       6.391   1.153  25.117  0.00  0.00    +0.104 C 
ENDROOT
BRANCH   1   2
ATOM      2  N   UNL     1       5.754   1.061  23.739  0.00  0.00    -0.284 NA
ATOM      3  H   UNL     1       6.295   0.400  23.188  0.00  0.00    +0.125 HD
BRANCH   2   4
ATOM      4  C   UNL     1       5.787   2.352  23.032  0.00  0.00    +0.200 C 
BRANCH   4   5
ATOM      5  O   UNL     1       5.272   3.315  23.955  0.00  0.00    -0.376 OA
ATOM      6  H   UNL     1       5.123   2.857  24.798  0.00  0.00    +0.212 HD
ENDBRANCH   4   5
BRANCH   4   7
ATOM      7  C   UNL     1       7.115   2.998  22.412  0.00  0.00    +0.106 C 
BRANCH   7   8
ATOM      8  N   UNL     1       7.144   4.326  21.771  0.00  0.00    -0.262 NA
ATOM      9  H   UNL     1       6.265   4.520  21.298  0.00  0.00    +0.127 HD
BRANCH   8  10
ATOM     10  C   UNL     1       7.477   5.499  22.531  0.00  0.00    +0.326 C 
BRANCH  10  11
ATOM     11  O   UNL     1       7.899   6.456  21.586  0.00  0.00    -0.355 OA
ATOM     12  H   UNL     1       7.659   6.026  20.748  0.00  0.00    +0.214 HD
ENDBRANCH  10  11
BRANCH  10  13
ATOM     13  O   UNL     1       8.564   5.291  23.424  0.00  0.00    -0.333 OA
BRANCH  13  14
ATOM     14  C   UNL     1       8.368   5.636  24.815  0.00  0.00    +0.065 C 
ATOM     15  C   UNL     1       9.539   6.402  25.457  0.00  0.00    +0.041 C 
ATOM     16  C   UNL     1       8.261   4.299  25.574  0.00  0.00    +0.041 C 
ATOM     17  C   UNL     1       7.078   6.438  24.997  0.00  0.00    +0.041 C 
ENDBRANCH  13  14
ENDBRANCH  10  13
ENDBRANCH   8  10
ENDBRANCH   7   8
BRANCH   7  18
ATOM     18  C   UNL     1       7.842   1.969  21.484  0.00  0.00    +0.058 C 
BRANCH  18  19
ATOM     19  C   UNL     1       8.908   1.116  22.153  0.00  0.00    -0.046 A 
ATOM     20  C   UNL     1       9.154  -0.189  21.705  0.00  0.00    +0.004 A 
ATOM     21  C   UNL     1      10.106  -0.995  22.338  0.00  0.00    +0.000 A 
ATOM     22  C   UNL     1      10.819  -0.508  23.430  0.00  0.00    +0.000 A 
ATOM     23  C   UNL     1      10.584   0.786  23.889  0.00  0.00    +0.000 A 
ATOM     24  C   UNL     1       9.631   1.590  23.259  0.00  0.00    +0.004 A 
ENDBRANCH  18  19
ENDBRANCH   7  18
ENDBRANCH   4   7
ENDBRANCH   2   4
ENDBRANCH   1   2
BRANCH   1  25
ATOM     25  C   UNL     1       7.381  -0.005  25.439  0.00  0.00    +0.057 C 
BRANCH  25  26
ATOM     26  C   UNL     1       7.377  -1.349  24.780  0.00  0.00    -0.045 A 
ATOM     27  C   UNL     1       8.224  -2.332  25.345  0.00  0.00    +0.022 A 
ATOM     28  C   UNL     1       8.215  -3.658  24.911  0.00  0.00    +0.101 A 
ATOM     29  C   UNL     1       7.343  -4.006  23.866  0.00  0.00    +0.135 A 
ATOM     30  C   UNL     1       6.605  -2.994  23.215  0.00  0.00    +0.047 A 
ATOM     31  C   UNL     1       6.622  -1.675  23.669  0.00  0.00    +0.007 A 
BRANCH  28  32
ATOM     32  C   UNL     1       9.129  -4.587  25.642  0.00  0.00    +0.340 C 
ATOM     33  O   UNL     1       9.201  -4.637  26.855  0.00  0.00    -0.245 OA
BRANCH  32  34
ATOM     34  O   UNL     1       9.876  -5.408  24.849  0.00  0.00    -0.477 OA
ATOM     35  H   UNL     1       9.391  -5.739  24.082  0.00  0.00    +0.295 HD
ENDBRANCH  32  34
ENDBRANCH  28  32
BRANCH  29  36
ATOM     36  O   UNL     1       7.250  -5.327  23.489  0.00  0.00    -0.480 OA
BRANCH  36  37
ATOM     37  C   UNL     1       7.463  -5.572  22.096  0.00  0.00    +0.349 C 
BRANCH  37  38
ATOM     38  C   UNL     1       6.150  -5.815  21.360  0.00  0.00    +0.343 C 
ATOM     39  O   UNL     1       5.974  -5.583  20.181  0.00  0.00    -0.247 OA
BRANCH  38  40
ATOM     40  O   UNL     1       5.181  -6.327  22.161  0.00  0.00    -0.478 OA
ATOM     41  H   UNL     1       5.538  -6.636  23.020  0.00  0.00    +0.295 HD
ENDBRANCH  38  40
ENDBRANCH  37  38
ENDBRANCH  36  37
ENDBRANCH  29  36
ENDBRANCH  25  26
ENDBRANCH   1  25
BRANCH   1  42
ATOM     42  C   UNL     1       5.393   1.258  26.372  0.00  0.00    +0.200 C 
BRANCH  42  43
ATOM     43  O   UNL     1       5.229   2.598  26.813  0.00  0.00    -0.376 OA
ATOM     44  H   UNL     1       5.179   3.151  26.021  0.00  0.00    +0.212 HD
ENDBRANCH  42  43
BRANCH  42  45
ATOM     45  N   UNL     1       4.046   0.718  26.231  0.00  0.00    -0.291 NA
ATOM     46  H   UNL     1       3.420   1.478  26.489  0.00  0.00    +0.124 HD
BRANCH  45  47
ATOM     47  C   UNL     1       3.784  -0.430  27.096  0.00  0.00    +0.083 C 
BRANCH  47  48
ATOM     48  C   UNL     1       4.194  -1.759  26.468  0.00  0.00    +0.015 C 
BRANCH  48  49
ATOM     49  C   UNL     1       4.969  -2.583  27.509  0.00  0.00    +0.001 C 
BRANCH  49  51
ATOM     50  C   UNL     1       4.315  -4.397  25.902  0.00  0.00    +0.004 C 
ATOM     51  C   UNL     1       5.277  -3.984  26.997  0.00  0.00    -0.003 C 
ENDBRANCH  49  51
ENDBRANCH  48  49
ENDBRANCH  47  48
ENDBRANCH  45  47
ENDBRANCH  42  45
ENDBRANCH   1  42
TORSDOF 26
ENDMDL
MODEL 5
REMARK VINA RESULT:      -6.3      2.679      7.502
REMARK  Name = 
REMARK  30 active torsions:
REMARK  status: ('A' for Active; 'I' for Inactive)
REMARK    1  A    between atoms: C_1  and  C_2
REMARK    2  A    between atoms: C_2  and  C_3
REMARK    3  A    between atoms: C_3  and  C_4
REMARK    4  A    between atoms: C_4  and  C_5
REMARK    5  A    between atoms: C_5  and  N_6
REMARK    6  A    between atoms: N_6  and  C_7
REMARK    7  A    between atoms: C_7  and  O_9
REMARK    8  A    between atoms: C_7  and  C_10
REMARK    9  A    between atoms: C_10  and  C_12
REMARK   10  A    between atoms: C_10  and  N_27
REMARK   11  A    between atoms: C_12  and  C_13
REMARK   12  A    between atoms: C_16  and  O_17
REMARK   13  A    between atoms: O_17  and  C_18
REMARK   14  A    between atoms: C_18  and  C_19
REMARK   15  A    between atoms: C_19  and  O_20
REMARK   16  A    between atoms: C_22  and  C_24
REMARK   17  A    between atoms: C_24  and  O_25
REMARK   18  A    between atoms: N_27  and  C_28
REMARK   19  A    between atoms: C_28  and  O_30
REMARK   20  A    between atoms: C_28  and  C_31
REMARK   21  A    between atoms: C_31  and  C_33
REMARK   22  A    between atoms: C_31  and  N_40
REMARK   23  A    between atoms: C_33  and  C_34
REMARK   24  A    between atoms: N_40  and  C_41
REMARK   25  A    between atoms: C_41  and  O_43
REMARK   26  A    between atoms: C_41  and  O_44
REMARK   27  A    between atoms: O_44  and  C_45
REMARK   28  A    between atoms: C_45  and  C_46
REMARK   29  A    between atoms: C_45  and  C_47
REMARK   30  A    between atoms: C_45  and  C_48
REMARK                            x       y       z     vdW  Elec       q    Type
REMARK                         _______ _______ _______ _____ _____    ______ ____
ROOT
ATOM      1  C   UNL     1       9.474   0.880  23.645  0.00  0.00    +0.104 C 
ENDROOT
BRANCH   1   2
ATOM      2  N   UNL     1       9.470   1.195  25.133  0.00  0.00    -0.284 NA
ATOM      3  H   UNL     1      10.180   0.619  25.576  0.00  0.00    +0.125 HD
BRANCH   2   4
ATOM      4  C   UNL     1       8.181   0.861  25.761  0.00  0.00    +0.200 C 
BRANCH   4   5
ATOM      5  O   UNL     1       8.464  -0.184  26.696  0.00  0.00    -0.376 OA
ATOM      6  H   UNL     1       8.025  -0.987  26.373  0.00  0.00    +0.212 HD
ENDBRANCH   4   5
BRANCH   4   7
ATOM      7  C   UNL     1       7.265   1.919  26.540  0.00  0.00    +0.106 C 
BRANCH   7   8
ATOM      8  N   UNL     1       5.820   1.725  26.764  0.00  0.00    -0.262 NA
ATOM      9  H   UNL     1       5.304   2.579  26.563  0.00  0.00    +0.127 HD
BRANCH   8  10
ATOM     10  C   UNL     1       5.116   0.651  26.120  0.00  0.00    +0.326 C 
BRANCH  10  11
ATOM     11  O   UNL     1       3.766   1.054  26.078  0.00  0.00    -0.355 OA
ATOM     12  H   UNL     1       3.435   0.724  26.931  0.00  0.00    +0.214 HD
ENDBRANCH  10  11
BRANCH  10  13
ATOM     13  O   UNL     1       5.163  -0.564  26.858  0.00  0.00    -0.333 OA
BRANCH  13  14
ATOM     14  C   UNL     1       5.254  -1.800  26.112  0.00  0.00    +0.065 C 
ATOM     15  C   UNL     1       5.601  -1.627  24.623  0.00  0.00    +0.041 C 
ATOM     16  C   UNL     1       3.846  -2.427  26.155  0.00  0.00    +0.041 C 
ATOM     17  C   UNL     1       6.263  -2.751  26.760  0.00  0.00    +0.041 C 
ENDBRANCH  13  14
ENDBRANCH  10  13
ENDBRANCH   8  10
ENDBRANCH   7   8
BRANCH   7  18
ATOM     18  C   UNL     1       7.506   3.362  25.987  0.00  0.00    +0.058 C 
BRANCH  18  19
ATOM     19  C   UNL     1       6.548   3.820  24.898  0.00  0.00    -0.046 A 
ATOM     20  C   UNL     1       6.561   3.204  23.640  0.00  0.00    +0.004 A 
ATOM     21  C   UNL     1       5.711   3.643  22.620  0.00  0.00    +0.000 A 
ATOM     22  C   UNL     1       4.841   4.708  22.844  0.00  0.00    +0.000 A 
ATOM     23  C   UNL     1       4.818   5.332  24.089  0.00  0.00    +0.000 A 
ATOM     24  C   UNL     1       5.670   4.896  25.107  0.00  0.00    +0.004 A 
ENDBRANCH  18  19
ENDBRANCH   7  18
ENDBRANCH   4   7
ENDBRANCH   2   4
ENDBRANCH   1   2
BRANCH   1  25
ATOM     25  C   UNL     1      10.114  -0.495  23.287  0.00  0.00    +0.057 C 
BRANCH  25  26
ATOM     26  C   UNL     1       9.378  -1.798  23.231  0.00  0.00    -0.045 A 
ATOM     27  C   UNL     1       9.692  -2.743  24.236  0.00  0.00    +0.022 A 
ATOM     28  C   UNL     1       8.987  -3.939  24.377  0.00  0.00    +0.101 A 
ATOM     29  C   UNL     1       7.946  -4.203  23.471  0.00  0.00    +0.135 A 
ATOM     30  C   UNL     1       7.731  -3.323  22.388  0.00  0.00    +0.047 A 
ATOM     31  C   UNL     1       8.443  -2.129  22.270  0.00  0.00    +0.007 A 
BRANCH  28  32
ATOM     32  C   UNL     1       9.403  -4.808  25.518  0.00  0.00    +0.340 C 
ATOM     33  O   UNL     1       9.302  -4.476  26.683  0.00  0.00    -0.245 OA
BRANCH  32  34
ATOM     34  O   UNL     1       9.893  -6.032  25.166  0.00  0.00    -0.477 OA
ATOM     35  H   UNL     1      10.620  -6.326  25.729  0.00  0.00    +0.295 HD
ENDBRANCH  32  34
ENDBRANCH  28  32
BRANCH  29  36
ATOM     36  O   UNL     1       7.176  -5.330  23.651  0.00  0.00    -0.480 OA
BRANCH  36  37
ATOM     37  C   UNL     1       6.384  -5.705  22.522  0.00  0.00    +0.349 C 
BRANCH  37  38
ATOM     38  C   UNL     1       4.936  -5.979  22.916  0.00  0.00    +0.343 C 
ATOM     39  O   UNL     1       4.016  -5.211  22.715  0.00  0.00    -0.247 OA
BRANCH  38  40
ATOM     40  O   UNL     1       4.771  -7.182  23.522  0.00  0.00    -0.478 OA
ATOM     41  H   UNL     1       4.530  -7.088  24.468  0.00  0.00    +0.295 HD
ENDBRANCH  38  40
ENDBRANCH  37  38
ENDBRANCH  36  37
ENDBRANCH  29  36
ENDBRANCH  25  26
ENDBRANCH   1  25
BRANCH   1  42
ATOM     42  C   UNL     1      10.156   1.963  22.675  0.00  0.00    +0.200 C 
BRANCH  42  43
ATOM     43  O   UNL     1       9.697   1.847  21.336  0.00  0.00    -0.376 OA
ATOM     44  H   UNL     1       9.099   2.591  21.178  0.00  0.00    +0.212 HD
ENDBRANCH  42  43
BRANCH  42  45
ATOM     45  N   UNL     1      10.028   3.375  23.018  0.00  0.00    -0.291 NA
ATOM     46  H   UNL     1       9.622   3.819  22.197  0.00  0.00    +0.124 HD
BRANCH  45  47
ATOM     47  C   UNL     1      11.303   4.019  23.327  0.00  0.00    +0.083 C 
BRANCH  47  48
ATOM     48  C   UNL     1      11.158   5.494  23.686  0.00  0.00    +0.015 C 
BRANCH  48  49
ATOM     49  C   UNL     1       9.839   5.693  24.451  0.00  0.00    +0.001 C 
BRANCH  49  51
ATOM     50  C   UNL     1       8.182   6.457  22.727  0.00  0.00    +0.004 C 
ATOM     51  C   UNL     1       9.045   6.871  23.902  0.00  0.00    -0.003 C 
ENDBRANCH  49  51
ENDBRANCH  48  49
ENDBRANCH  47  48
ENDBRANCH  45  47
ENDBRANCH  42  45
ENDBRANCH   1  42
TORSDOF 26
ENDMDL
MODEL 6
REMARK VINA RESULT:      -6.2      2.647      7.370
REMARK  Name = 
REMARK  30 active torsions:
REMARK  status: ('A' for Active; 'I' for Inactive)
REMARK    1  A    between atoms: C_1  and  C_2
REMARK    2  A    between atoms: C_2  and  C_3
REMARK    3  A    between atoms: C_3  and  C_4
REMARK    4  A    between atoms: C_4  and  C_5
REMARK    5  A    between atoms: C_5  and  N_6
REMARK    6  A    between atoms: N_6  and  C_7
REMARK    7  A    between atoms: C_7  and  O_9
REMARK    8  A    between atoms: C_7  and  C_10
REMARK    9  A    between atoms: C_10  and  C_12
REMARK   10  A    between atoms: C_10  and  N_27
REMARK   11  A    between atoms: C_12  and  C_13
REMARK   12  A    between atoms: C_16  and  O_17
REMARK   13  A    between atoms: O_17  and  C_18
REMARK   14  A    between atoms: C_18  and  C_19
REMARK   15  A    between atoms: C_19  and  O_20
REMARK   16  A    between atoms: C_22  and  C_24
REMARK   17  A    between atoms: C_24  and  O_25
REMARK   18  A    between atoms: N_27  and  C_28
REMARK   19  A    between atoms: C_28  and  O_30
REMARK   20  A    between atoms: C_28  and  C_31
REMARK   21  A    between atoms: C_31  and  C_33
REMARK   22  A    between atoms: C_31  and  N_40
REMARK   23  A    between atoms: C_33  and  C_34
REMARK   24  A    between atoms: N_40  and  C_41
REMARK   25  A    between atoms: C_41  and  O_43
REMARK   26  A    between atoms: C_41  and  O_44
REMARK   27  A    between atoms: O_44  and  C_45
REMARK   28  A    between atoms: C_45  and  C_46
REMARK   29  A    between atoms: C_45  and  C_47
REMARK   30  A    between atoms: C_45  and  C_48
REMARK                            x       y       z     vdW  Elec       q    Type
REMARK                         _______ _______ _______ _____ _____    ______ ____
ROOT
ATOM      1  C   UNL     1       8.965  -0.186  23.192  0.00  0.00    +0.104 C 
ENDROOT
BRANCH   1   2
ATOM      2  N   UNL     1       9.594   0.164  24.532  0.00  0.00    -0.284 NA
ATOM      3  H   UNL     1      10.020  -0.678  24.908  0.00  0.00    +0.125 HD
BRANCH   2   4
ATOM      4  C   UNL     1       8.590   0.620  25.507  0.00  0.00    +0.200 C 
BRANCH   4   5
ATOM      5  O   UNL     1       7.425   0.945  24.743  0.00  0.00    -0.376 OA
ATOM      6  H   UNL     1       6.669   0.938  25.350  0.00  0.00    +0.212 HD
ENDBRANCH   4   5
BRANCH   4   7
ATOM      7  C   UNL     1       8.078  -0.262  26.742  0.00  0.00    +0.106 C 
BRANCH   7   8
ATOM      8  N   UNL     1       7.849   0.291  28.090  0.00  0.00    -0.262 NA
ATOM      9  H   UNL     1       8.729   0.414  28.586  0.00  0.00    +0.127 HD
BRANCH   8  10
ATOM     10  C   UNL     1       7.097   1.502  28.267  0.00  0.00    +0.326 C 
BRANCH  10  11
ATOM     11  O   UNL     1       7.727   2.189  29.325  0.00  0.00    -0.355 OA
ATOM     12  H   UNL     1       7.284   3.054  29.290  0.00  0.00    +0.214 HD
ENDBRANCH  10  11
BRANCH  10  13
ATOM     13  O   UNL     1       5.753   1.266  28.669  0.00  0.00    -0.333 OA
BRANCH  13  14
ATOM     14  C   UNL     1       4.708   1.510  27.699  0.00  0.00    +0.065 C 
ATOM     15  C   UNL     1       4.447   0.342  26.731  0.00  0.00    +0.041 C 
ATOM     16  C   UNL     1       5.199   2.686  26.832  0.00  0.00    +0.041 C 
ATOM     17  C   UNL     1       3.401   1.892  28.396  0.00  0.00    +0.041 C 
ENDBRANCH  13  14
ENDBRANCH  10  13
ENDBRANCH   8  10
ENDBRANCH   7   8
BRANCH   7  18
ATOM     18  C   UNL     1       8.924  -1.573  26.866  0.00  0.00    +0.058 C 
BRANCH  18  19
ATOM     19  C   UNL     1       8.200  -2.862  26.509  0.00  0.00    -0.046 A 
ATOM     20  C   UNL     1       6.847  -3.027  26.835  0.00  0.00    +0.004 A 
ATOM     21  C   UNL     1       6.183  -4.223  26.545  0.00  0.00    +0.000 A 
ATOM     22  C   UNL     1       6.865  -5.270  25.931  0.00  0.00    +0.000 A 
ATOM     23  C   UNL     1       8.210  -5.123  25.604  0.00  0.00    +0.000 A 
ATOM     24  C   UNL     1       8.875  -3.929  25.897  0.00  0.00    +0.004 A 
ENDBRANCH  18  19
ENDBRANCH   7  18
ENDBRANCH   4   7
ENDBRANCH   2   4
ENDBRANCH   1   2
BRANCH   1  25
ATOM     25  C   UNL     1       8.758  -1.714  22.967  0.00  0.00    +0.057 C 
BRANCH  25  26
ATOM     26  C   UNL     1       7.430  -2.402  22.898  0.00  0.00    -0.045 A 
ATOM     27  C   UNL     1       7.389  -3.623  22.184  0.00  0.00    +0.022 A 
ATOM     28  C   UNL     1       6.249  -4.428  22.157  0.00  0.00    +0.101 A 
ATOM     29  C   UNL     1       5.111  -3.987  22.851  0.00  0.00    +0.135 A 
ATOM     30  C   UNL     1       5.114  -2.704  23.442  0.00  0.00    +0.047 A 
ATOM     31  C   UNL     1       6.267  -1.918  23.465  0.00  0.00    +0.007 A 
BRANCH  28  32
ATOM     32  C   UNL     1       6.379  -5.712  21.404  0.00  0.00    +0.340 C 
ATOM     33  O   UNL     1       6.760  -6.749  21.911  0.00  0.00    -0.245 OA
BRANCH  32  34
ATOM     34  O   UNL     1       6.014  -5.653  20.091  0.00  0.00    -0.477 OA
ATOM     35  H   UNL     1       5.078  -5.451  19.965  0.00  0.00    +0.295 HD
ENDBRANCH  32  34
ENDBRANCH  28  32
BRANCH  29  36
ATOM     36  O   UNL     1       4.009  -4.811  22.917  0.00  0.00    -0.480 OA
BRANCH  36  37
ATOM     37  C   UNL     1       3.672  -5.261  24.231  0.00  0.00    +0.349 C 
BRANCH  37  38
ATOM     38  C   UNL     1       3.469  -6.772  24.275  0.00  0.00    +0.343 C 
ATOM     39  O   UNL     1       2.453  -7.315  24.659  0.00  0.00    -0.247 OA
BRANCH  38  40
ATOM     40  O   UNL     1       4.551  -7.464  23.836  0.00  0.00    -0.478 OA
ATOM     41  H   UNL     1       5.189  -6.888  23.364  0.00  0.00    +0.295 HD
ENDBRANCH  38  40
ENDBRANCH  37  38
ENDBRANCH  36  37
ENDBRANCH  29  36
ENDBRANCH  25  26
ENDBRANCH   1  25
BRANCH   1  42
ATOM     42  C   UNL     1       9.700   0.370  21.877  0.00  0.00    +0.200 C 
BRANCH  42  43
ATOM     43  O   UNL     1       9.450  -0.444  20.740  0.00  0.00    -0.376 OA
ATOM     44  H   UNL     1       9.647  -1.356  20.998  0.00  0.00    +0.212 HD
ENDBRANCH  42  43
BRANCH  42  45
ATOM     45  N   UNL     1       9.422   1.737  21.456  0.00  0.00    -0.291 NA
ATOM     46  H   UNL     1      10.034   2.326  22.018  0.00  0.00    +0.124 HD
BRANCH  45  47
ATOM     47  C   UNL     1       8.036   2.146  21.677  0.00  0.00    +0.083 C 
BRANCH  47  48
ATOM     48  C   UNL     1       7.913   3.508  22.351  0.00  0.00    +0.015 C 
BRANCH  48  49
ATOM     49  C   UNL     1       9.060   3.670  23.361  0.00  0.00    +0.001 C 
BRANCH  49  51
ATOM     50  C   UNL     1       9.181   5.583  24.982  0.00  0.00    +0.004 C 
ATOM     51  C   UNL     1       8.565   4.230  24.687  0.00  0.00    -0.003 C 
ENDBRANCH  49  51
ENDBRANCH  48  49
ENDBRANCH  47  48
ENDBRANCH  45  47
ENDBRANCH  42  45
ENDBRANCH   1  42
TORSDOF 26
ENDMDL
MODEL 7
REMARK VINA RESULT:      -6.1      1.976      8.704
REMARK  Name = 
REMARK  30 active torsions:
REMARK  status: ('A' for Active; 'I' for Inactive)
REMARK    1  A    between atoms: C_1  and  C_2
REMARK    2  A    between atoms: C_2  and  C_3
REMARK    3  A    between atoms: C_3  and  C_4
REMARK    4  A    between atoms: C_4  and  C_5
REMARK    5  A    between atoms: C_5  and  N_6
REMARK    6  A    between atoms: N_6  and  C_7
REMARK    7  A    between atoms: C_7  and  O_9
REMARK    8  A    between atoms: C_7  and  C_10
REMARK    9  A    between atoms: C_10  and  C_12
REMARK   10  A    between atoms: C_10  and  N_27
REMARK   11  A    between atoms: C_12  and  C_13
REMARK   12  A    between atoms: C_16  and  O_17
REMARK   13  A    between atoms: O_17  and  C_18
REMARK   14  A    between atoms: C_18  and  C_19
REMARK   15  A    between atoms: C_19  and  O_20
REMARK   16  A    between atoms: C_22  and  C_24
REMARK   17  A    between atoms: C_24  and  O_25
REMARK   18  A    between atoms: N_27  and  C_28
REMARK   19  A    between atoms: C_28  and  O_30
REMARK   20  A    between atoms: C_28  and  C_31
REMARK   21  A    between atoms: C_31  and  C_33
REMARK   22  A    between atoms: C_31  and  N_40
REMARK   23  A    between atoms: C_33  and  C_34
REMARK   24  A    between atoms: N_40  and  C_41
REMARK   25  A    between atoms: C_41  and  O_43
REMARK   26  A    between atoms: C_41  and  O_44
REMARK   27  A    between atoms: O_44  and  C_45
REMARK   28  A    between atoms: C_45  and  C_46
REMARK   29  A    between atoms: C_45  and  C_47
REMARK   30  A    between atoms: C_45  and  C_48
REMARK                            x       y       z     vdW  Elec       q    Type
REMARK                         _______ _______ _______ _____ _____    ______ ____
ROOT
ATOM      1  C   UNL     1       9.838   0.226  23.505  0.00  0.00    +0.104 C 
ENDROOT
BRANCH   1   2
ATOM      2  N   UNL     1      10.727   1.458  23.434  0.00  0.00    -0.284 NA
ATOM      3  H   UNL     1      10.881   1.787  24.384  0.00  0.00    +0.125 HD
BRANCH   2   4
ATOM      4  C   UNL     1      10.087   2.554  22.689  0.00  0.00    +0.200 C 
BRANCH   4   5
ATOM      5  O   UNL     1       9.680   1.990  21.440  0.00  0.00    -0.376 OA
ATOM      6  H   UNL     1      10.376   2.184  20.794  0.00  0.00    +0.212 HD
ENDBRANCH   4   5
BRANCH   4   7
ATOM      7  C   UNL     1       8.832   3.390  23.230  0.00  0.00    +0.106 C 
BRANCH   7   8
ATOM      8  N   UNL     1       8.565   4.788  22.842  0.00  0.00    -0.262 NA
ATOM      9  H   UNL     1       9.228   5.102  22.138  0.00  0.00    +0.127 HD
BRANCH   8  10
ATOM     10  C   UNL     1       7.260   5.187  22.394  0.00  0.00    +0.326 C 
BRANCH  10  11
ATOM     11  O   UNL     1       7.483   6.128  21.368  0.00  0.00    -0.355 OA
ATOM     12  H   UNL     1       6.978   5.741  20.632  0.00  0.00    +0.214 HD
ENDBRANCH  10  11
BRANCH  10  13
ATOM     13  O   UNL     1       6.505   5.847  23.404  0.00  0.00    -0.333 OA
BRANCH  13  14
ATOM     14  C   UNL     1       5.097   5.532  23.503  0.00  0.00    +0.065 C 
ATOM     15  C   UNL     1       4.626   5.138  24.914  0.00  0.00    +0.041 C 
ATOM     16  C   UNL     1       4.874   4.293  22.614  0.00  0.00    +0.041 C 
ATOM     17  C   UNL     1       4.244   6.696  22.992  0.00  0.00    +0.041 C 
ENDBRANCH  13  14
ENDBRANCH  10  13
ENDBRANCH   8  10
ENDBRANCH   7   8
BRANCH   7  18
ATOM     18  C   UNL     1       8.718   3.262  24.785  0.00  0.00    +0.058 C 
BRANCH  18  19
ATOM     19  C   UNL     1       7.442   2.614  25.301  0.00  0.00    -0.046 A 
ATOM     20  C   UNL     1       6.588   1.935  24.422  0.00  0.00    +0.004 A 
ATOM     21  C   UNL     1       5.394   1.369  24.881  0.00  0.00    +0.000 A 
ATOM     22  C   UNL     1       5.037   1.479  26.223  0.00  0.00    +0.000 A 
ATOM     23  C   UNL     1       5.875   2.153  27.108  0.00  0.00    +0.000 A 
ATOM     24  C   UNL     1       7.066   2.722  26.649  0.00  0.00    +0.004 A 
ENDBRANCH  18  19
ENDBRANCH   7  18
ENDBRANCH   4   7
ENDBRANCH   2   4
ENDBRANCH   1   2
BRANCH   1  25
ATOM     25  C   UNL     1       9.992  -0.596  24.819  0.00  0.00    +0.057 C 
BRANCH  25  26
ATOM     26  C   UNL     1       8.934  -1.470  25.417  0.00  0.00    -0.045 A 
ATOM     27  C   UNL     1       9.099  -2.865  25.250  0.00  0.00    +0.022 A 
ATOM     28  C   UNL     1       8.260  -3.792  25.869  0.00  0.00    +0.101 A 
ATOM     29  C   UNL     1       7.212  -3.305  26.667  0.00  0.00    +0.135 A 
ATOM     30  C   UNL     1       6.968  -1.914  26.716  0.00  0.00    +0.047 A 
ATOM     31  C   UNL     1       7.824  -1.004  26.096  0.00  0.00    +0.007 A 
BRANCH  28  32
ATOM     32  C   UNL     1       8.596  -5.229  25.637  0.00  0.00    +0.340 C 
ATOM     33  O   UNL     1       9.069  -5.646  24.598  0.00  0.00    -0.245 OA
BRANCH  32  34
ATOM     34  O   UNL     1       8.355  -6.058  26.694  0.00  0.00    -0.477 OA
ATOM     35  H   UNL     1       9.163  -6.382  27.114  0.00  0.00    +0.295 HD
ENDBRANCH  32  34
ENDBRANCH  28  32
BRANCH  29  36
ATOM     36  O   UNL     1       6.432  -4.201  27.364  0.00  0.00    -0.480 OA
BRANCH  36  37
ATOM     37  C   UNL     1       5.128  -4.415  26.819  0.00  0.00    +0.349 C 
BRANCH  37  38
ATOM     38  C   UNL     1       4.813  -5.901  26.679  0.00  0.00    +0.343 C 
ATOM     39  O   UNL     1       5.578  -6.793  26.984  0.00  0.00    -0.247 OA
BRANCH  38  40
ATOM     40  O   UNL     1       3.576  -6.134  26.172  0.00  0.00    -0.478 OA
ATOM     41  H   UNL     1       2.924  -6.343  26.874  0.00  0.00    +0.295 HD
ENDBRANCH  38  40
ENDBRANCH  37  38
ENDBRANCH  36  37
ENDBRANCH  29  36
ENDBRANCH  25  26
ENDBRANCH   1  25
BRANCH   1  42
ATOM     42  C   UNL     1       9.958  -0.826  22.296  0.00  0.00    +0.200 C 
BRANCH  42  43
ATOM     43  O   UNL     1      10.879  -1.868  22.585  0.00  0.00    -0.376 OA
ATOM     44  H   UNL     1      11.766  -1.490  22.507  0.00  0.00    +0.212 HD
ENDBRANCH  42  43
BRANCH  42  45
ATOM     45  N   UNL     1       8.743  -1.485  21.832  0.00  0.00    -0.291 NA
ATOM     46  H   UNL     1       8.735  -1.360  20.821  0.00  0.00    +0.124 HD
BRANCH  45  47
ATOM     47  C   UNL     1       7.519  -0.917  22.392  0.00  0.00    +0.083 C 
BRANCH  47  48
ATOM     48  C   UNL     1       6.476  -1.972  22.746  0.00  0.00    +0.015 C 
BRANCH  48  49
ATOM     49  C   UNL     1       7.011  -3.356  22.345  0.00  0.00    +0.001 C 
BRANCH  49  51
ATOM     50  C   UNL     1       5.747  -5.356  23.182  0.00  0.00    +0.004 C 
ATOM     51  C   UNL     1       5.879  -4.336  22.069  0.00  0.00    -0.003 C 
ENDBRANCH  49  51
ENDBRANCH  48  49
ENDBRANCH  47  48
ENDBRANCH  45  47
ENDBRANCH  42  45
ENDBRANCH   1  42
TORSDOF 26
ENDMDL
MODEL 8
REMARK VINA RESULT:      -6.1      2.458      8.700
REMARK  Name = 
REMARK  30 active torsions:
REMARK  status: ('A' for Active; 'I' for Inactive)
REMARK    1  A    between atoms: C_1  and  C_2
REMARK    2  A    between atoms: C_2  and  C_3
REMARK    3  A    between atoms: C_3  and  C_4
REMARK    4  A    between atoms: C_4  and  C_5
REMARK    5  A    between atoms: C_5  and  N_6
REMARK    6  A    between atoms: N_6  and  C_7
REMARK    7  A    between atoms: C_7  and  O_9
REMARK    8  A    between atoms: C_7  and  C_10
REMARK    9  A    between atoms: C_10  and  C_12
REMARK   10  A    between atoms: C_10  and  N_27
REMARK   11  A    between atoms: C_12  and  C_13
REMARK   12  A    between atoms: C_16  and  O_17
REMARK   13  A    between atoms: O_17  and  C_18
REMARK   14  A    between atoms: C_18  and  C_19
REMARK   15  A    between atoms: C_19  and  O_20
REMARK   16  A    between atoms: C_22  and  C_24
REMARK   17  A    between atoms: C_24  and  O_25
REMARK   18  A    between atoms: N_27  and  C_28
REMARK   19  A    between atoms: C_28  and  O_30
REMARK   20  A    between atoms: C_28  and  C_31
REMARK   21  A    between atoms: C_31  and  C_33
REMARK   22  A    between atoms: C_31  and  N_40
REMARK   23  A    between atoms: C_33  and  C_34
REMARK   24  A    between atoms: N_40  and  C_41
REMARK   25  A    between atoms: C_41  and  O_43
REMARK   26  A    between atoms: C_41  and  O_44
REMARK   27  A    between atoms: O_44  and  C_45
REMARK   28  A    between atoms: C_45  and  C_46
REMARK   29  A    between atoms: C_45  and  C_47
REMARK   30  A    between atoms: C_45  and  C_48
REMARK                            x       y       z     vdW  Elec       q    Type
REMARK                         _______ _______ _______ _____ _____    ______ ____
ROOT
ATOM      1  C   UNL     1       6.839   0.899  24.196  0.00  0.00    +0.104 C 
ENDROOT
BRANCH   1   2
ATOM      2  N   UNL     1       6.307   1.359  22.848  0.00  0.00    -0.284 NA
ATOM      3  H   UNL     1       5.838   0.570  22.411  0.00  0.00    +0.125 HD
BRANCH   2   4
ATOM      4  C   UNL     1       7.391   1.779  21.945  0.00  0.00    +0.200 C 
BRANCH   4   5
ATOM      5  O   UNL     1       7.290   3.202  21.851  0.00  0.00    -0.376 OA
ATOM      6  H   UNL     1       6.738   3.502  22.591  0.00  0.00    +0.212 HD
ENDBRANCH   4   5
BRANCH   4   7
ATOM      7  C   UNL     1       8.940   1.459  22.197  0.00  0.00    +0.106 C 
BRANCH   7   8
ATOM      8  N   UNL     1      10.013   2.450  21.993  0.00  0.00    -0.262 NA
ATOM      9  H   UNL     1       9.752   3.125  21.278  0.00  0.00    +0.127 HD
BRANCH   8  10
ATOM     10  C   UNL     1      10.539   3.198  23.101  0.00  0.00    +0.326 C 
BRANCH  10  11
ATOM     11  O   UNL     1      10.984   2.236  24.031  0.00  0.00    -0.355 OA
ATOM     12  H   UNL     1      10.242   1.606  24.033  0.00  0.00    +0.214 HD
ENDBRANCH  10  11
BRANCH  10  13
ATOM     13  O   UNL     1       9.553   3.984  23.758  0.00  0.00    -0.333 OA
BRANCH  13  14
ATOM     14  C   UNL     1       9.798   5.404  23.883  0.00  0.00    +0.065 C 
ATOM     15  C   UNL     1      11.257   5.827  23.632  0.00  0.00    +0.041 C 
ATOM     16  C   UNL     1       9.493   5.762  25.351  0.00  0.00    +0.041 C 
ATOM     17  C   UNL     1       8.875   6.197  22.955  0.00  0.00    +0.041 C 
ENDBRANCH  13  14
ENDBRANCH  10  13
ENDBRANCH   8  10
ENDBRANCH   7   8
BRANCH   7  18
ATOM     18  C   UNL     1       9.344   0.120  21.495  0.00  0.00    +0.058 C 
BRANCH  18  19
ATOM     19  C   UNL     1       9.199  -1.137  22.339  0.00  0.00    -0.046 A 
ATOM     20  C   UNL     1       8.246  -2.108  22.004  0.00  0.00    +0.004 A 
ATOM     21  C   UNL     1       8.080  -3.249  22.795  0.00  0.00    +0.000 A 
ATOM     22  C   UNL     1       8.860  -3.429  23.935  0.00  0.00    +0.000 A 
ATOM     23  C   UNL     1       9.809  -2.471  24.283  0.00  0.00    +0.000 A 
ATOM     24  C   UNL     1       9.973  -1.330  23.494  0.00  0.00    +0.004 A 
ENDBRANCH  18  19
ENDBRANCH   7  18
ENDBRANCH   4   7
ENDBRANCH   2   4
ENDBRANCH   1   2
BRANCH   1  25
ATOM     25  C   UNL     1       5.781   0.182  25.087  0.00  0.00    +0.057 C 
BRANCH  25  26
ATOM     26  C   UNL     1       5.795  -1.274  25.437  0.00  0.00    -0.045 A 
ATOM     27  C   UNL     1       5.089  -2.138  24.567  0.00  0.00    +0.022 A 
ATOM     28  C   UNL     1       5.134  -3.527  24.703  0.00  0.00    +0.101 A 
ATOM     29  C   UNL     1       5.896  -4.064  25.754  0.00  0.00    +0.135 A 
ATOM     30  C   UNL     1       6.481  -3.193  26.699  0.00  0.00    +0.047 A 
ATOM     31  C   UNL     1       6.431  -1.808  26.540  0.00  0.00    +0.007 A 
BRANCH  28  32
ATOM     32  C   UNL     1       4.379  -4.304  23.675  0.00  0.00    +0.340 C 
ATOM     33  O   UNL     1       4.637  -4.272  22.487  0.00  0.00    -0.245 OA
BRANCH  32  34
ATOM     34  O   UNL     1       3.375  -5.088  24.164  0.00  0.00    -0.477 OA
ATOM     35  H   UNL     1       3.591  -6.030  24.159  0.00  0.00    +0.295 HD
ENDBRANCH  32  34
ENDBRANCH  28  32
BRANCH  29  36
ATOM     36  O   UNL     1       6.031  -5.431  25.847  0.00  0.00    -0.480 OA
BRANCH  36  37
ATOM     37  C   UNL     1       5.176  -6.056  26.808  0.00  0.00    +0.349 C 
BRANCH  37  38
ATOM     38  C   UNL     1       5.966  -6.605  27.991  0.00  0.00    +0.343 C 
ATOM     39  O   UNL     1       7.061  -6.201  28.329  0.00  0.00    -0.247 OA
BRANCH  38  40
ATOM     40  O   UNL     1       5.318  -7.604  28.642  0.00  0.00    -0.478 OA
ATOM     41  H   UNL     1       4.551  -7.940  28.132  0.00  0.00    +0.295 HD
ENDBRANCH  38  40
ENDBRANCH  37  38
ENDBRANCH  36  37
ENDBRANCH  29  36
ENDBRANCH  25  26
ENDBRANCH   1  25
BRANCH   1  42
ATOM     42  C   UNL     1       7.529   2.015  25.123  0.00  0.00    +0.200 C 
BRANCH  42  43
ATOM     43  O   UNL     1       6.989   3.309  24.893  0.00  0.00    -0.376 OA
ATOM     44  H   UNL     1       7.526   3.933  25.401  0.00  0.00    +0.212 HD
ENDBRANCH  42  43
BRANCH  42  45
ATOM     45  N   UNL     1       7.503   1.825  26.568  0.00  0.00    -0.291 NA
ATOM     46  H   UNL     1       6.875   1.040  26.729  0.00  0.00    +0.124 HD
BRANCH  45  47
ATOM     47  C   UNL     1       7.007   2.988  27.302  0.00  0.00    +0.083 C 
BRANCH  47  48
ATOM     48  C   UNL     1       6.277   2.618  28.588  0.00  0.00    +0.015 C 
BRANCH  48  49
ATOM     49  C   UNL     1       6.447   1.112  28.843  0.00  0.00    +0.001 C 
BRANCH  49  51
ATOM     50  C   UNL     1       4.007   1.042  28.258  0.00  0.00    +0.004 C 
ATOM     51  C   UNL     1       5.109   0.432  29.101  0.00  0.00    -0.003 C 
ENDBRANCH  49  51
ENDBRANCH  48  49
ENDBRANCH  47  48
ENDBRANCH  45  47
ENDBRANCH  42  45
ENDBRANCH   1  42
TORSDOF 26
ENDMDL
MODEL 9
REMARK VINA RESULT:      -6.0      2.744      8.749
REMARK  Name = 
REMARK  30 active torsions:
REMARK  status: ('A' for Active; 'I' for Inactive)
REMARK    1  A    between atoms: C_1  and  C_2
REMARK    2  A    between atoms: C_2  and  C_3
REMARK    3  A    between atoms: C_3  and  C_4
REMARK    4  A    between atoms: C_4  and  C_5
REMARK    5  A    between atoms: C_5  and  N_6
REMARK    6  A    between atoms: N_6  and  C_7
REMARK    7  A    between atoms: C_7  and  O_9
REMARK    8  A    between atoms: C_7  and  C_10
REMARK    9  A    between atoms: C_10  and  C_12
REMARK   10  A    between atoms: C_10  and  N_27
REMARK   11  A    between atoms: C_12  and  C_13
REMARK   12  A    between atoms: C_16  and  O_17
REMARK   13  A    between atoms: O_17  and  C_18
REMARK   14  A    between atoms: C_18  and  C_19
REMARK   15  A    between atoms: C_19  and  O_20
REMARK   16  A    between atoms: C_22  and  C_24
REMARK   17  A    between atoms: C_24  and  O_25
REMARK   18  A    between atoms: N_27  and  C_28
REMARK   19  A    between atoms: C_28  and  O_30
REMARK   20  A    between atoms: C_28  and  C_31
REMARK   21  A    between atoms: C_31  and  C_33
REMARK   22  A    between atoms: C_31  and  N_40
REMARK   23  A    between atoms: C_33  and  C_34
REMARK   24  A    between atoms: N_40  and  C_41
REMARK   25  A    between atoms: C_41  and  O_43
REMARK   26  A    between atoms: C_41  and  O_44
REMARK   27  A    between atoms: O_44  and  C_45
REMARK   28  A    between atoms: C_45  and  C_46
REMARK   29  A    between atoms: C_45  and  C_47
REMARK   30  A    between atoms: C_45  and  C_48
REMARK                            x       y       z     vdW  Elec       q    Type
REMARK                         _______ _______ _______ _____ _____    ______ ____
ROOT
ATOM      1  C   UNL     1       7.348  -0.480  27.384  0.00  0.00    +0.104 C 
ENDROOT
BRANCH   1   2
ATOM      2  N   UNL     1       8.675  -0.173  26.708  0.00  0.00    -0.284 NA
ATOM      3  H   UNL     1       9.196   0.457  27.312  0.00  0.00    +0.125 HD
BRANCH   2   4
ATOM      4  C   UNL     1       8.488   0.512  25.418  0.00  0.00    +0.200 C 
BRANCH   4   5
ATOM      5  O   UNL     1       8.857   1.875  25.645  0.00  0.00    -0.376 OA
ATOM      6  H   UNL     1       8.916   2.003  26.604  0.00  0.00    +0.212 HD
ENDBRANCH   4   5
BRANCH   4   7
ATOM      7  C   UNL     1       9.214   0.074  24.059  0.00  0.00    +0.106 C 
BRANCH   7   8
ATOM      8  N   UNL     1      10.008   1.002  23.233  0.00  0.00    -0.262 NA
ATOM      9  H   UNL     1      10.691   0.496  22.674  0.00  0.00    +0.127 HD
BRANCH   8  10
ATOM     10  C   UNL     1       9.362   1.939  22.356  0.00  0.00    +0.326 C 
BRANCH  10  11
ATOM     11  O   UNL     1      10.366   2.387  21.473  0.00  0.00    -0.355 OA
ATOM     12  H   UNL     1      11.161   1.975  21.853  0.00  0.00    +0.214 HD
ENDBRANCH  10  11
BRANCH  10  13
ATOM     13  O   UNL     1       8.868   3.086  23.038  0.00  0.00    -0.333 OA
BRANCH  13  14
ATOM     14  C   UNL     1       7.522   3.520  22.735  0.00  0.00    +0.065 C 
ATOM     15  C   UNL     1       7.425   4.925  22.114  0.00  0.00    +0.041 C 
ATOM     16  C   UNL     1       6.786   3.596  24.087  0.00  0.00    +0.041 C 
ATOM     17  C   UNL     1       6.821   2.513  21.821  0.00  0.00    +0.041 C 
ENDBRANCH  13  14
ENDBRANCH  10  13
ENDBRANCH   8  10
ENDBRANCH   7   8
BRANCH   7  18
ATOM     18  C   UNL     1       8.222  -0.707  23.136  0.00  0.00    +0.058 C 
BRANCH  18  19
ATOM     19  C   UNL     1       8.116  -2.202  23.397  0.00  0.00    -0.046 A 
ATOM     20  C   UNL     1       9.040  -2.841  24.235  0.00  0.00    +0.004 A 
ATOM     21  C   UNL     1       8.974  -4.221  24.451  0.00  0.00    +0.000 A 
ATOM     22  C   UNL     1       7.987  -4.980  23.827  0.00  0.00    +0.000 A 
ATOM     23  C   UNL     1       7.063  -4.360  22.989  0.00  0.00    +0.000 A 
ATOM     24  C   UNL     1       7.131  -2.982  22.770  0.00  0.00    +0.004 A 
ENDBRANCH  18  19
ENDBRANCH   7  18
ENDBRANCH   4   7
ENDBRANCH   2   4
ENDBRANCH   1   2
BRANCH   1  25
ATOM     25  C   UNL     1       6.224  -0.935  26.405  0.00  0.00    +0.057 C 
BRANCH  25  26
ATOM     26  C   UNL     1       5.747  -2.344  26.238  0.00  0.00    -0.045 A 
ATOM     27  C   UNL     1       6.460  -3.340  26.947  0.00  0.00    +0.022 A 
ATOM     28  C   UNL     1       6.038  -4.670  26.984  0.00  0.00    +0.101 A 
ATOM     29  C   UNL     1       4.877  -5.016  26.274  0.00  0.00    +0.135 A 
ATOM     30  C   UNL     1       4.252  -4.048  25.456  0.00  0.00    +0.047 A 
ATOM     31  C   UNL     1       4.685  -2.722  25.439  0.00  0.00    +0.007 A 
BRANCH  28  32
ATOM     32  C   UNL     1       6.867  -5.590  27.819  0.00  0.00    +0.340 C 
ATOM     33  O   UNL     1       6.560  -5.933  28.944  0.00  0.00    -0.245 OA
BRANCH  32  34
ATOM     34  O   UNL     1       8.003  -6.051  27.220  0.00  0.00    -0.477 OA
ATOM     35  H   UNL     1       8.539  -5.348  26.830  0.00  0.00    +0.295 HD
ENDBRANCH  32  34
ENDBRANCH  28  32
BRANCH  29  36
ATOM     36  O   UNL     1       4.391  -6.300  26.376  0.00  0.00    -0.480 OA
BRANCH  36  37
ATOM     37  C   UNL     1       4.305  -7.010  25.138  0.00  0.00    +0.349 C 
BRANCH  37  38
ATOM     38  C   UNL     1       2.895  -7.536  24.888  0.00  0.00    +0.343 C 
ATOM     39  O   UNL     1       1.946  -7.320  25.615  0.00  0.00    -0.247 OA
BRANCH  38  40
ATOM     40  O   UNL     1       2.800  -8.280  23.757  0.00  0.00    -0.478 OA
ATOM     41  H   UNL     1       3.550  -8.119  23.146  0.00  0.00    +0.295 HD
ENDBRANCH  38  40
ENDBRANCH  37  38
ENDBRANCH  36  37
ENDBRANCH  29  36
ENDBRANCH  25  26
ENDBRANCH   1  25
BRANCH   1  42
ATOM     42  C   UNL     1       6.712   0.680  28.295  0.00  0.00    +0.200 C 
BRANCH  42  43
ATOM     43  O   UNL     1       7.436   1.898  28.192  0.00  0.00    -0.376 OA
ATOM     44  H   UNL     1       6.794   2.589  27.978  0.00  0.00    +0.212 HD
ENDBRANCH  42  43
BRANCH  42  45
ATOM     45  N   UNL     1       5.312   1.031  28.088  0.00  0.00    -0.291 NA
ATOM     46  H   UNL     1       5.321   1.977  27.710  0.00  0.00    +0.124 HD
BRANCH  45  47
ATOM     47  C   UNL     1       4.518   1.017  29.315  0.00  0.00    +0.083 C 
BRANCH  47  48
ATOM     48  C   UNL     1       3.114   0.458  29.114  0.00  0.00    +0.015 C 
BRANCH  48  49
ATOM     49  C   UNL     1       3.218  -0.922  28.445  0.00  0.00    +0.001 C 
BRANCH  49  51
ATOM     50  C   UNL     1       3.204  -3.335  29.137  0.00  0.00    +0.004 C 
ATOM     51  C   UNL     1       3.794  -1.963  29.395  0.00  0.00    -0.003 C 
ENDBRANCH  49  51
ENDBRANCH  48  49
ENDBRANCH  47  48
ENDBRANCH  45  47
ENDBRANCH  42  45
ENDBRANCH   1  42
TORSDOF 26
ENDMDL
