MODEL 1
REMARK VINA RESULT:      -5.7      0.000      0.000
REMARK  Name = 
REMARK  7 active torsions:
REMARK  status: ('A' for Active; 'I' for Inactive)
REMARK    1  A    between atoms: C_1  and  C_2
REMARK    2  A    between atoms: C_5  and  C_7
REMARK    3  A    between atoms: C_10  and  C_12
REMARK    4  A    between atoms: C_12  and  O_13
REMARK    5  A    between atoms: C_14  and  O_16
REMARK    6  A    between atoms: C_17  and  O_19
REMARK    7  A    between atoms: C_20  and  O_22
REMARK                            x       y       z     vdW  Elec       q    Type
REMARK                         _______ _______ _______ _____ _____    ______ ____
ROOT
ATOM      1  C   UNL     1       9.127  -1.938  24.071  0.00  0.00    +0.237 C 
ATOM      2  C   UNL     1       8.372  -0.993  25.037  0.00  0.00    +0.183 C 
ATOM      3  C   UNL     1       8.392   0.474  24.597  0.00  0.00    +0.177 C 
ATOM      4  C   UNL     1       9.805   0.871  24.164  0.00  0.00    +0.176 C 
ATOM      5  C   UNL     1      10.286  -0.014  23.005  0.00  0.00    +0.176 C 
ATOM      6  O   UNL     1      10.218  -1.417  23.296  0.00  0.00    -0.356 OA
ENDROOT
BRANCH   1  10
ATOM      7  C   UNL     1       7.116  -5.793  21.943  0.00  0.00    +0.111 C 
ATOM      8  C   UNL     1       7.275  -4.367  22.271  0.00  0.00    +0.214 A 
ATOM      9  O   UNL     1       8.347  -4.021  23.053  0.00  0.00    -0.422 OA
ATOM     10  C   UNL     1       8.190  -2.663  23.162  0.00  0.00    +0.248 A 
ATOM     11  N   UNL     1       7.139  -2.219  22.501  0.00  0.00    -0.110 NA
ATOM     12  N   UNL     1       6.541  -3.330  21.933  0.00  0.00    -0.113 NA
ENDBRANCH   1  10
BRANCH   2  13
ATOM     13  O   UNL     1       8.919  -1.113  26.368  0.00  0.00    -0.386 OA
ATOM     14  H   UNL     1       9.244  -2.032  26.471  0.00  0.00    +0.210 HD
ENDBRANCH   2  13
BRANCH   3  15
ATOM     15  O   UNL     1       7.470   0.764  23.547  0.00  0.00    -0.386 OA
ATOM     16  H   UNL     1       7.333  -0.027  22.994  0.00  0.00    +0.210 HD
ENDBRANCH   3  15
BRANCH   4  17
ATOM     17  O   UNL     1      10.684   0.720  25.293  0.00  0.00    -0.386 OA
ATOM     18  H   UNL     1      10.576  -0.199  25.626  0.00  0.00    +0.210 HD
ENDBRANCH   4  17
BRANCH   5  19
ATOM     19  C   UNL     1       9.625   0.321  21.657  0.00  0.00    +0.190 C 
BRANCH  19  20
ATOM     20  O   UNL     1       9.646   1.735  21.453  0.00  0.00    -0.392 OA
ATOM     21  H   UNL     1      10.053   2.118  22.250  0.00  0.00    +0.210 HD
ENDBRANCH  19  20
ENDBRANCH   5  19
TORSDOF 6
ENDMDL
MODEL 2
REMARK VINA RESULT:      -5.6      1.598      3.265
REMARK  Name = 
REMARK  7 active torsions:
REMARK  status: ('A' for Active; 'I' for Inactive)
REMARK    1  A    between atoms: C_1  and  C_2
REMARK    2  A    between atoms: C_5  and  C_7
REMARK    3  A    between atoms: C_10  and  C_12
REMARK    4  A    between atoms: C_12  and  O_13
REMARK    5  A    between atoms: C_14  and  O_16
REMARK    6  A    between atoms: C_17  and  O_19
REMARK    7  A    between atoms: C_20  and  O_22
REMARK                            x       y       z     vdW  Elec       q    Type
REMARK                         _______ _______ _______ _____ _____    ______ ____
ROOT
ATOM      1  C   UNL     1       7.754  -1.604  22.388  0.00  0.00    +0.237 C 
ATOM      2  C   UNL     1       9.250  -1.947  22.185  0.00  0.00    +0.183 C 
ATOM      3  C   UNL     1      10.012  -2.160  23.496  0.00  0.00    +0.177 C 
ATOM      4  C   UNL     1       9.660  -1.054  24.492  0.00  0.00    +0.176 C 
ATOM      5  C   UNL     1       8.152  -1.041  24.777  0.00  0.00    +0.176 C 
ATOM      6  O   UNL     1       7.350  -0.933  23.593  0.00  0.00    -0.356 OA
ENDROOT
BRANCH   1  10
ATOM      7  C   UNL     1       6.710  -6.314  21.995  0.00  0.00    +0.111 C 
ATOM      8  C   UNL     1       6.421  -4.873  22.065  0.00  0.00    +0.214 A 
ATOM      9  O   UNL     1       7.495  -4.021  22.124  0.00  0.00    -0.422 OA
ATOM     10  C   UNL     1       6.880  -2.796  22.183  0.00  0.00    +0.248 A 
ATOM     11  N   UNL     1       5.565  -2.886  22.149  0.00  0.00    -0.110 NA
ATOM     12  N   UNL     1       5.271  -4.237  22.083  0.00  0.00    -0.113 NA
ENDBRANCH   1  10
BRANCH   2  13
ATOM     13  O   UNL     1       9.890  -0.911  21.409  0.00  0.00    -0.386 OA
ATOM     14  H   UNL     1      10.445  -0.385  22.021  0.00  0.00    +0.210 HD
ENDBRANCH   2  13
BRANCH   3  15
ATOM     15  O   UNL     1       9.771  -3.435  24.091  0.00  0.00    -0.386 OA
ATOM     16  H   UNL     1       9.183  -3.964  23.522  0.00  0.00    +0.210 HD
ENDBRANCH   3  15
BRANCH   4  17
ATOM     17  O   UNL     1      10.063   0.208  23.929  0.00  0.00    -0.386 OA
ATOM     18  H   UNL     1      10.464   0.736  24.654  0.00  0.00    +0.210 HD
ENDBRANCH   4  17
BRANCH   5  19
ATOM     19  C   UNL     1       7.684  -2.196  25.678  0.00  0.00    +0.190 C 
BRANCH  19  20
ATOM     20  O   UNL     1       8.667  -2.447  26.684  0.00  0.00    -0.392 OA
ATOM     21  H   UNL     1       9.508  -2.107  26.332  0.00  0.00    +0.210 HD
ENDBRANCH  19  20
ENDBRANCH   5  19
TORSDOF 6
ENDMDL
MODEL 3
REMARK VINA RESULT:      -5.6      2.375      3.573
REMARK  Name = 
REMARK  7 active torsions:
REMARK  status: ('A' for Active; 'I' for Inactive)
REMARK    1  A    between atoms: C_1  and  C_2
REMARK    2  A    between atoms: C_5  and  C_7
REMARK    3  A    between atoms: C_10  and  C_12
REMARK    4  A    between atoms: C_12  and  O_13
REMARK    5  A    between atoms: C_14  and  O_16
REMARK    6  A    between atoms: C_17  and  O_19
REMARK    7  A    between atoms: C_20  and  O_22
REMARK                            x       y       z     vdW  Elec       q    Type
REMARK                         _______ _______ _______ _____ _____    ______ ____
ROOT
ATOM      1  C   UNL     1       7.979   0.690  23.883  0.00  0.00    +0.237 C 
ATOM      2  C   UNL     1       7.369   1.126  22.529  0.00  0.00    +0.183 C 
ATOM      3  C   UNL     1       8.093   2.314  21.886  0.00  0.00    +0.177 C 
ATOM      4  C   UNL     1       8.355   3.396  22.935  0.00  0.00    +0.176 C 
ATOM      5  C   UNL     1       9.210   2.842  24.084  0.00  0.00    +0.176 C 
ATOM      6  O   UNL     1       8.652   1.668  24.692  0.00  0.00    -0.356 OA
ENDROOT
BRANCH   1  10
ATOM      7  C   UNL     1       9.461  -3.850  24.671  0.00  0.00    +0.111 C 
ATOM      8  C   UNL     1       9.478  -2.519  24.044  0.00  0.00    +0.214 A 
ATOM      9  O   UNL     1       8.586  -1.592  24.521  0.00  0.00    -0.422 OA
ATOM     10  C   UNL     1       8.864  -0.503  23.734  0.00  0.00    +0.248 A 
ATOM     11  N   UNL     1       9.836  -0.734  22.873  0.00  0.00    -0.110 NA
ATOM     12  N   UNL     1      10.224  -2.048  23.071  0.00  0.00    -0.113 NA
ENDBRANCH   1  10
BRANCH   2  13
ATOM     13  O   UNL     1       5.970   1.438  22.699  0.00  0.00    -0.386 OA
ATOM     14  H   UNL     1       5.850   1.762  23.616  0.00  0.00    +0.210 HD
ENDBRANCH   2  13
BRANCH   3  15
ATOM     15  O   UNL     1       9.319   1.954  21.251  0.00  0.00    -0.386 OA
ATOM     16  H   UNL     1       9.636   1.098  21.595  0.00  0.00    +0.210 HD
ENDBRANCH   3  15
BRANCH   4  17
ATOM     17  O   UNL     1       7.089   3.852  23.442  0.00  0.00    -0.386 OA
ATOM     18  H   UNL     1       6.740   3.147  24.033  0.00  0.00    +0.210 HD
ENDBRANCH   4  17
BRANCH   5  19
ATOM     19  C   UNL     1      10.689   2.642  23.713  0.00  0.00    +0.190 C 
BRANCH  19  20
ATOM     20  O   UNL     1      11.130   3.732  22.903  0.00  0.00    -0.392 OA
ATOM     21  H   UNL     1      11.565   3.336  22.127  0.00  0.00    +0.210 HD
ENDBRANCH  19  20
ENDBRANCH   5  19
TORSDOF 6
ENDMDL
MODEL 4
REMARK VINA RESULT:      -5.5      2.780      5.217
REMARK  Name = 
REMARK  7 active torsions:
REMARK  status: ('A' for Active; 'I' for Inactive)
REMARK    1  A    between atoms: C_1  and  C_2
REMARK    2  A    between atoms: C_5  and  C_7
REMARK    3  A    between atoms: C_10  and  C_12
REMARK    4  A    between atoms: C_12  and  O_13
REMARK    5  A    between atoms: C_14  and  O_16
REMARK    6  A    between atoms: C_17  and  O_19
REMARK    7  A    between atoms: C_20  and  O_22
REMARK                            x       y       z     vdW  Elec       q    Type
REMARK                         _______ _______ _______ _____ _____    ______ ____
ROOT
ATOM      1  C   UNL     1       9.157  -3.606  25.032  0.00  0.00    +0.237 C 
ATOM      2  C   UNL     1       8.810  -5.065  24.651  0.00  0.00    +0.183 C 
ATOM      3  C   UNL     1       7.413  -5.501  25.106  0.00  0.00    +0.177 C 
ATOM      4  C   UNL     1       7.174  -5.061  26.551  0.00  0.00    +0.176 C 
ATOM      5  C   UNL     1       7.299  -3.537  26.683  0.00  0.00    +0.176 C 
ATOM      6  O   UNL     1       8.547  -3.025  26.196  0.00  0.00    -0.356 OA
ENDROOT
BRANCH   1  10
ATOM      7  C   UNL     1      10.090   0.266  22.281  0.00  0.00    +0.111 C 
ATOM      8  C   UNL     1       9.432  -0.999  22.645  0.00  0.00    +0.214 A 
ATOM      9  O   UNL     1       9.741  -1.535  23.869  0.00  0.00    -0.422 OA
ATOM     10  C   UNL     1       8.979  -2.675  23.878  0.00  0.00    +0.248 A 
ATOM     11  N   UNL     1       8.264  -2.817  22.779  0.00  0.00    -0.110 NA
ATOM     12  N   UNL     1       8.570  -1.731  21.976  0.00  0.00    -0.113 NA
ENDBRANCH   1  10
BRANCH   2  13
ATOM     13  O   UNL     1       9.804  -5.962  25.191  0.00  0.00    -0.386 OA
ATOM     14  H   UNL     1      10.001  -5.668  26.105  0.00  0.00    +0.210 HD
ENDBRANCH   2  13
BRANCH   3  15
ATOM     15  O   UNL     1       6.366  -5.004  24.274  0.00  0.00    -0.386 OA
ATOM     16  H   UNL     1       6.741  -4.511  23.521  0.00  0.00    +0.210 HD
ENDBRANCH   3  15
BRANCH   4  17
ATOM     17  O   UNL     1       8.150  -5.706  27.389  0.00  0.00    -0.386 OA
ATOM     18  H   UNL     1       7.892  -5.535  28.322  0.00  0.00    +0.210 HD
ENDBRANCH   4  17
BRANCH   5  19
ATOM     19  C   UNL     1       6.102  -2.767  26.100  0.00  0.00    +0.190 C 
BRANCH  19  20
ATOM     20  O   UNL     1       4.892  -3.464  26.402  0.00  0.00    -0.392 OA
ATOM     21  H   UNL     1       4.439  -2.938  27.085  0.00  0.00    +0.210 HD
ENDBRANCH  19  20
ENDBRANCH   5  19
TORSDOF 6
ENDMDL
MODEL 5
REMARK VINA RESULT:      -5.5      2.512      3.801
REMARK  Name = 
REMARK  7 active torsions:
REMARK  status: ('A' for Active; 'I' for Inactive)
REMARK    1  A    between atoms: C_1  and  C_2
REMARK    2  A    between atoms: C_5  and  C_7
REMARK    3  A    between atoms: C_10  and  C_12
REMARK    4  A    between atoms: C_12  and  O_13
REMARK    5  A    between atoms: C_14  and  O_16
REMARK    6  A    between atoms: C_17  and  O_19
REMARK    7  A    between atoms: C_20  and  O_22
REMARK                            x       y       z     vdW  Elec       q    Type
REMARK                         _______ _______ _______ _____ _____    ______ ____
ROOT
ATOM      1  C   UNL     1       9.635   0.887  22.259  0.00  0.00    +0.237 C 
ATOM      2  C   UNL     1      10.198   1.963  23.219  0.00  0.00    +0.183 C 
ATOM      3  C   UNL     1       9.127   2.619  24.097  0.00  0.00    +0.177 C 
ATOM      4  C   UNL     1       7.907   2.982  23.249  0.00  0.00    +0.176 C 
ATOM      5  C   UNL     1       7.319   1.732  22.580  0.00  0.00    +0.176 C 
ATOM      6  O   UNL     1       8.277   0.999  21.804  0.00  0.00    -0.356 OA
ENDROOT
BRANCH   1  10
ATOM      7  C   UNL     1       9.019  -2.862  25.258  0.00  0.00    +0.111 C 
ATOM      8  C   UNL     1       9.539  -2.156  24.076  0.00  0.00    +0.214 A 
ATOM      9  O   UNL     1       9.240  -0.821  23.964  0.00  0.00    -0.422 OA
ATOM     10  C   UNL     1       9.856  -0.493  22.783  0.00  0.00    +0.248 A 
ATOM     11  N   UNL     1      10.481  -1.517  22.235  0.00  0.00    -0.110 NA
ATOM     12  N   UNL     1      10.263  -2.597  23.073  0.00  0.00    -0.113 NA
ENDBRANCH   1  10
BRANCH   2  13
ATOM     13  O   UNL     1      10.901   2.973  22.466  0.00  0.00    -0.386 OA
ATOM     14  H   UNL     1      11.350   2.525  21.719  0.00  0.00    +0.210 HD
ENDBRANCH   2  13
BRANCH   3  15
ATOM     15  O   UNL     1       8.722   1.807  25.198  0.00  0.00    -0.386 OA
ATOM     16  H   UNL     1       7.780   1.959  25.399  0.00  0.00    +0.210 HD
ENDBRANCH   3  15
BRANCH   4  17
ATOM     17  O   UNL     1       8.318   3.928  22.246  0.00  0.00    -0.386 OA
ATOM     18  H   UNL     1       7.576   4.560  22.119  0.00  0.00    +0.210 HD
ENDBRANCH   4  17
BRANCH   5  19
ATOM     19  C   UNL     1       6.552   0.817  23.548  0.00  0.00    +0.190 C 
BRANCH  19  20
ATOM     20  O   UNL     1       6.443  -0.492  22.985  0.00  0.00    -0.392 OA
ATOM     21  H   UNL     1       6.693  -0.406  22.048  0.00  0.00    +0.210 HD
ENDBRANCH  19  20
ENDBRANCH   5  19
TORSDOF 6
ENDMDL
MODEL 6
REMARK VINA RESULT:      -5.4      1.925      2.039
REMARK  Name = 
REMARK  7 active torsions:
REMARK  status: ('A' for Active; 'I' for Inactive)
REMARK    1  A    between atoms: C_1  and  C_2
REMARK    2  A    between atoms: C_5  and  C_7
REMARK    3  A    between atoms: C_10  and  C_12
REMARK    4  A    between atoms: C_12  and  O_13
REMARK    5  A    between atoms: C_14  and  O_16
REMARK    6  A    between atoms: C_17  and  O_19
REMARK    7  A    between atoms: C_20  and  O_22
REMARK                            x       y       z     vdW  Elec       q    Type
REMARK                         _______ _______ _______ _____ _____    ______ ____
ROOT
ATOM      1  C   UNL     1       9.433  -0.901  24.888  0.00  0.00    +0.237 C 
ATOM      2  C   UNL     1       8.193  -0.016  25.164  0.00  0.00    +0.183 C 
ATOM      3  C   UNL     1       7.752   0.814  23.954  0.00  0.00    +0.177 C 
ATOM      4  C   UNL     1       8.969   1.470  23.299  0.00  0.00    +0.176 C 
ATOM      5  C   UNL     1       9.980   0.407  22.845  0.00  0.00    +0.176 C 
ATOM      6  O   UNL     1      10.385  -0.478  23.899  0.00  0.00    -0.356 OA
ENDROOT
BRANCH   1  10
ATOM      7  C   UNL     1       6.414  -4.622  24.203  0.00  0.00    +0.111 C 
ATOM      8  C   UNL     1       7.717  -3.939  24.264  0.00  0.00    +0.214 A 
ATOM      9  O   UNL     1       7.719  -2.633  24.684  0.00  0.00    -0.422 OA
ATOM     10  C   UNL     1       9.052  -2.319  24.618  0.00  0.00    +0.248 A 
ATOM     11  N   UNL     1       9.794  -3.331  24.213  0.00  0.00    -0.110 NA
ATOM     12  N   UNL     1       8.921  -4.379  23.974  0.00  0.00    -0.113 NA
ENDBRANCH   1  10
BRANCH   2  13
ATOM     13  O   UNL     1       8.451   0.853  26.287  0.00  0.00    -0.386 OA
ATOM     14  H   UNL     1       9.234   0.501  26.759  0.00  0.00    +0.210 HD
ENDBRANCH   2  13
BRANCH   3  15
ATOM     15  O   UNL     1       7.032   0.058  22.981  0.00  0.00    -0.386 OA
ATOM     16  H   UNL     1       7.572  -0.054  22.177  0.00  0.00    +0.210 HD
ENDBRANCH   3  15
BRANCH   4  17
ATOM     17  O   UNL     1       9.581   2.350  24.259  0.00  0.00    -0.386 OA
ATOM     18  H   UNL     1       9.054   3.180  24.271  0.00  0.00    +0.210 HD
ENDBRANCH   4  17
BRANCH   5  19
ATOM     19  C   UNL     1       9.542  -0.366  21.590  0.00  0.00    +0.190 C 
BRANCH  19  20
ATOM     20  O   UNL     1      10.247  -1.606  21.521  0.00  0.00    -0.392 OA
ATOM     21  H   UNL     1      10.104  -2.047  22.378  0.00  0.00    +0.210 HD
ENDBRANCH  19  20
ENDBRANCH   5  19
TORSDOF 6
ENDMDL
MODEL 7
REMARK VINA RESULT:      -5.4      2.938      4.101
REMARK  Name = 
REMARK  7 active torsions:
REMARK  status: ('A' for Active; 'I' for Inactive)
REMARK    1  A    between atoms: C_1  and  C_2
REMARK    2  A    between atoms: C_5  and  C_7
REMARK    3  A    between atoms: C_10  and  C_12
REMARK    4  A    between atoms: C_12  and  O_13
REMARK    5  A    between atoms: C_14  and  O_16
REMARK    6  A    between atoms: C_17  and  O_19
REMARK    7  A    between atoms: C_20  and  O_22
REMARK                            x       y       z     vdW  Elec       q    Type
REMARK                         _______ _______ _______ _____ _____    ______ ____
ROOT
ATOM      1  C   UNL     1       7.587  -5.050  23.105  0.00  0.00    +0.237 C 
ATOM      2  C   UNL     1       8.190  -5.108  24.530  0.00  0.00    +0.183 C 
ATOM      3  C   UNL     1       8.286  -3.739  25.210  0.00  0.00    +0.177 C 
ATOM      4  C   UNL     1       8.854  -2.708  24.233  0.00  0.00    +0.176 C 
ATOM      5  C   UNL     1       7.966  -2.595  22.986  0.00  0.00    +0.176 C 
ATOM      6  O   UNL     1       7.746  -3.851  22.329  0.00  0.00    -0.356 OA
ENDROOT
BRANCH   1  10
ATOM      7  C   UNL     1       3.489  -6.887  24.910  0.00  0.00    +0.111 C 
ATOM      8  C   UNL     1       4.335  -6.204  23.919  0.00  0.00    +0.214 A 
ATOM      9  O   UNL     1       5.677  -6.124  24.192  0.00  0.00    -0.422 OA
ATOM     10  C   UNL     1       6.147  -5.443  23.097  0.00  0.00    +0.248 A 
ATOM     11  N   UNL     1       5.194  -5.149  22.235  0.00  0.00    -0.110 NA
ATOM     12  N   UNL     1       4.017  -5.636  22.777  0.00  0.00    -0.113 NA
ENDBRANCH   1  10
BRANCH   2  13
ATOM     13  O   UNL     1       9.494  -5.726  24.485  0.00  0.00    -0.386 OA
ATOM     14  H   UNL     1       9.839  -5.752  25.402  0.00  0.00    +0.210 HD
ENDBRANCH   2  13
BRANCH   3  15
ATOM     15  O   UNL     1       7.039  -3.275  25.726  0.00  0.00    -0.386 OA
ATOM     16  H   UNL     1       6.837  -2.390  25.369  0.00  0.00    +0.210 HD
ENDBRANCH   3  15
BRANCH   4  17
ATOM     17  O   UNL     1      10.178  -3.125  23.855  0.00  0.00    -0.386 OA
ATOM     18  H   UNL     1      10.652  -2.328  23.527  0.00  0.00    +0.210 HD
ENDBRANCH   4  17
BRANCH   5  19
ATOM     19  C   UNL     1       6.647  -1.844  23.234  0.00  0.00    +0.190 C 
BRANCH  19  20
ATOM     20  O   UNL     1       5.693  -2.210  22.235  0.00  0.00    -0.392 OA
ATOM     21  H   UNL     1       5.498  -1.397  21.736  0.00  0.00    +0.210 HD
ENDBRANCH  19  20
ENDBRANCH   5  19
TORSDOF 6
ENDMDL
MODEL 8
REMARK VINA RESULT:      -5.3      1.804      3.447
REMARK  Name = 
REMARK  7 active torsions:
REMARK  status: ('A' for Active; 'I' for Inactive)
REMARK    1  A    between atoms: C_1  and  C_2
REMARK    2  A    between atoms: C_5  and  C_7
REMARK    3  A    between atoms: C_10  and  C_12
REMARK    4  A    between atoms: C_12  and  O_13
REMARK    5  A    between atoms: C_14  and  O_16
REMARK    6  A    between atoms: C_17  and  O_19
REMARK    7  A    between atoms: C_20  and  O_22
REMARK                            x       y       z     vdW  Elec       q    Type
REMARK                         _______ _______ _______ _____ _____    ______ ____
ROOT
ATOM      1  C   UNL     1       8.501   0.419  22.502  0.00  0.00    +0.237 C 
ATOM      2  C   UNL     1       9.888   1.088  22.655  0.00  0.00    +0.183 C 
ATOM      3  C   UNL     1      10.019   1.941  23.921  0.00  0.00    +0.177 C 
ATOM      4  C   UNL     1       8.778   2.819  24.090  0.00  0.00    +0.176 C 
ATOM      5  C   UNL     1       7.512   1.956  24.187  0.00  0.00    +0.176 C 
ATOM      6  O   UNL     1       7.351   1.055  23.082  0.00  0.00    -0.356 OA
ENDROOT
BRANCH   1  10
ATOM      7  C   UNL     1       7.282  -4.263  22.361  0.00  0.00    +0.111 C 
ATOM      8  C   UNL     1       8.025  -3.080  22.821  0.00  0.00    +0.214 A 
ATOM      9  O   UNL     1       7.651  -1.866  22.304  0.00  0.00    -0.422 OA
ATOM     10  C   UNL     1       8.526  -1.013  22.926  0.00  0.00    +0.248 A 
ATOM     11  N   UNL     1       9.344  -1.637  23.751  0.00  0.00    -0.110 NA
ATOM     12  N   UNL     1       9.022  -2.980  23.672  0.00  0.00    -0.113 NA
ENDBRANCH   1  10
BRANCH   2  13
ATOM     13  O   UNL     1      10.178   1.890  21.491  0.00  0.00    -0.386 OA
ATOM     14  H   UNL     1      10.727   2.647  21.784  0.00  0.00    +0.210 HD
ENDBRANCH   2  13
BRANCH   3  15
ATOM     15  O   UNL     1      10.227   1.171  25.104  0.00  0.00    -0.386 OA
ATOM     16  H   UNL     1      11.046   1.455  25.550  0.00  0.00    +0.210 HD
ENDBRANCH   3  15
BRANCH   4  17
ATOM     17  O   UNL     1       8.685   3.697  22.954  0.00  0.00    -0.386 OA
ATOM     18  H   UNL     1       9.018   4.577  23.238  0.00  0.00    +0.210 HD
ENDBRANCH   4  17
BRANCH   5  19
ATOM     19  C   UNL     1       7.360   1.233  25.537  0.00  0.00    +0.190 C 
BRANCH  19  20
ATOM     20  O   UNL     1       7.747   2.110  26.595  0.00  0.00    -0.392 OA
ATOM     21  H   UNL     1       8.478   2.651  26.246  0.00  0.00    +0.210 HD
ENDBRANCH  19  20
ENDBRANCH   5  19
TORSDOF 6
ENDMDL
MODEL 9
REMARK VINA RESULT:      -5.3      3.707      4.956
REMARK  Name = 
REMARK  7 active torsions:
REMARK  status: ('A' for Active; 'I' for Inactive)
REMARK    1  A    between atoms: C_1  and  C_2
REMARK    2  A    between atoms: C_5  and  C_7
REMARK    3  A    between atoms: C_10  and  C_12
REMARK    4  A    between atoms: C_12  and  O_13
REMARK    5  A    between atoms: C_14  and  O_16
REMARK    6  A    between atoms: C_17  and  O_19
REMARK    7  A    between atoms: C_20  and  O_22
REMARK                            x       y       z     vdW  Elec       q    Type
REMARK                         _______ _______ _______ _____ _____    ______ ____
ROOT
ATOM      1  C   UNL     1       6.565  -5.066  25.640  0.00  0.00    +0.237 C 
ATOM      2  C   UNL     1       7.434  -4.774  26.888  0.00  0.00    +0.183 C 
ATOM      3  C   UNL     1       8.738  -4.039  26.566  0.00  0.00    +0.177 C 
ATOM      4  C   UNL     1       9.417  -4.682  25.356  0.00  0.00    +0.176 C 
ATOM      5  C   UNL     1       8.494  -4.639  24.129  0.00  0.00    +0.176 C 
ATOM      6  O   UNL     1       7.207  -5.229  24.365  0.00  0.00    -0.356 OA
ENDROOT
BRANCH   1  10
ATOM      7  C   UNL     1       1.966  -3.604  25.268  0.00  0.00    +0.111 C 
ATOM      8  C   UNL     1       3.423  -3.442  25.389  0.00  0.00    +0.214 A 
ATOM      9  O   UNL     1       4.184  -4.584  25.361  0.00  0.00    -0.422 OA
ATOM     10  C   UNL     1       5.452  -4.081  25.497  0.00  0.00    +0.248 A 
ATOM     11  N   UNL     1       5.470  -2.765  25.585  0.00  0.00    -0.110 NA
ATOM     12  N   UNL     1       4.149  -2.355  25.525  0.00  0.00    -0.113 NA
ENDBRANCH   1  10
BRANCH   2  13
ATOM     13  O   UNL     1       7.723  -6.006  27.582  0.00  0.00    -0.386 OA
ATOM     14  H   UNL     1       7.785  -5.797  28.538  0.00  0.00    +0.210 HD
ENDBRANCH   2  13
BRANCH   3  15
ATOM     15  O   UNL     1       8.559  -2.643  26.329  0.00  0.00    -0.386 OA
ATOM     16  H   UNL     1       8.387  -2.483  25.383  0.00  0.00    +0.210 HD
ENDBRANCH   3  15
BRANCH   4  17
ATOM     17  O   UNL     1       9.730  -6.048  25.684  0.00  0.00    -0.386 OA
ATOM     18  H   UNL     1       9.583  -6.156  26.650  0.00  0.00    +0.210 HD
ENDBRANCH   4  17
BRANCH   5  19
ATOM     19  C   UNL     1       8.371  -3.242  23.498  0.00  0.00    +0.190 C 
BRANCH  19  20
ATOM     20  O   UNL     1       9.643  -2.591  23.526  0.00  0.00    -0.392 OA
ATOM     21  H   UNL     1       9.602  -1.886  22.856  0.00  0.00    +0.210 HD
ENDBRANCH  19  20
ENDBRANCH   5  19
TORSDOF 6
ENDMDL
