MODEL 1
REMARK VINA RESULT:      -3.8      0.000      0.000
REMARK  Name = 
REMARK  5 active torsions:
REMARK  status: ('A' for Active; 'I' for Inactive)
REMARK    1  A    between atoms: N_1  and  CA_2
REMARK    2  A    between atoms: CA_2  and  CB_4
REMARK    3  A    between atoms: CA_2  and  C_8
REMARK    4  A    between atoms: CB_4  and  CG_5
REMARK    5  A    between atoms: CG_5  and  OD1_6
REMARK                            x       y       z     vdW  Elec       q    Type
REMARK                         _______ _______ _______ _____ _____    ______ ____
ROOT
ATOM      1  CA  ASP A   1       9.467  -4.355  25.556  0.00  0.00    +0.107 C 
ENDROOT
BRANCH   1   2
ATOM      2  N   ASP A   1       9.619  -5.819  25.223  0.00  0.00    -0.322 NA
ATOM      3  H1  ASP A   1       9.815  -6.319  26.099  0.00  0.00    +0.119 HD
ATOM      4  H2  ASP A   1       8.627  -6.117  25.100  0.00  0.00    +0.119 HD
ENDBRANCH   1   2
BRANCH   1   5
ATOM      5  C   ASP A   1       9.232  -3.530  24.263  0.00  0.00    +0.059 C 
ATOM      6  OXT ASP A   1       8.059  -3.589  23.801  0.00  0.00    -0.548 OA
ATOM      7  O   ASP A   1      10.249  -2.926  23.809  0.00  0.00    -0.548 OA
ENDBRANCH   1   5
BRANCH   1   8
ATOM      8  CB  ASP A   1       8.243  -4.131  26.433  0.00  0.00    +0.144 C 
BRANCH   8   9
ATOM      9  CG  ASP A   1       7.397  -5.362  26.675  0.00  0.00    +0.307 C 
ATOM     10  OD2 ASP A   1       6.522  -5.729  25.899  0.00  0.00    -0.251 OA
BRANCH   9  11
ATOM     11  OD1 ASP A   1       7.703  -6.083  27.779  0.00  0.00    -0.481 OA
ATOM     12  HD1 ASP A   1       6.965  -6.059  28.441  0.00  0.00    +0.295 HD
ENDBRANCH   9  11
ENDBRANCH   8   9
ENDBRANCH   1   8
TORSDOF 5
ENDMDL
MODEL 2
REMARK VINA RESULT:      -3.8      4.209      6.286
REMARK  Name = 
REMARK  5 active torsions:
REMARK  status: ('A' for Active; 'I' for Inactive)
REMARK    1  A    between atoms: N_1  and  CA_2
REMARK    2  A    between atoms: CA_2  and  CB_4
REMARK    3  A    between atoms: CA_2  and  C_8
REMARK    4  A    between atoms: CB_4  and  CG_5
REMARK    5  A    between atoms: CG_5  and  OD1_6
REMARK                            x       y       z     vdW  Elec       q    Type
REMARK                         _______ _______ _______ _____ _____    ______ ____
ROOT
ATOM      1  CA  ASP A   1      10.327  -0.868  22.698  0.00  0.00    +0.107 C 
ENDROOT
BRANCH   1   2
ATOM      2  N   ASP A   1      10.327   0.093  23.861  0.00  0.00    -0.322 NA
ATOM      3  H1  ASP A   1      10.579  -0.438  24.704  0.00  0.00    +0.119 HD
ATOM      4  H2  ASP A   1      11.231   0.596  23.727  0.00  0.00    +0.119 HD
ENDBRANCH   1   2
BRANCH   1   5
ATOM      5  C   ASP A   1       9.563  -2.166  23.072  0.00  0.00    +0.059 C 
ATOM      6  OXT ASP A   1       8.402  -2.257  22.584  0.00  0.00    -0.548 OA
ATOM      7  O   ASP A   1      10.179  -2.959  23.843  0.00  0.00    -0.548 OA
ENDBRANCH   1   5
BRANCH   1   8
ATOM      8  CB  ASP A   1       9.593  -0.268  21.508  0.00  0.00    +0.144 C 
BRANCH   8   9
ATOM      9  CG  ASP A   1       9.099   1.148  21.709  0.00  0.00    +0.307 C 
ATOM     10  OD2 ASP A   1       7.961   1.408  22.085  0.00  0.00    -0.251 OA
BRANCH   9  11
ATOM     11  OD1 ASP A   1      10.012   2.128  21.512  0.00  0.00    -0.481 OA
ATOM     12  HD1 ASP A   1      10.129   2.681  22.327  0.00  0.00    +0.295 HD
ENDBRANCH   9  11
ENDBRANCH   8   9
ENDBRANCH   1   8
TORSDOF 5
ENDMDL
MODEL 3
REMARK VINA RESULT:      -3.8      1.221      3.693
REMARK  Name = 
REMARK  5 active torsions:
REMARK  status: ('A' for Active; 'I' for Inactive)
REMARK    1  A    between atoms: N_1  and  CA_2
REMARK    2  A    between atoms: CA_2  and  CB_4
REMARK    3  A    between atoms: CA_2  and  C_8
REMARK    4  A    between atoms: CB_4  and  CG_5
REMARK    5  A    between atoms: CG_5  and  OD1_6
REMARK                            x       y       z     vdW  Elec       q    Type
REMARK                         _______ _______ _______ _____ _____    ______ ____
ROOT
ATOM      1  CA  ASP A   1       8.801  -5.420  25.012  0.00  0.00    +0.107 C 
ENDROOT
BRANCH   1   2
ATOM      2  N   ASP A   1      10.254  -5.380  25.418  0.00  0.00    -0.322 NA
ATOM      3  H1  ASP A   1      10.718  -6.193  24.993  0.00  0.00    +0.119 HD
ATOM      4  H2  ASP A   1      10.635  -4.644  24.785  0.00  0.00    +0.119 HD
ENDBRANCH   1   2
BRANCH   1   5
ATOM      5  C   ASP A   1       7.889  -5.303  26.262  0.00  0.00    +0.059 C 
ATOM      6  OXT ASP A   1       8.316  -4.523  27.158  0.00  0.00    -0.548 OA
ATOM      7  O   ASP A   1       6.848  -6.024  26.247  0.00  0.00    -0.548 OA
ENDBRANCH   1   5
BRANCH   1   8
ATOM      8  CB  ASP A   1       8.461  -4.233  24.122  0.00  0.00    +0.144 C 
BRANCH   8   9
ATOM      9  CG  ASP A   1       9.365  -3.031  24.289  0.00  0.00    +0.307 C 
ATOM     10  OD2 ASP A   1      10.292  -2.786  23.525  0.00  0.00    -0.251 OA
BRANCH   9  11
ATOM     11  OD1 ASP A   1       9.054  -2.192  25.304  0.00  0.00    -0.481 OA
ATOM     12  HD1 ASP A   1       9.622  -1.379  25.287  0.00  0.00    +0.295 HD
ENDBRANCH   9  11
ENDBRANCH   8   9
ENDBRANCH   1   8
TORSDOF 5
ENDMDL
MODEL 4
REMARK VINA RESULT:      -3.7     11.305     11.895
REMARK  Name = 
REMARK  5 active torsions:
REMARK  status: ('A' for Active; 'I' for Inactive)
REMARK    1  A    between atoms: N_1  and  CA_2
REMARK    2  A    between atoms: CA_2  and  CB_4
REMARK    3  A    between atoms: CA_2  and  C_8
REMARK    4  A    between atoms: CB_4  and  CG_5
REMARK    5  A    between atoms: CG_5  and  OD1_6
REMARK                            x       y       z     vdW  Elec       q    Type
REMARK                         _______ _______ _______ _____ _____    ______ ____
ROOT
ATOM      1  CA  ASP A   1      11.727   5.778  24.293  0.00  0.00    +0.107 C 
ENDROOT
BRANCH   1   2
ATOM      2  N   ASP A   1      12.712   6.729  24.927  0.00  0.00    -0.322 NA
ATOM      3  H1  ASP A   1      13.610   6.617  24.439  0.00  0.00    +0.119 HD
ATOM      4  H2  ASP A   1      12.429   7.643  24.509  0.00  0.00    +0.119 HD
ENDBRANCH   1   2
BRANCH   1   5
ATOM      5  C   ASP A   1      10.291   6.364  24.364  0.00  0.00    +0.059 C 
ATOM      6  OXT ASP A   1       9.917   6.714  25.518  0.00  0.00    -0.548 OA
ATOM      7  O   ASP A   1       9.657   6.391  23.268  0.00  0.00    -0.548 OA
ENDBRANCH   1   5
BRANCH   1   8
ATOM      8  CB  ASP A   1      12.038   5.591  22.815  0.00  0.00    +0.144 C 
BRANCH   8   9
ATOM      9  CG  ASP A   1      13.511   5.580  22.469  0.00  0.00    +0.307 C 
ATOM     10  OD2 ASP A   1      13.977   6.220  21.533  0.00  0.00    -0.251 OA
BRANCH   9  11
ATOM     11  OD1 ASP A   1      14.309   4.867  23.297  0.00  0.00    -0.481 OA
ATOM     12  HD1 ASP A   1      14.006   3.926  23.368  0.00  0.00    +0.295 HD
ENDBRANCH   9  11
ENDBRANCH   8   9
ENDBRANCH   1   8
TORSDOF 5
ENDMDL
MODEL 5
REMARK VINA RESULT:      -3.6      5.870      7.069
REMARK  Name = 
REMARK  5 active torsions:
REMARK  status: ('A' for Active; 'I' for Inactive)
REMARK    1  A    between atoms: N_1  and  CA_2
REMARK    2  A    between atoms: CA_2  and  CB_4
REMARK    3  A    between atoms: CA_2  and  C_8
REMARK    4  A    between atoms: CB_4  and  CG_5
REMARK    5  A    between atoms: CG_5  and  OD1_6
REMARK                            x       y       z     vdW  Elec       q    Type
REMARK                         _______ _______ _______ _____ _____    ______ ____
ROOT
ATOM      1  CA  ASP A   1      10.300   1.774  22.278  0.00  0.00    +0.107 C 
ENDROOT
BRANCH   1   2
ATOM      2  N   ASP A   1       9.101   2.105  21.425  0.00  0.00    -0.322 NA
ATOM      3  H1  ASP A   1       9.130   1.497  20.597  0.00  0.00    +0.119 HD
ATOM      4  H2  ASP A   1       8.331   1.621  21.937  0.00  0.00    +0.119 HD
ENDBRANCH   1   2
BRANCH   1   5
ATOM      5  C   ASP A   1      10.397   2.756  23.476  0.00  0.00    +0.059 C 
ATOM      6  OXT ASP A   1       9.568   2.544  24.404  0.00  0.00    -0.548 OA
ATOM      7  O   ASP A   1      11.268   3.668  23.365  0.00  0.00    -0.548 OA
ENDBRANCH   1   5
BRANCH   1   8
ATOM      8  CB  ASP A   1      10.163   0.382  22.878  0.00  0.00    +0.144 C 
BRANCH   8   9
ATOM      9  CG  ASP A   1       9.177  -0.523  22.171  0.00  0.00    +0.307 C 
ATOM     10  OD2 ASP A   1       8.051  -0.743  22.603  0.00  0.00    -0.251 OA
BRANCH   9  11
ATOM     11  OD1 ASP A   1       9.587  -1.036  20.988  0.00  0.00    -0.481 OA
ATOM     12  HD1 ASP A   1      10.321  -1.691  21.113  0.00  0.00    +0.295 HD
ENDBRANCH   9  11
ENDBRANCH   8   9
ENDBRANCH   1   8
TORSDOF 5
ENDMDL
MODEL 6
REMARK VINA RESULT:      -3.6      5.363      6.958
REMARK  Name = 
REMARK  5 active torsions:
REMARK  status: ('A' for Active; 'I' for Inactive)
REMARK    1  A    between atoms: N_1  and  CA_2
REMARK    2  A    between atoms: CA_2  and  CB_4
REMARK    3  A    between atoms: CA_2  and  C_8
REMARK    4  A    between atoms: CB_4  and  CG_5
REMARK    5  A    between atoms: CG_5  and  OD1_6
REMARK                            x       y       z     vdW  Elec       q    Type
REMARK                         _______ _______ _______ _____ _____    ______ ____
ROOT
ATOM      1  CA  ASP A   1       9.487  -0.113  23.498  0.00  0.00    +0.107 C 
ENDROOT
BRANCH   1   2
ATOM      2  N   ASP A   1       8.129   0.518  23.312  0.00  0.00    -0.322 NA
ATOM      3  H1  ASP A   1       8.156   1.448  23.747  0.00  0.00    +0.119 HD
ATOM      4  H2  ASP A   1       8.167   0.820  22.314  0.00  0.00    +0.119 HD
ENDBRANCH   1   2
BRANCH   1   5
ATOM      5  C   ASP A   1       9.873  -0.941  22.243  0.00  0.00    +0.059 C 
ATOM      6  OXT ASP A   1      10.626  -1.928  22.471  0.00  0.00    -0.548 OA
ATOM      7  O   ASP A   1       9.417  -0.510  21.144  0.00  0.00    -0.548 OA
ENDBRANCH   1   5
BRANCH   1   8
ATOM      8  CB  ASP A   1      10.558   0.957  23.649  0.00  0.00    +0.144 C 
BRANCH   8   9
ATOM      9  CG  ASP A   1      10.209   2.300  23.047  0.00  0.00    +0.307 C 
ATOM     10  OD2 ASP A   1       9.931   3.281  23.728  0.00  0.00    -0.251 OA
BRANCH   9  11
ATOM     11  OD1 ASP A   1      10.282   2.382  21.698  0.00  0.00    -0.481 OA
ATOM     12  HD1 ASP A   1       9.598   1.810  21.265  0.00  0.00    +0.295 HD
ENDBRANCH   9  11
ENDBRANCH   8   9
ENDBRANCH   1   8
TORSDOF 5
ENDMDL
MODEL 7
REMARK VINA RESULT:      -3.6      1.738      2.126
REMARK  Name = 
REMARK  5 active torsions:
REMARK  status: ('A' for Active; 'I' for Inactive)
REMARK    1  A    between atoms: N_1  and  CA_2
REMARK    2  A    between atoms: CA_2  and  CB_4
REMARK    3  A    between atoms: CA_2  and  C_8
REMARK    4  A    between atoms: CB_4  and  CG_5
REMARK    5  A    between atoms: CG_5  and  OD1_6
REMARK                            x       y       z     vdW  Elec       q    Type
REMARK                         _______ _______ _______ _____ _____    ______ ____
ROOT
ATOM      1  CA  ASP A   1       8.350  -4.785  24.459  0.00  0.00    +0.107 C 
ENDROOT
BRANCH   1   2
ATOM      2  N   ASP A   1       9.473  -5.793  24.456  0.00  0.00    -0.322 NA
ATOM      3  H1  ASP A   1      10.328  -5.308  24.755  0.00  0.00    +0.119 HD
ATOM      4  H2  ASP A   1       9.289  -6.324  25.336  0.00  0.00    +0.119 HD
ENDBRANCH   1   2
BRANCH   1   5
ATOM      5  C   ASP A   1       7.569  -4.846  23.120  0.00  0.00    +0.059 C 
ATOM      6  OXT ASP A   1       7.666  -5.940  22.498  0.00  0.00    -0.548 OA
ATOM      7  O   ASP A   1       6.958  -3.785  22.796  0.00  0.00    -0.548 OA
ENDBRANCH   1   5
BRANCH   1   8
ATOM      8  CB  ASP A   1       7.344  -5.108  25.555  0.00  0.00    +0.144 C 
BRANCH   8   9
ATOM      9  CG  ASP A   1       7.938  -5.282  26.936  0.00  0.00    +0.307 C 
ATOM     10  OD2 ASP A   1       7.349  -5.859  27.843  0.00  0.00    -0.251 OA
BRANCH   9  11
ATOM     11  OD1 ASP A   1       9.197  -4.816  27.103  0.00  0.00    -0.481 OA
ATOM     12  HD1 ASP A   1       9.866  -5.437  26.714  0.00  0.00    +0.295 HD
ENDBRANCH   9  11
ENDBRANCH   8   9
ENDBRANCH   1   8
TORSDOF 5
ENDMDL
MODEL 8
REMARK VINA RESULT:      -3.5      3.679      4.976
REMARK  Name = 
REMARK  5 active torsions:
REMARK  status: ('A' for Active; 'I' for Inactive)
REMARK    1  A    between atoms: N_1  and  CA_2
REMARK    2  A    between atoms: CA_2  and  CB_4
REMARK    3  A    between atoms: CA_2  and  C_8
REMARK    4  A    between atoms: CB_4  and  CG_5
REMARK    5  A    between atoms: CG_5  and  OD1_6
REMARK                            x       y       z     vdW  Elec       q    Type
REMARK                         _______ _______ _______ _____ _____    ______ ____
ROOT
ATOM      1  CA  ASP A   1      10.306  -0.494  22.507  0.00  0.00    +0.107 C 
ENDROOT
BRANCH   1   2
ATOM      2  N   ASP A   1      10.067  -1.552  21.459  0.00  0.00    -0.322 NA
ATOM      3  H1  ASP A   1      10.984  -1.907  21.160  0.00  0.00    +0.119 HD
ATOM      4  H2  ASP A   1       9.774  -2.368  22.039  0.00  0.00    +0.119 HD
ENDBRANCH   1   2
BRANCH   1   5
ATOM      5  C   ASP A   1       9.362   0.717  22.275  0.00  0.00    +0.059 C 
ATOM      6  OXT ASP A   1       9.938   1.772  21.888  0.00  0.00    -0.548 OA
ATOM      7  O   ASP A   1       8.139   0.513  22.532  0.00  0.00    -0.548 OA
ENDBRANCH   1   5
BRANCH   1   8
ATOM      8  CB  ASP A   1       9.978  -1.030  23.893  0.00  0.00    +0.144 C 
BRANCH   8   9
ATOM      9  CG  ASP A   1       9.359  -2.410  23.915  0.00  0.00    +0.307 C 
ATOM     10  OD2 ASP A   1      10.003  -3.423  24.166  0.00  0.00    -0.251 OA
BRANCH   9  11
ATOM     11  OD1 ASP A   1       8.024  -2.464  23.701  0.00  0.00    -0.481 OA
ATOM     12  HD1 ASP A   1       7.739  -1.795  23.027  0.00  0.00    +0.295 HD
ENDBRANCH   9  11
ENDBRANCH   8   9
ENDBRANCH   1   8
TORSDOF 5
ENDMDL
MODEL 9
REMARK VINA RESULT:      -3.5      4.472      5.925
REMARK  Name = 
REMARK  5 active torsions:
REMARK  status: ('A' for Active; 'I' for Inactive)
REMARK    1  A    between atoms: N_1  and  CA_2
REMARK    2  A    between atoms: CA_2  and  CB_4
REMARK    3  A    between atoms: CA_2  and  C_8
REMARK    4  A    between atoms: CB_4  and  CG_5
REMARK    5  A    between atoms: CG_5  and  OD1_6
REMARK                            x       y       z     vdW  Elec       q    Type
REMARK                         _______ _______ _______ _____ _____    ______ ____
ROOT
ATOM      1  CA  ASP A   1       9.481   0.795  24.078  0.00  0.00    +0.107 C 
ENDROOT
BRANCH   1   2
ATOM      2  N   ASP A   1      10.451   0.304  25.123  0.00  0.00    -0.322 NA
ATOM      3  H1  ASP A   1      10.164  -0.645  25.393  0.00  0.00    +0.119 HD
ATOM      4  H2  ASP A   1      11.281   0.049  24.544  0.00  0.00    +0.119 HD
ENDBRANCH   1   2
BRANCH   1   5
ATOM      5  C   ASP A   1      10.202   1.731  23.070  0.00  0.00    +0.059 C 
ATOM      6  OXT ASP A   1      10.883   2.654  23.598  0.00  0.00    -0.548 OA
ATOM      7  O   ASP A   1       9.995   1.478  21.847  0.00  0.00    -0.548 OA
ENDBRANCH   1   5
BRANCH   1   8
ATOM      8  CB  ASP A   1       8.937  -0.369  23.263  0.00  0.00    +0.144 C 
BRANCH   8   9
ATOM      9  CG  ASP A   1       9.894  -1.528  23.087  0.00  0.00    +0.307 C 
ATOM     10  OD2 ASP A   1      10.057  -2.391  23.942  0.00  0.00    -0.251 OA
BRANCH   9  11
ATOM     11  OD1 ASP A   1      10.524  -1.599  21.891  0.00  0.00    -0.481 OA
ATOM     12  HD1 ASP A   1      10.012  -1.127  21.185  0.00  0.00    +0.295 HD
ENDBRANCH   9  11
ENDBRANCH   8   9
ENDBRANCH   1   8
TORSDOF 5
ENDMDL
