MODEL 1
REMARK VINA RESULT:      -7.7      0.000      0.000
REMARK  Name = 
REMARK  7 active torsions:
REMARK  status: ('A' for Active; 'I' for Inactive)
REMARK    1  A    between atoms: C_2  and  C_3
REMARK    2  A    between atoms: C_2  and  C_6
REMARK    3  A    between atoms: C_2  and  C_27
REMARK    4  A    between atoms: C_3  and  C_4
REMARK    5  A    between atoms: C_4  and  N_5
REMARK    6  A    between atoms: N_8  and  C_9
REMARK    7  A    between atoms: C_17  and  C_19
REMARK                            x       y       z     vdW  Elec       q    Type
REMARK                         _______ _______ _______ _____ _____    ______ ____
ROOT
ATOM      1  C   UNL     1       9.382   0.128  24.170  0.00  0.00    +0.034 A 
ATOM      2  C   UNL     1       8.247   0.938  23.922  0.00  0.00    +0.036 A 
ATOM      3  C   UNL     1       8.408   2.318  23.638  0.00  0.00    +0.043 A 
ATOM      4  C   UNL     1       9.705   2.827  23.630  0.00  0.00    +0.068 A 
ATOM      5  N   UNL     1       9.576   4.155  23.356  0.00  0.00    -0.275 N 
ATOM      6  H   UNL     1      10.309   4.852  23.282  0.00  0.00    +0.189 HD
ATOM      7  N   UNL     1       8.322   4.544  23.154  0.00  0.00    -0.157 NA
ATOM      8  C   UNL     1      10.844   2.061  23.862  0.00  0.00    +0.029 A 
ATOM      9  C   UNL     1       7.576   3.449  23.318  0.00  0.00    +0.155 A 
ATOM     10  N   UNL     1       6.190   3.463  23.175  0.00  0.00    -0.264 N 
ATOM     11  H   UNL     1       5.705   2.598  23.345  0.00  0.00    +0.157 HD
ATOM     12  C   UNL     1       5.485   4.622  22.872  0.00  0.00    +0.249 C 
ATOM     13  O   UNL     1       5.953   5.748  22.718  0.00  0.00    -0.270 OA
ATOM     14  C   UNL     1      10.655   0.703  24.122  0.00  0.00    +0.025 A 
ENDROOT
BRANCH  12  15
ATOM     15  C   UNL     1       4.005   4.523  22.721  0.00  0.00    +0.037 A 
ATOM     16  C   UNL     1       3.290   3.325  22.818  0.00  0.00    +0.013 A 
ATOM     17  C   UNL     1       1.918   3.309  22.528  0.00  0.00    +0.001 A 
ATOM     18  C   UNL     1       1.259   4.480  22.144  0.00  0.00    +0.000 A 
ATOM     19  C   UNL     1       1.965   5.676  22.056  0.00  0.00    +0.001 A 
ATOM     20  C   UNL     1       3.328   5.696  22.338  0.00  0.00    +0.013 A 
ENDBRANCH  12  15
BRANCH   1  22
ATOM     21  C   UNL     1       8.922  -2.253  23.506  0.00  0.00    +0.225 C 
ATOM     22  N   UNL     1       9.171  -1.251  24.436  0.00  0.00    -0.285 N 
ATOM     23  H   UNL     1       9.163  -1.516  25.413  0.00  0.00    +0.155 HD
ATOM     24  O   UNL     1       9.015  -2.115  22.286  0.00  0.00    -0.275 OA
BRANCH  21  25
ATOM     25  C   UNL     1       8.580  -3.654  24.058  0.00  0.00    +0.106 C 
BRANCH  25  26
ATOM     26  C   UNL     1       7.364  -4.385  23.473  0.00  0.00    -0.034 A 
ATOM     27  C   UNL     1       7.516  -5.489  22.611  0.00  0.00    +0.004 A 
ATOM     28  C   UNL     1       6.412  -6.179  22.101  0.00  0.00    +0.002 A 
ATOM     29  C   UNL     1       5.126  -5.835  22.504  0.00  0.00    +0.020 A 
ATOM     30  C   UNL     1       4.956  -4.807  23.422  0.00  0.00    +0.041 A 
ATOM     31 CL   UNL     1       3.376  -4.433  23.999  0.00  0.00    -0.084 Cl
ATOM     32  C   UNL     1       6.055  -4.087  23.900  0.00  0.00    +0.024 A 
ENDBRANCH  25  26
BRANCH  25  33
ATOM     33  C   UNL     1       8.699  -3.599  25.605  0.00  0.00    +0.032 C 
BRANCH  33  34
ATOM     34  C   UNL     1       9.242  -4.880  26.241  0.00  0.00    +0.079 C 
BRANCH  34  35
ATOM     35  N   UNL     1      10.271  -5.462  25.386  0.00  0.00    -0.330 NA
ATOM     36  H   UNL     1      11.195  -5.186  25.716  0.00  0.00    +0.118 HD
ATOM     37  H   UNL     1      10.241  -6.481  25.435  0.00  0.00    +0.118 HD
ENDBRANCH  34  35
ENDBRANCH  33  34
ENDBRANCH  25  33
ENDBRANCH  21  25
ENDBRANCH   1  22
TORSDOF 7
ENDMDL
MODEL 2
REMARK VINA RESULT:      -7.3      2.087      2.601
REMARK  Name = 
REMARK  7 active torsions:
REMARK  status: ('A' for Active; 'I' for Inactive)
REMARK    1  A    between atoms: C_2  and  C_3
REMARK    2  A    between atoms: C_2  and  C_6
REMARK    3  A    between atoms: C_2  and  C_27
REMARK    4  A    between atoms: C_3  and  C_4
REMARK    5  A    between atoms: C_4  and  N_5
REMARK    6  A    between atoms: N_8  and  C_9
REMARK    7  A    between atoms: C_17  and  C_19
REMARK                            x       y       z     vdW  Elec       q    Type
REMARK                         _______ _______ _______ _____ _____    ______ ____
ROOT
ATOM      1  C   UNL     1       8.360  -2.114  23.054  0.00  0.00    +0.034 A 
ATOM      2  C   UNL     1       7.411  -1.066  23.129  0.00  0.00    +0.036 A 
ATOM      3  C   UNL     1       7.708   0.201  22.564  0.00  0.00    +0.043 A 
ATOM      4  C   UNL     1       8.953   0.362  21.960  0.00  0.00    +0.068 A 
ATOM      5  N   UNL     1       8.985   1.653  21.527  0.00  0.00    -0.275 N 
ATOM      6  H   UNL     1       9.741   2.133  21.050  0.00  0.00    +0.189 HD
ATOM      7  N   UNL     1       7.868   2.330  21.765  0.00  0.00    -0.157 NA
ATOM      8  C   UNL     1       9.907  -0.646  21.862  0.00  0.00    +0.029 A 
ATOM      9  C   UNL     1       7.060   1.477  22.399  0.00  0.00    +0.155 A 
ATOM     10  N   UNL     1       5.775   1.830  22.808  0.00  0.00    -0.264 N 
ATOM     11  H   UNL     1       5.246   1.133  23.305  0.00  0.00    +0.157 HD
ATOM     12  C   UNL     1       5.253   3.102  22.604  0.00  0.00    +0.249 C 
ATOM     13  O   UNL     1       5.825   4.056  22.082  0.00  0.00    -0.270 OA
ATOM     14  C   UNL     1       9.580  -1.887  22.411  0.00  0.00    +0.025 A 
ENDROOT
BRANCH  12  15
ATOM     15  C   UNL     1       3.860   3.370  23.063  0.00  0.00    +0.037 A 
ATOM     16  C   UNL     1       3.426   3.193  24.381  0.00  0.00    +0.013 A 
ATOM     17  C   UNL     1       2.067   3.341  24.691  0.00  0.00    +0.001 A 
ATOM     18  C   UNL     1       1.141   3.665  23.694  0.00  0.00    +0.000 A 
ATOM     19  C   UNL     1       1.571   3.851  22.383  0.00  0.00    +0.001 A 
ATOM     20  C   UNL     1       2.918   3.700  22.070  0.00  0.00    +0.013 A 
ENDBRANCH  12  15
BRANCH   1  22
ATOM     21  C   UNL     1       7.391  -3.590  24.844  0.00  0.00    +0.225 C 
ATOM     22  N   UNL     1       8.013  -3.369  23.621  0.00  0.00    -0.285 N 
ATOM     23  H   UNL     1       8.288  -4.185  23.090  0.00  0.00    +0.155 HD
ATOM     24  O   UNL     1       6.894  -2.709  25.546  0.00  0.00    -0.275 OA
BRANCH  21  25
ATOM     25  C   UNL     1       7.253  -5.057  25.307  0.00  0.00    +0.106 C 
BRANCH  25  26
ATOM     26  C   UNL     1       5.850  -5.676  25.342  0.00  0.00    -0.034 A 
ATOM     27  C   UNL     1       5.345  -6.285  26.507  0.00  0.00    +0.004 A 
ATOM     28  C   UNL     1       4.054  -6.822  26.554  0.00  0.00    +0.002 A 
ATOM     29  C   UNL     1       3.203  -6.692  25.461  0.00  0.00    +0.020 A 
ATOM     30  C   UNL     1       3.649  -6.018  24.332  0.00  0.00    +0.041 A 
ATOM     31 CL   UNL     1       2.574  -5.770  23.009  0.00  0.00    -0.084 Cl
ATOM     32  C   UNL     1       4.953  -5.518  24.266  0.00  0.00    +0.024 A 
ENDBRANCH  25  26
BRANCH  25  33
ATOM     33  C   UNL     1       8.144  -5.245  26.565  0.00  0.00    +0.032 C 
BRANCH  33  34
ATOM     34  C   UNL     1       9.606  -4.840  26.367  0.00  0.00    +0.079 C 
BRANCH  34  35
ATOM     35  N   UNL     1      10.175  -5.567  25.237  0.00  0.00    -0.330 NA
ATOM     36  H   UNL     1       9.721  -6.475  25.143  0.00  0.00    +0.118 HD
ATOM     37  H   UNL     1      10.000  -5.066  24.366  0.00  0.00    +0.118 HD
ENDBRANCH  34  35
ENDBRANCH  33  34
ENDBRANCH  25  33
ENDBRANCH  21  25
ENDBRANCH   1  22
TORSDOF 7
ENDMDL
MODEL 3
REMARK VINA RESULT:      -7.1      2.499      8.505
REMARK  Name = 
REMARK  7 active torsions:
REMARK  status: ('A' for Active; 'I' for Inactive)
REMARK    1  A    between atoms: C_2  and  C_3
REMARK    2  A    between atoms: C_2  and  C_6
REMARK    3  A    between atoms: C_2  and  C_27
REMARK    4  A    between atoms: C_3  and  C_4
REMARK    5  A    between atoms: C_4  and  N_5
REMARK    6  A    between atoms: N_8  and  C_9
REMARK    7  A    between atoms: C_17  and  C_19
REMARK                            x       y       z     vdW  Elec       q    Type
REMARK                         _______ _______ _______ _____ _____    ______ ____
ROOT
ATOM      1  C   UNL     1       7.611   1.663  22.343  0.00  0.00    +0.034 A 
ATOM      2  C   UNL     1       7.277   0.350  22.756  0.00  0.00    +0.036 A 
ATOM      3  C   UNL     1       8.236  -0.690  22.654  0.00  0.00    +0.043 A 
ATOM      4  C   UNL     1       9.485  -0.367  22.127  0.00  0.00    +0.068 A 
ATOM      5  N   UNL     1      10.193  -1.530  22.123  0.00  0.00    -0.275 N 
ATOM      6  H   UNL     1      11.141  -1.683  21.797  0.00  0.00    +0.189 HD
ATOM      7  N   UNL     1       9.531  -2.566  22.625  0.00  0.00    -0.157 NA
ATOM      8  C   UNL     1       9.850   0.913  21.718  0.00  0.00    +0.029 A 
ATOM      9  C   UNL     1       8.329  -2.094  22.962  0.00  0.00    +0.155 A 
ATOM     10  N   UNL     1       7.346  -2.897  23.539  0.00  0.00    -0.264 N 
ATOM     11  H   UNL     1       6.459  -2.465  23.734  0.00  0.00    +0.157 HD
ATOM     12  C   UNL     1       7.543  -4.251  23.784  0.00  0.00    +0.249 C 
ATOM     13  O   UNL     1       8.548  -4.907  23.521  0.00  0.00    -0.270 OA
ATOM     14  C   UNL     1       8.892   1.920  21.846  0.00  0.00    +0.025 A 
ENDROOT
BRANCH  12  15
ATOM     15  C   UNL     1       6.434  -5.016  24.423  0.00  0.00    +0.037 A 
ATOM     16  C   UNL     1       6.324  -5.223  25.802  0.00  0.00    +0.013 A 
ATOM     17  C   UNL     1       5.322  -6.067  26.300  0.00  0.00    +0.001 A 
ATOM     18  C   UNL     1       4.432  -6.705  25.430  0.00  0.00    +0.000 A 
ATOM     19  C   UNL     1       4.533  -6.494  24.058  0.00  0.00    +0.001 A 
ATOM     20  C   UNL     1       5.528  -5.660  23.559  0.00  0.00    +0.013 A 
ENDBRANCH  12  15
BRANCH   1  22
ATOM     21  C   UNL     1       6.092   3.173  23.660  0.00  0.00    +0.225 C 
ATOM     22  N   UNL     1       6.623   2.675  22.477  0.00  0.00    -0.285 N 
ATOM     23  H   UNL     1       6.241   3.036  21.611  0.00  0.00    +0.155 HD
ATOM     24  O   UNL     1       6.529   2.923  24.783  0.00  0.00    -0.275 OA
BRANCH  21  25
ATOM     25  C   UNL     1       4.919   4.170  23.539  0.00  0.00    +0.106 C 
BRANCH  25  26
ATOM     26  C   UNL     1       3.527   3.614  23.211  0.00  0.00    -0.034 A 
ATOM     27  C   UNL     1       2.522   3.525  24.194  0.00  0.00    +0.004 A 
ATOM     28  C   UNL     1       1.242   3.050  23.893  0.00  0.00    +0.002 A 
ATOM     29  C   UNL     1       0.906   2.726  22.582  0.00  0.00    +0.020 A 
ATOM     30  C   UNL     1       1.854   2.890  21.580  0.00  0.00    +0.041 A 
ATOM     31 CL   UNL     1       1.423   2.581  19.942  0.00  0.00    -0.084 Cl
ATOM     32  C   UNL     1       3.148   3.323  21.886  0.00  0.00    +0.024 A 
ENDBRANCH  25  26
BRANCH  25  33
ATOM     33  C   UNL     1       5.411   5.386  22.709  0.00  0.00    +0.032 C 
BRANCH  33  34
ATOM     34  C   UNL     1       6.795   5.902  23.109  0.00  0.00    +0.079 C 
BRANCH  34  35
ATOM     35  N   UNL     1       7.720   5.764  21.988  0.00  0.00    -0.330 NA
ATOM     36  H   UNL     1       7.860   4.778  21.773  0.00  0.00    +0.118 HD
ATOM     37  H   UNL     1       7.328   6.189  21.148  0.00  0.00    +0.118 HD
ENDBRANCH  34  35
ENDBRANCH  33  34
ENDBRANCH  25  33
ENDBRANCH  21  25
ENDBRANCH   1  22
TORSDOF 7
ENDMDL
MODEL 4
REMARK VINA RESULT:      -7.1      3.441      4.328
REMARK  Name = 
REMARK  7 active torsions:
REMARK  status: ('A' for Active; 'I' for Inactive)
REMARK    1  A    between atoms: C_2  and  C_3
REMARK    2  A    between atoms: C_2  and  C_6
REMARK    3  A    between atoms: C_2  and  C_27
REMARK    4  A    between atoms: C_3  and  C_4
REMARK    5  A    between atoms: C_4  and  N_5
REMARK    6  A    between atoms: N_8  and  C_9
REMARK    7  A    between atoms: C_17  and  C_19
REMARK                            x       y       z     vdW  Elec       q    Type
REMARK                         _______ _______ _______ _____ _____    ______ ____
ROOT
ATOM      1  C   UNL     1       8.211  -1.041  22.913  0.00  0.00    +0.034 A 
ATOM      2  C   UNL     1       7.990   0.061  23.774  0.00  0.00    +0.036 A 
ATOM      3  C   UNL     1       8.681   1.281  23.557  0.00  0.00    +0.043 A 
ATOM      4  C   UNL     1       9.576   1.334  22.490  0.00  0.00    +0.068 A 
ATOM      5  N   UNL     1      10.107   2.588  22.520  0.00  0.00    -0.275 N 
ATOM      6  H   UNL     1      10.805   2.985  21.901  0.00  0.00    +0.189 HD
ATOM      7  N   UNL     1       9.617   3.358  23.484  0.00  0.00    -0.157 NA
ATOM      8  C   UNL     1       9.813   0.274  21.619  0.00  0.00    +0.029 A 
ATOM      9  C   UNL     1       8.741   2.595  24.142  0.00  0.00    +0.155 A 
ATOM     10  N   UNL     1       8.008   3.069  25.230  0.00  0.00    -0.264 N 
ATOM     11  H   UNL     1       7.392   2.416  25.684  0.00  0.00    +0.157 HD
ATOM     12  C   UNL     1       8.155   4.361  25.719  0.00  0.00    +0.249 C 
ATOM     13  O   UNL     1       8.927   5.222  25.301  0.00  0.00    -0.270 OA
ATOM     14  C   UNL     1       9.106  -0.907  21.848  0.00  0.00    +0.025 A 
ENDROOT
BRANCH  12  15
ATOM     15  C   UNL     1       7.309   4.774  26.875  0.00  0.00    +0.037 A 
ATOM     16  C   UNL     1       7.041   6.105  27.209  0.00  0.00    +0.013 A 
ATOM     17  C   UNL     1       6.346   6.399  28.391  0.00  0.00    +0.001 A 
ATOM     18  C   UNL     1       5.919   5.373  29.239  0.00  0.00    +0.000 A 
ATOM     19  C   UNL     1       6.176   4.046  28.905  0.00  0.00    +0.001 A 
ATOM     20  C   UNL     1       6.869   3.750  27.735  0.00  0.00    +0.013 A 
ENDBRANCH  12  15
BRANCH   1  22
ATOM     21  C   UNL     1       8.010  -3.474  23.514  0.00  0.00    +0.225 C 
ATOM     22  N   UNL     1       7.486  -2.237  23.161  0.00  0.00    -0.285 N 
ATOM     23  H   UNL     1       6.484  -2.182  23.025  0.00  0.00    +0.155 HD
ATOM     24  O   UNL     1       9.184  -3.673  23.829  0.00  0.00    -0.275 OA
BRANCH  21  25
ATOM     25  C   UNL     1       7.025  -4.660  23.585  0.00  0.00    +0.106 C 
BRANCH  25  26
ATOM     26  C   UNL     1       6.618  -5.181  24.970  0.00  0.00    -0.034 A 
ATOM     27  C   UNL     1       7.413  -4.940  26.107  0.00  0.00    +0.004 A 
ATOM     28  C   UNL     1       7.031  -5.385  27.377  0.00  0.00    +0.002 A 
ATOM     29  C   UNL     1       5.803  -6.012  27.558  0.00  0.00    +0.020 A 
ATOM     30  C   UNL     1       4.962  -6.182  26.465  0.00  0.00    +0.041 A 
ATOM     31 CL   UNL     1       3.401  -6.874  26.692  0.00  0.00    -0.084 Cl
ATOM     32  C   UNL     1       5.361  -5.778  25.187  0.00  0.00    +0.024 A 
ENDBRANCH  25  26
BRANCH  25  33
ATOM     33  C   UNL     1       7.468  -5.711  22.532  0.00  0.00    +0.032 C 
BRANCH  33  34
ATOM     34  C   UNL     1       6.420  -6.008  21.458  0.00  0.00    +0.079 C 
BRANCH  34  35
ATOM     35  N   UNL     1       5.876  -4.759  20.935  0.00  0.00    -0.330 NA
ATOM     36  H   UNL     1       5.901  -4.768  19.916  0.00  0.00    +0.118 HD
ATOM     37  H   UNL     1       4.896  -4.658  21.198  0.00  0.00    +0.118 HD
ENDBRANCH  34  35
ENDBRANCH  33  34
ENDBRANCH  25  33
ENDBRANCH  21  25
ENDBRANCH   1  22
TORSDOF 7
ENDMDL
MODEL 5
REMARK VINA RESULT:      -7.1      3.221      3.803
REMARK  Name = 
REMARK  7 active torsions:
REMARK  status: ('A' for Active; 'I' for Inactive)
REMARK    1  A    between atoms: C_2  and  C_3
REMARK    2  A    between atoms: C_2  and  C_6
REMARK    3  A    between atoms: C_2  and  C_27
REMARK    4  A    between atoms: C_3  and  C_4
REMARK    5  A    between atoms: C_4  and  N_5
REMARK    6  A    between atoms: N_8  and  C_9
REMARK    7  A    between atoms: C_17  and  C_19
REMARK                            x       y       z     vdW  Elec       q    Type
REMARK                         _______ _______ _______ _____ _____    ______ ____
ROOT
ATOM      1  C   UNL     1       9.427  -0.018  23.529  0.00  0.00    +0.034 A 
ATOM      2  C   UNL     1       8.898   0.885  24.484  0.00  0.00    +0.036 A 
ATOM      3  C   UNL     1       8.995   2.283  24.268  0.00  0.00    +0.043 A 
ATOM      4  C   UNL     1       9.633   2.714  23.106  0.00  0.00    +0.068 A 
ATOM      5  N   UNL     1       9.606   4.075  23.157  0.00  0.00    -0.275 N 
ATOM      6  H   UNL     1       9.989   4.732  22.486  0.00  0.00    +0.189 HD
ATOM      7  N   UNL     1       8.984   4.563  24.223  0.00  0.00    -0.157 NA
ATOM      8  C   UNL     1      10.158   1.857  22.143  0.00  0.00    +0.029 A 
ATOM      9  C   UNL     1       8.595   3.498  24.929  0.00  0.00    +0.155 A 
ATOM     10  N   UNL     1       7.891   3.614  26.127  0.00  0.00    -0.264 N 
ATOM     11  H   UNL     1       7.663   2.760  26.608  0.00  0.00    +0.157 HD
ATOM     12  C   UNL     1       7.564   4.846  26.681  0.00  0.00    +0.249 C 
ATOM     13  O   UNL     1       7.853   5.954  26.233  0.00  0.00    -0.270 OA
ATOM     14  C   UNL     1      10.033   0.486  22.375  0.00  0.00    +0.025 A 
ENDROOT
BRANCH  12  15
ATOM     15  C   UNL     1       6.793   4.859  27.957  0.00  0.00    +0.037 A 
ATOM     16  C   UNL     1       6.385   6.027  28.609  0.00  0.00    +0.013 A 
ATOM     17  C   UNL     1       5.781   5.943  29.872  0.00  0.00    +0.001 A 
ATOM     18  C   UNL     1       5.584   4.702  30.485  0.00  0.00    +0.000 A 
ATOM     19  C   UNL     1       5.981   3.537  29.834  0.00  0.00    +0.001 A 
ATOM     20  C   UNL     1       6.584   3.616  28.583  0.00  0.00    +0.013 A 
ENDBRANCH  12  15
BRANCH   1  22
ATOM     21  C   UNL     1       8.154  -2.184  23.612  0.00  0.00    +0.225 C 
ATOM     22  N   UNL     1       9.294  -1.408  23.782  0.00  0.00    -0.285 N 
ATOM     23  H   UNL     1      10.111  -1.868  24.166  0.00  0.00    +0.155 HD
ATOM     24  O   UNL     1       7.126  -1.804  23.050  0.00  0.00    -0.275 OA
BRANCH  21  25
ATOM     25  C   UNL     1       8.221  -3.648  24.098  0.00  0.00    +0.106 C 
BRANCH  25  26
ATOM     26  C   UNL     1       7.179  -4.638  23.559  0.00  0.00    -0.034 A 
ATOM     27  C   UNL     1       7.293  -5.193  22.270  0.00  0.00    +0.004 A 
ATOM     28  C   UNL     1       6.364  -6.120  21.786  0.00  0.00    +0.002 A 
ATOM     29  C   UNL     1       5.342  -6.580  22.609  0.00  0.00    +0.020 A 
ATOM     30  C   UNL     1       5.262  -6.114  23.915  0.00  0.00    +0.041 A 
ATOM     31 CL   UNL     1       4.057  -6.744  24.973  0.00  0.00    -0.084 Cl
ATOM     32  C   UNL     1       6.163  -5.153  24.387  0.00  0.00    +0.024 A 
ENDBRANCH  25  26
BRANCH  25  33
ATOM     33  C   UNL     1       8.457  -3.630  25.632  0.00  0.00    +0.032 C 
BRANCH  33  34
ATOM     34  C   UNL     1       9.339  -4.769  26.147  0.00  0.00    +0.079 C 
BRANCH  34  35
ATOM     35  N   UNL     1      10.263  -5.196  25.101  0.00  0.00    -0.330 NA
ATOM     36  H   UNL     1      11.065  -5.666  25.517  0.00  0.00    +0.118 HD
ATOM     37  H   UNL     1       9.816  -5.877  24.487  0.00  0.00    +0.118 HD
ENDBRANCH  34  35
ENDBRANCH  33  34
ENDBRANCH  25  33
ENDBRANCH  21  25
ENDBRANCH   1  22
TORSDOF 7
ENDMDL
MODEL 6
REMARK VINA RESULT:      -7.0      3.457      8.973
REMARK  Name = 
REMARK  7 active torsions:
REMARK  status: ('A' for Active; 'I' for Inactive)
REMARK    1  A    between atoms: C_2  and  C_3
REMARK    2  A    between atoms: C_2  and  C_6
REMARK    3  A    between atoms: C_2  and  C_27
REMARK    4  A    between atoms: C_3  and  C_4
REMARK    5  A    between atoms: C_4  and  N_5
REMARK    6  A    between atoms: N_8  and  C_9
REMARK    7  A    between atoms: C_17  and  C_19
REMARK                            x       y       z     vdW  Elec       q    Type
REMARK                         _______ _______ _______ _____ _____    ______ ____
ROOT
ATOM      1  C   UNL     1       8.828   1.221  24.060  0.00  0.00    +0.034 A 
ATOM      2  C   UNL     1       7.944   0.115  24.009  0.00  0.00    +0.036 A 
ATOM      3  C   UNL     1       8.460  -1.202  23.903  0.00  0.00    +0.043 A 
ATOM      4  C   UNL     1       9.845  -1.349  23.841  0.00  0.00    +0.068 A 
ATOM      5  N   UNL     1      10.066  -2.687  23.725  0.00  0.00    -0.275 N 
ATOM      6  H   UNL     1      10.955  -3.168  23.641  0.00  0.00    +0.189 HD
ATOM      7  N   UNL     1       8.959  -3.420  23.739  0.00  0.00    -0.157 NA
ATOM      8  C   UNL     1      10.744  -0.287  23.895  0.00  0.00    +0.029 A 
ATOM      9  C   UNL     1       7.953  -2.548  23.847  0.00  0.00    +0.155 A 
ATOM     10  N   UNL     1       6.620  -2.951  23.904  0.00  0.00    -0.264 N 
ATOM     11  H   UNL     1       5.925  -2.225  23.956  0.00  0.00    +0.157 HD
ATOM     12  C   UNL     1       6.242  -4.286  23.831  0.00  0.00    +0.249 C 
ATOM     13  O   UNL     1       6.987  -5.254  23.689  0.00  0.00    -0.270 OA
ATOM     14  C   UNL     1      10.207   0.996  24.016  0.00  0.00    +0.025 A 
ENDROOT
BRANCH  12  15
ATOM     15  C   UNL     1       4.790  -4.610  23.921  0.00  0.00    +0.037 A 
ATOM     16  C   UNL     1       4.166  -5.610  23.167  0.00  0.00    +0.013 A 
ATOM     17  C   UNL     1       2.773  -5.753  23.220  0.00  0.00    +0.001 A 
ATOM     18  C   UNL     1       2.000  -4.905  24.020  0.00  0.00    +0.000 A 
ATOM     19  C   UNL     1       2.619  -3.915  24.779  0.00  0.00    +0.001 A 
ATOM     20  C   UNL     1       4.001  -3.767  24.726  0.00  0.00    +0.013 A 
ENDBRANCH  12  15
BRANCH   1  22
ATOM     21  C   UNL     1       7.852   3.349  23.145  0.00  0.00    +0.225 C 
ATOM     22  N   UNL     1       8.265   2.519  24.180  0.00  0.00    -0.285 N 
ATOM     23  H   UNL     1       8.199   2.887  25.121  0.00  0.00    +0.155 HD
ATOM     24  O   UNL     1       7.758   3.006  21.966  0.00  0.00    -0.275 OA
BRANCH  21  25
ATOM     25  C   UNL     1       7.408   4.778  23.526  0.00  0.00    +0.106 C 
BRANCH  25  26
ATOM     26  C   UNL     1       8.369   5.638  24.357  0.00  0.00    -0.034 A 
ATOM     27  C   UNL     1       7.947   6.275  25.540  0.00  0.00    +0.004 A 
ATOM     28  C   UNL     1       8.827   7.033  26.319  0.00  0.00    +0.002 A 
ATOM     29  C   UNL     1      10.174   7.108  25.980  0.00  0.00    +0.020 A 
ATOM     30  C   UNL     1      10.631   6.415  24.866  0.00  0.00    +0.041 A 
ATOM     31 CL   UNL     1      12.311   6.425  24.488  0.00  0.00    -0.084 Cl
ATOM     32  C   UNL     1       9.745   5.692  24.061  0.00  0.00    +0.024 A 
ENDBRANCH  25  26
BRANCH  25  33
ATOM     33  C   UNL     1       5.930   4.708  23.995  0.00  0.00    +0.032 C 
BRANCH  33  34
ATOM     34  C   UNL     1       4.908   5.081  22.919  0.00  0.00    +0.079 C 
BRANCH  34  35
ATOM     35  N   UNL     1       4.584   3.908  22.113  0.00  0.00    -0.330 NA
ATOM     36  H   UNL     1       5.408   3.602  21.599  0.00  0.00    +0.118 HD
ATOM     37  H   UNL     1       4.311   3.129  22.712  0.00  0.00    +0.118 HD
ENDBRANCH  34  35
ENDBRANCH  33  34
ENDBRANCH  25  33
ENDBRANCH  21  25
ENDBRANCH   1  22
TORSDOF 7
ENDMDL
MODEL 7
REMARK VINA RESULT:      -6.8      2.407      3.264
REMARK  Name = 
REMARK  7 active torsions:
REMARK  status: ('A' for Active; 'I' for Inactive)
REMARK    1  A    between atoms: C_2  and  C_3
REMARK    2  A    between atoms: C_2  and  C_6
REMARK    3  A    between atoms: C_2  and  C_27
REMARK    4  A    between atoms: C_3  and  C_4
REMARK    5  A    between atoms: C_4  and  N_5
REMARK    6  A    between atoms: N_8  and  C_9
REMARK    7  A    between atoms: C_17  and  C_19
REMARK                            x       y       z     vdW  Elec       q    Type
REMARK                         _______ _______ _______ _____ _____    ______ ____
ROOT
ATOM      1  C   UNL     1       8.173  -1.733  22.518  0.00  0.00    +0.034 A 
ATOM      2  C   UNL     1       7.360  -0.582  22.657  0.00  0.00    +0.036 A 
ATOM      3  C   UNL     1       7.893   0.702  22.373  0.00  0.00    +0.043 A 
ATOM      4  C   UNL     1       9.226   0.772  21.975  0.00  0.00    +0.068 A 
ATOM      5  N   UNL     1       9.483   2.097  21.790  0.00  0.00    -0.275 N 
ATOM      6  H   UNL     1      10.356   2.530  21.509  0.00  0.00    +0.189 HD
ATOM      7  N   UNL     1       8.434   2.884  21.999  0.00  0.00    -0.157 NA
ATOM      8  C   UNL     1      10.053  -0.337  21.820  0.00  0.00    +0.029 A 
ATOM      9  C   UNL     1       7.440   2.069  22.359  0.00  0.00    +0.155 A 
ATOM     10  N   UNL     1       6.161   2.537  22.655  0.00  0.00    -0.264 N 
ATOM     11  H   UNL     1       5.481   1.855  22.945  0.00  0.00    +0.157 HD
ATOM     12  C   UNL     1       5.837   3.888  22.618  0.00  0.00    +0.249 C 
ATOM     13  O   UNL     1       6.595   4.819  22.355  0.00  0.00    -0.270 OA
ATOM     14  C   UNL     1       9.496  -1.588  22.090  0.00  0.00    +0.025 A 
ENDROOT
BRANCH  12  15
ATOM     15  C   UNL     1       4.434   4.281  22.933  0.00  0.00    +0.037 A 
ATOM     16  C   UNL     1       3.975   5.602  22.928  0.00  0.00    +0.013 A 
ATOM     17  C   UNL     1       2.675   5.888  23.369  0.00  0.00    +0.001 A 
ATOM     18  C   UNL     1       1.833   4.864  23.812  0.00  0.00    +0.000 A 
ATOM     19  C   UNL     1       2.283   3.546  23.810  0.00  0.00    +0.001 A 
ATOM     20  C   UNL     1       3.574   3.259  23.378  0.00  0.00    +0.013 A 
ENDBRANCH  12  15
BRANCH   1  22
ATOM     21  C   UNL     1       6.620  -3.277  23.753  0.00  0.00    +0.225 C 
ATOM     22  N   UNL     1       7.591  -2.998  22.799  0.00  0.00    -0.285 N 
ATOM     23  H   UNL     1       7.959  -3.780  22.272  0.00  0.00    +0.155 HD
ATOM     24  O   UNL     1       5.995  -2.426  24.386  0.00  0.00    -0.275 OA
BRANCH  21  25
ATOM     25  C   UNL     1       6.255  -4.762  23.970  0.00  0.00    +0.106 C 
BRANCH  25  26
ATOM     26  C   UNL     1       6.158  -5.281  25.410  0.00  0.00    -0.034 A 
ATOM     27  C   UNL     1       7.219  -5.116  26.323  0.00  0.00    +0.004 A 
ATOM     28  C   UNL     1       7.123  -5.558  27.646  0.00  0.00    +0.002 A 
ATOM     29  C   UNL     1       5.934  -6.105  28.116  0.00  0.00    +0.020 A 
ATOM     30  C   UNL     1       4.845  -6.197  27.259  0.00  0.00    +0.041 A 
ATOM     31 CL   UNL     1       3.340  -6.787  27.854  0.00  0.00    -0.084 Cl
ATOM     32  C   UNL     1       4.952  -5.796  25.923  0.00  0.00    +0.024 A 
ENDBRANCH  25  26
BRANCH  25  33
ATOM     33  C   UNL     1       7.082  -5.607  22.964  0.00  0.00    +0.032 C 
BRANCH  33  34
ATOM     34  C   UNL     1       6.260  -6.214  21.825  0.00  0.00    +0.079 C 
BRANCH  34  35
ATOM     35  N   UNL     1       6.077  -5.229  20.764  0.00  0.00    -0.330 NA
ATOM     36  H   UNL     1       5.189  -5.389  20.291  0.00  0.00    +0.118 HD
ATOM     37  H   UNL     1       6.029  -4.288  21.155  0.00  0.00    +0.118 HD
ENDBRANCH  34  35
ENDBRANCH  33  34
ENDBRANCH  25  33
ENDBRANCH  21  25
ENDBRANCH   1  22
TORSDOF 7
ENDMDL
MODEL 8
REMARK VINA RESULT:      -6.8      1.554      1.877
REMARK  Name = 
REMARK  7 active torsions:
REMARK  status: ('A' for Active; 'I' for Inactive)
REMARK    1  A    between atoms: C_2  and  C_3
REMARK    2  A    between atoms: C_2  and  C_6
REMARK    3  A    between atoms: C_2  and  C_27
REMARK    4  A    between atoms: C_3  and  C_4
REMARK    5  A    between atoms: C_4  and  N_5
REMARK    6  A    between atoms: N_8  and  C_9
REMARK    7  A    between atoms: C_17  and  C_19
REMARK                            x       y       z     vdW  Elec       q    Type
REMARK                         _______ _______ _______ _____ _____    ______ ____
ROOT
ATOM      1  C   UNL     1       8.908   0.404  23.763  0.00  0.00    +0.034 A 
ATOM      2  C   UNL     1       7.842   1.335  23.703  0.00  0.00    +0.036 A 
ATOM      3  C   UNL     1       8.115   2.716  23.527  0.00  0.00    +0.043 A 
ATOM      4  C   UNL     1       9.450   3.102  23.432  0.00  0.00    +0.068 A 
ATOM      5  N   UNL     1       9.430   4.457  23.291  0.00  0.00    -0.275 N 
ATOM      6  H   UNL     1      10.220   5.087  23.205  0.00  0.00    +0.189 HD
ATOM      7  N   UNL     1       8.209   4.977  23.252  0.00  0.00    -0.157 NA
ATOM      8  C   UNL     1      10.523   2.216  23.480  0.00  0.00    +0.029 A 
ATOM      9  C   UNL     1       7.375   3.944  23.393  0.00  0.00    +0.155 A 
ATOM     10  N   UNL     1       5.989   4.098  23.392  0.00  0.00    -0.264 N 
ATOM     11  H   UNL     1       5.437   3.269  23.534  0.00  0.00    +0.157 HD
ATOM     12  C   UNL     1       5.380   5.341  23.265  0.00  0.00    +0.249 C 
ATOM     13  O   UNL     1       5.943   6.429  23.165  0.00  0.00    -0.270 OA
ATOM     14  C   UNL     1      10.223   0.862  23.638  0.00  0.00    +0.025 A 
ENDROOT
BRANCH  12  15
ATOM     15  C   UNL     1       3.890   5.393  23.257  0.00  0.00    +0.037 A 
ATOM     16  C   UNL     1       3.121   5.867  24.324  0.00  0.00    +0.013 A 
ATOM     17  C   UNL     1       1.724   5.753  24.279  0.00  0.00    +0.001 A 
ATOM     18  C   UNL     1       1.093   5.170  23.176  0.00  0.00    +0.000 A 
ATOM     19  C   UNL     1       1.855   4.705  22.108  0.00  0.00    +0.001 A 
ATOM     20  C   UNL     1       3.242   4.812  22.150  0.00  0.00    +0.013 A 
ENDBRANCH  12  15
BRANCH   1  22
ATOM     21  C   UNL     1       8.601  -1.696  25.110  0.00  0.00    +0.225 C 
ATOM     22  N   UNL     1       8.585  -0.969  23.927  0.00  0.00    -0.285 N 
ATOM     23  H   UNL     1       8.361  -1.474  23.078  0.00  0.00    +0.155 HD
ATOM     24  O   UNL     1       8.737  -1.206  26.232  0.00  0.00    -0.275 OA
BRANCH  21  25
ATOM     25  C   UNL     1       8.351  -3.216  25.005  0.00  0.00    +0.106 C 
BRANCH  25  26
ATOM     26  C   UNL     1       7.100  -3.695  24.258  0.00  0.00    -0.034 A 
ATOM     27  C   UNL     1       5.809  -3.298  24.660  0.00  0.00    +0.004 A 
ATOM     28  C   UNL     1       4.667  -3.704  23.963  0.00  0.00    +0.002 A 
ATOM     29  C   UNL     1       4.788  -4.453  22.797  0.00  0.00    +0.020 A 
ATOM     30  C   UNL     1       6.055  -4.781  22.332  0.00  0.00    +0.041 A 
ATOM     31 CL   UNL     1       6.222  -5.627  20.841  0.00  0.00    -0.084 Cl
ATOM     32  C   UNL     1       7.197  -4.413  23.050  0.00  0.00    +0.024 A 
ENDBRANCH  25  26
BRANCH  25  33
ATOM     33  C   UNL     1       8.631  -3.842  26.397  0.00  0.00    +0.032 C 
BRANCH  33  34
ATOM     34  C   UNL     1       8.535  -5.369  26.433  0.00  0.00    +0.079 C 
BRANCH  34  35
ATOM     35  N   UNL     1       7.704  -5.788  27.558  0.00  0.00    -0.330 NA
ATOM     36  H   UNL     1       7.042  -6.501  27.254  0.00  0.00    +0.118 HD
ATOM     37  H   UNL     1       8.278  -6.219  28.283  0.00  0.00    +0.118 HD
ENDBRANCH  34  35
ENDBRANCH  33  34
ENDBRANCH  25  33
ENDBRANCH  21  25
ENDBRANCH   1  22
TORSDOF 7
ENDMDL
MODEL 9
REMARK VINA RESULT:      -6.8      2.336      8.461
REMARK  Name = 
REMARK  7 active torsions:
REMARK  status: ('A' for Active; 'I' for Inactive)
REMARK    1  A    between atoms: C_2  and  C_3
REMARK    2  A    between atoms: C_2  and  C_6
REMARK    3  A    between atoms: C_2  and  C_27
REMARK    4  A    between atoms: C_3  and  C_4
REMARK    5  A    between atoms: C_4  and  N_5
REMARK    6  A    between atoms: N_8  and  C_9
REMARK    7  A    between atoms: C_17  and  C_19
REMARK                            x       y       z     vdW  Elec       q    Type
REMARK                         _______ _______ _______ _____ _____    ______ ____
ROOT
ATOM      1  C   UNL     1       8.787   1.534  24.042  0.00  0.00    +0.034 A 
ATOM      2  C   UNL     1       7.927   0.412  23.966  0.00  0.00    +0.036 A 
ATOM      3  C   UNL     1       8.472  -0.896  23.904  0.00  0.00    +0.043 A 
ATOM      4  C   UNL     1       9.860  -1.018  23.909  0.00  0.00    +0.068 A 
ATOM      5  N   UNL     1      10.111  -2.354  23.823  0.00  0.00    -0.275 N 
ATOM      6  H   UNL     1      11.012  -2.819  23.789  0.00  0.00    +0.189 HD
ATOM      7  N   UNL     1       9.018  -3.107  23.797  0.00  0.00    -0.157 NA
ATOM      8  C   UNL     1      10.736   0.061  23.990  0.00  0.00    +0.029 A 
ATOM      9  C   UNL     1       7.993  -2.253  23.845  0.00  0.00    +0.155 A 
ATOM     10  N   UNL     1       6.666  -2.680  23.845  0.00  0.00    -0.264 N 
ATOM     11  H   UNL     1       5.957  -1.967  23.854  0.00  0.00    +0.157 HD
ATOM     12  C   UNL     1       6.317  -4.023  23.774  0.00  0.00    +0.249 C 
ATOM     13  O   UNL     1       7.085  -4.978  23.682  0.00  0.00    -0.270 OA
ATOM     14  C   UNL     1      10.171   1.335  24.066  0.00  0.00    +0.025 A 
ENDROOT
BRANCH  12  15
ATOM     15  C   UNL     1       4.868  -4.374  23.801  0.00  0.00    +0.037 A 
ATOM     16  C   UNL     1       3.923  -3.720  24.598  0.00  0.00    +0.013 A 
ATOM     17  C   UNL     1       2.609  -4.206  24.658  0.00  0.00    +0.001 A 
ATOM     18  C   UNL     1       2.235  -5.338  23.928  0.00  0.00    +0.000 A 
ATOM     19  C   UNL     1       3.171  -5.986  23.126  0.00  0.00    +0.001 A 
ATOM     20  C   UNL     1       4.477  -5.510  23.067  0.00  0.00    +0.013 A 
ENDBRANCH  12  15
BRANCH   1  22
ATOM     21  C   UNL     1       7.895   3.667  23.054  0.00  0.00    +0.225 C 
ATOM     22  N   UNL     1       8.195   2.823  24.116  0.00  0.00    -0.285 N 
ATOM     23  H   UNL     1       8.014   3.173  25.048  0.00  0.00    +0.155 HD
ATOM     24  O   UNL     1       7.946   3.344  21.866  0.00  0.00    -0.275 OA
BRANCH  21  25
ATOM     25  C   UNL     1       7.389   5.083  23.403  0.00  0.00    +0.106 C 
BRANCH  25  26
ATOM     26  C   UNL     1       5.937   5.439  23.058  0.00  0.00    -0.034 A 
ATOM     27  C   UNL     1       5.587   6.718  22.583  0.00  0.00    +0.004 A 
ATOM     28  C   UNL     1       4.271   7.037  22.236  0.00  0.00    +0.002 A 
ATOM     29  C   UNL     1       3.281   6.061  22.278  0.00  0.00    +0.020 A 
ATOM     30  C   UNL     1       3.619   4.769  22.658  0.00  0.00    +0.041 A 
ATOM     31 CL   UNL     1       2.422   3.530  22.624  0.00  0.00    -0.084 Cl
ATOM     32  C   UNL     1       4.926   4.458  23.047  0.00  0.00    +0.024 A 
ENDBRANCH  25  26
BRANCH  25  33
ATOM     33  C   UNL     1       8.487   6.098  22.985  0.00  0.00    +0.032 C 
BRANCH  33  34
ATOM     34  C   UNL     1       9.759   6.034  23.832  0.00  0.00    +0.079 C 
BRANCH  34  35
ATOM     35  N   UNL     1      10.884   5.601  23.009  0.00  0.00    -0.330 NA
ATOM     36  H   UNL     1      11.320   6.408  22.565  0.00  0.00    +0.118 HD
ATOM     37  H   UNL     1      11.603   5.167  23.588  0.00  0.00    +0.118 HD
ENDBRANCH  34  35
ENDBRANCH  33  34
ENDBRANCH  25  33
ENDBRANCH  21  25
ENDBRANCH   1  22
TORSDOF 7
ENDMDL
