MODEL 1
REMARK VINA RESULT:      -3.1      0.000      0.000
REMARK  Name = 
REMARK  4 active torsions:
REMARK  status: ('A' for Active; 'I' for Inactive)
REMARK    1  A    between atoms: C_1  and  C_2
REMARK    2  A    between atoms: C_2  and  O_4
REMARK    3  A    between atoms: C_2  and  C_5
REMARK    4  A    between atoms: C_5  and  C_6
REMARK                            x       y       z     vdW  Elec       q    Type
REMARK                         _______ _______ _______ _____ _____    ______ ____
ROOT
ATOM      1  C   UNL     1       9.857   0.048  21.921  0.00  0.00    +0.046 C 
ATOM      2  C   UNL     1       9.564   1.458  22.403  0.00  0.00    +0.177 C 
ENDROOT
BRANCH   2   3
ATOM      3  C   UNL     1       9.918   1.649  23.879  0.00  0.00    +0.158 C 
ATOM      4  O   UNL     1       9.402   2.549  24.545  0.00  0.00    -0.295 OA
ATOM      5  C   UNL     1      10.872   0.667  24.513  0.00  0.00    +0.089 C 
ENDBRANCH   2   3
BRANCH   2   6
ATOM      6  O   UNL     1      10.305   2.362  21.587  0.00  0.00    -0.385 OA
ATOM      7  H   UNL     1       9.673   3.048  21.292  0.00  0.00    +0.210 HD
ENDBRANCH   2   6
TORSDOF 2
ENDMDL
MODEL 2
REMARK VINA RESULT:      -3.0      6.121      6.645
REMARK  Name = 
REMARK  4 active torsions:
REMARK  status: ('A' for Active; 'I' for Inactive)
REMARK    1  A    between atoms: C_1  and  C_2
REMARK    2  A    between atoms: C_2  and  O_4
REMARK    3  A    between atoms: C_2  and  C_5
REMARK    4  A    between atoms: C_5  and  C_6
REMARK                            x       y       z     vdW  Elec       q    Type
REMARK                         _______ _______ _______ _____ _____    ______ ____
ROOT
ATOM      1  C   UNL     1       8.271  -5.165  26.392  0.00  0.00    +0.046 C 
ATOM      2  C   UNL     1       9.060  -5.125  25.096  0.00  0.00    +0.177 C 
ENDROOT
BRANCH   2   3
ATOM      3  C   UNL     1       9.104  -3.721  24.490  0.00  0.00    +0.158 C 
ATOM      4  O   UNL     1      10.148  -3.265  24.017  0.00  0.00    -0.295 OA
ATOM      5  C   UNL     1       7.819  -2.932  24.431  0.00  0.00    +0.089 C 
ENDBRANCH   2   3
BRANCH   2   6
ATOM      6  O   UNL     1      10.377  -5.596  25.370  0.00  0.00    -0.385 OA
ATOM      7  H   UNL     1      10.279  -6.333  26.007  0.00  0.00    +0.210 HD
ENDBRANCH   2   6
TORSDOF 2
ENDMDL
MODEL 3
REMARK VINA RESULT:      -3.0      2.206      2.627
REMARK  Name = 
REMARK  4 active torsions:
REMARK  status: ('A' for Active; 'I' for Inactive)
REMARK    1  A    between atoms: C_1  and  C_2
REMARK    2  A    between atoms: C_2  and  O_4
REMARK    3  A    between atoms: C_2  and  C_5
REMARK    4  A    between atoms: C_5  and  C_6
REMARK                            x       y       z     vdW  Elec       q    Type
REMARK                         _______ _______ _______ _____ _____    ______ ____
ROOT
ATOM      1  C   UNL     1       9.955  -2.197  23.707  0.00  0.00    +0.046 C 
ATOM      2  C   UNL     1       9.655  -1.144  22.656  0.00  0.00    +0.177 C 
ENDROOT
BRANCH   2   3
ATOM      3  C   UNL     1      10.202   0.231  23.042  0.00  0.00    +0.158 C 
ATOM      4  O   UNL     1      10.193   1.168  22.240  0.00  0.00    -0.295 OA
ATOM      5  C   UNL     1      10.699   0.427  24.454  0.00  0.00    +0.089 C 
ENDBRANCH   2   3
BRANCH   2   6
ATOM      6  O   UNL     1      10.222  -1.583  21.423  0.00  0.00    -0.385 OA
ATOM      7  H   UNL     1      11.095  -1.146  21.350  0.00  0.00    +0.210 HD
ENDBRANCH   2   6
TORSDOF 2
ENDMDL
MODEL 4
REMARK VINA RESULT:      -3.0      3.506      3.773
REMARK  Name = 
REMARK  4 active torsions:
REMARK  status: ('A' for Active; 'I' for Inactive)
REMARK    1  A    between atoms: C_1  and  C_2
REMARK    2  A    between atoms: C_2  and  O_4
REMARK    3  A    between atoms: C_2  and  C_5
REMARK    4  A    between atoms: C_5  and  C_6
REMARK                            x       y       z     vdW  Elec       q    Type
REMARK                         _______ _______ _______ _____ _____    ______ ____
ROOT
ATOM      1  C   UNL     1      10.173   0.160  22.923  0.00  0.00    +0.046 C 
ATOM      2  C   UNL     1      10.405  -1.328  22.726  0.00  0.00    +0.177 C 
ENDROOT
BRANCH   2   3
ATOM      3  C   UNL     1       9.776  -2.164  23.842  0.00  0.00    +0.158 C 
ATOM      4  O   UNL     1      10.119  -3.333  24.031  0.00  0.00    -0.295 OA
ATOM      5  C   UNL     1       8.767  -1.498  24.745  0.00  0.00    +0.089 C 
ENDBRANCH   2   3
BRANCH   2   6
ATOM      6  O   UNL     1       9.863  -1.691  21.458  0.00  0.00    -0.385 OA
ATOM      7  H   UNL     1      10.420  -2.422  21.120  0.00  0.00    +0.210 HD
ENDBRANCH   2   6
TORSDOF 2
ENDMDL
MODEL 5
REMARK VINA RESULT:      -3.0      1.693      2.506
REMARK  Name = 
REMARK  4 active torsions:
REMARK  status: ('A' for Active; 'I' for Inactive)
REMARK    1  A    between atoms: C_1  and  C_2
REMARK    2  A    between atoms: C_2  and  O_4
REMARK    3  A    between atoms: C_2  and  C_5
REMARK    4  A    between atoms: C_5  and  C_6
REMARK                            x       y       z     vdW  Elec       q    Type
REMARK                         _______ _______ _______ _____ _____    ______ ____
ROOT
ATOM      1  C   UNL     1       9.817   2.573  23.770  0.00  0.00    +0.046 C 
ATOM      2  C   UNL     1      10.147   1.902  22.449  0.00  0.00    +0.177 C 
ENDROOT
BRANCH   2   3
ATOM      3  C   UNL     1      10.100   0.377  22.548  0.00  0.00    +0.158 C 
ATOM      4  O   UNL     1      10.577  -0.213  23.520  0.00  0.00    -0.295 OA
ATOM      5  C   UNL     1       9.398  -0.384  21.450  0.00  0.00    +0.089 C 
ENDBRANCH   2   3
BRANCH   2   6
ATOM      6  O   UNL     1       9.218   2.373  21.475  0.00  0.00    -0.385 OA
ATOM      7  H   UNL     1       8.522   2.852  21.968  0.00  0.00    +0.210 HD
ENDBRANCH   2   6
TORSDOF 2
ENDMDL
MODEL 6
REMARK VINA RESULT:      -2.9      7.420      7.806
REMARK  Name = 
REMARK  4 active torsions:
REMARK  status: ('A' for Active; 'I' for Inactive)
REMARK    1  A    between atoms: C_1  and  C_2
REMARK    2  A    between atoms: C_2  and  O_4
REMARK    3  A    between atoms: C_2  and  C_5
REMARK    4  A    between atoms: C_5  and  C_6
REMARK                            x       y       z     vdW  Elec       q    Type
REMARK                         _______ _______ _______ _____ _____    ______ ____
ROOT
ATOM      1  C   UNL     1       8.041  -5.100  23.743  0.00  0.00    +0.046 C 
ATOM      2  C   UNL     1       8.604  -5.031  25.151  0.00  0.00    +0.177 C 
ENDROOT
BRANCH   2   3
ATOM      3  C   UNL     1       7.569  -5.424  26.207  0.00  0.00    +0.158 C 
ATOM      4  O   UNL     1       7.897  -5.605  27.382  0.00  0.00    -0.295 OA
ATOM      5  C   UNL     1       6.125  -5.526  25.783  0.00  0.00    +0.089 C 
ENDBRANCH   2   3
BRANCH   2   6
ATOM      6  O   UNL     1       9.738  -5.893  25.212  0.00  0.00    -0.385 OA
ATOM      7  H   UNL     1      10.002  -5.934  26.154  0.00  0.00    +0.210 HD
ENDBRANCH   2   6
TORSDOF 2
ENDMDL
MODEL 7
REMARK VINA RESULT:      -2.8      6.981      7.718
REMARK  Name = 
REMARK  4 active torsions:
REMARK  status: ('A' for Active; 'I' for Inactive)
REMARK    1  A    between atoms: C_1  and  C_2
REMARK    2  A    between atoms: C_2  and  O_4
REMARK    3  A    between atoms: C_2  and  C_5
REMARK    4  A    between atoms: C_5  and  C_6
REMARK                            x       y       z     vdW  Elec       q    Type
REMARK                         _______ _______ _______ _____ _____    ______ ____
ROOT
ATOM      1  C   UNL     1       7.110  -3.884  26.474  0.00  0.00    +0.046 C 
ATOM      2  C   UNL     1       7.577  -5.235  25.961  0.00  0.00    +0.177 C 
ENDROOT
BRANCH   2   3
ATOM      3  C   UNL     1       8.431  -5.109  24.698  0.00  0.00    +0.158 C 
ATOM      4  O   UNL     1       9.662  -5.149  24.756  0.00  0.00    -0.295 OA
ATOM      5  C   UNL     1       7.722  -4.997  23.371  0.00  0.00    +0.089 C 
ENDBRANCH   2   3
BRANCH   2   6
ATOM      6  O   UNL     1       8.314  -5.868  27.005  0.00  0.00    -0.385 OA
ATOM      7  H   UNL     1       9.114  -6.246  26.588  0.00  0.00    +0.210 HD
ENDBRANCH   2   6
TORSDOF 2
ENDMDL
MODEL 8
REMARK VINA RESULT:      -2.8      2.020      2.168
REMARK  Name = 
REMARK  4 active torsions:
REMARK  status: ('A' for Active; 'I' for Inactive)
REMARK    1  A    between atoms: C_1  and  C_2
REMARK    2  A    between atoms: C_2  and  O_4
REMARK    3  A    between atoms: C_2  and  C_5
REMARK    4  A    between atoms: C_5  and  C_6
REMARK                            x       y       z     vdW  Elec       q    Type
REMARK                         _______ _______ _______ _____ _____    ______ ____
ROOT
ATOM      1  C   UNL     1       8.713   1.174  21.667  0.00  0.00    +0.046 C 
ATOM      2  C   UNL     1       9.952   0.319  21.863  0.00  0.00    +0.177 C 
ENDROOT
BRANCH   2   3
ATOM      3  C   UNL     1      10.261   0.080  23.342  0.00  0.00    +0.158 C 
ATOM      4  O   UNL     1      10.787   0.956  24.031  0.00  0.00    -0.295 OA
ATOM      5  C   UNL     1       9.848  -1.238  23.949  0.00  0.00    +0.089 C 
ENDBRANCH   2   3
BRANCH   2   6
ATOM      6  O   UNL     1       9.741  -0.919  21.186  0.00  0.00    -0.385 OA
ATOM      7  H   UNL     1       9.089  -1.417  21.720  0.00  0.00    +0.210 HD
ENDBRANCH   2   6
TORSDOF 2
ENDMDL
MODEL 9
REMARK VINA RESULT:      -2.7      1.935      3.170
REMARK  Name = 
REMARK  4 active torsions:
REMARK  status: ('A' for Active; 'I' for Inactive)
REMARK    1  A    between atoms: C_1  and  C_2
REMARK    2  A    between atoms: C_2  and  O_4
REMARK    3  A    between atoms: C_2  and  C_5
REMARK    4  A    between atoms: C_5  and  C_6
REMARK                            x       y       z     vdW  Elec       q    Type
REMARK                         _______ _______ _______ _____ _____    ______ ____
ROOT
ATOM      1  C   UNL     1       9.363   2.368  24.435  0.00  0.00    +0.046 C 
ATOM      2  C   UNL     1       9.563   0.863  24.429  0.00  0.00    +0.177 C 
ENDROOT
BRANCH   2   3
ATOM      3  C   UNL     1      10.033   0.348  23.067  0.00  0.00    +0.158 C 
ATOM      4  O   UNL     1      10.516  -0.780  22.946  0.00  0.00    -0.295 OA
ATOM      5  C   UNL     1       9.833   1.237  21.864  0.00  0.00    +0.089 C 
ENDBRANCH   2   3
BRANCH   2   6
ATOM      6  O   UNL     1      10.513   0.544  25.443  0.00  0.00    -0.385 OA
ATOM      7  H   UNL     1      10.050  -0.034  26.083  0.00  0.00    +0.210 HD
ENDBRANCH   2   6
TORSDOF 2
ENDMDL
