MODEL 1
REMARK VINA RESULT:      -6.2      0.000      0.000
REMARK  Name = 
REMARK  11 active torsions:
REMARK  status: ('A' for Active; 'I' for Inactive)
REMARK    1  A    between atoms: C_2  and  C_3
REMARK    2  A    between atoms: C_2  and  N_7
REMARK    3  A    between atoms: C_2  and  C_17
REMARK    4  A    between atoms: C_3  and  C_4
REMARK    5  A    between atoms: C_4  and  C_5
REMARK    6  A    between atoms: C_4  and  C_6
REMARK    7  A    between atoms: N_7  and  C_8
REMARK    8  A    between atoms: C_8  and  N_10
REMARK    9  A    between atoms: N_10  and  C_11
REMARK   10  A    between atoms: N_19  and  C_20
REMARK   11  A    between atoms: C_24  and  O_26
REMARK                            x       y       z     vdW  Elec       q    Type
REMARK                         _______ _______ _______ _____ _____    ______ ____
ROOT
ATOM      1  C   UNL     1       8.473  -1.588  22.962  0.00  0.00    +0.158 C 
ENDROOT
BRANCH   1   2
ATOM      2  C   UNL     1       8.460  -3.106  23.268  0.00  0.00    +0.234 C 
ATOM      3  N   UNL     1       7.391  -3.800  22.739  0.00  0.00    -0.309 N 
ATOM      4  H   UNL     1       6.845  -3.374  21.993  0.00  0.00    +0.149 HD
ATOM      5  O   UNL     1       9.286  -3.637  24.012  0.00  0.00    -0.274 OA
BRANCH   3   6
ATOM      6  C   UNL     1       7.265  -5.250  22.883  0.00  0.00    +0.103 C 
ATOM      7  C   UNL     1       6.045  -5.617  23.703  0.00  0.00    +0.085 C 
ATOM      8  C   UNL     1       4.931  -5.524  22.676  0.00  0.00    +0.249 C 
ATOM      9  O   UNL     1       5.497  -5.839  21.405  0.00  0.00    -0.350 OA
ATOM     10  C   UNL     1       6.928  -5.925  21.558  0.00  0.00    +0.185 C 
BRANCH   8  11
ATOM     11  O   UNL     1       4.452  -4.191  22.627  0.00  0.00    -0.367 OA
ATOM     12  H   UNL     1       3.614  -4.251  22.134  0.00  0.00    +0.212 HD
ENDBRANCH   8  11
ENDBRANCH   3   6
ENDBRANCH   1   2
BRANCH   1  13
ATOM     13  N   UNL     1       7.068  -1.183  23.028  0.00  0.00    -0.315 N 
ATOM     14  H   UNL     1       6.562  -1.222  22.146  0.00  0.00    +0.148 HD
BRANCH  13  15
ATOM     15  C   UNL     1       6.365  -0.672  24.085  0.00  0.00    +0.135 C 
ATOM     16  S   UNL     1       6.006  -1.470  25.500  0.00  0.00    -0.019 S 
BRANCH  15  17
ATOM     17  N   UNL     1       5.901   0.605  23.881  0.00  0.00    -0.297 N 
ATOM     18  H   UNL     1       4.917   0.762  24.074  0.00  0.00    +0.154 HD
BRANCH  17  19
ATOM     19  C   UNL     1       6.701   1.757  23.703  0.00  0.00    +0.033 A 
ATOM     20  C   UNL     1       7.492   2.272  24.738  0.00  0.00    +0.023 A 
ATOM     21  C   UNL     1       8.288   3.396  24.545  0.00  0.00    +0.002 A 
ATOM     22  C   UNL     1       8.295   4.024  23.306  0.00  0.00    +0.000 A 
ATOM     23  C   UNL     1       7.484   3.542  22.277  0.00  0.00    +0.002 A 
ATOM     24  C   UNL     1       6.673   2.422  22.479  0.00  0.00    +0.023 A 
ENDBRANCH  17  19
ENDBRANCH  15  17
ENDBRANCH  13  15
ENDBRANCH   1  13
BRANCH   1  25
ATOM     25  C   UNL     1       9.327  -0.836  23.987  0.00  0.00    +0.034 C 
BRANCH  25  26
ATOM     26  C   UNL     1      10.456   0.008  23.363  0.00  0.00    -0.015 C 
ATOM     27  C   UNL     1      11.015   0.975  24.408  0.00  0.00    +0.007 C 
ATOM     28  C   UNL     1       9.990   0.785  22.131  0.00  0.00    +0.007 C 
ENDBRANCH  25  26
ENDBRANCH   1  25
TORSDOF 9
ENDMDL
MODEL 2
REMARK VINA RESULT:      -5.9      1.631      2.549
REMARK  Name = 
REMARK  11 active torsions:
REMARK  status: ('A' for Active; 'I' for Inactive)
REMARK    1  A    between atoms: C_2  and  C_3
REMARK    2  A    between atoms: C_2  and  N_7
REMARK    3  A    between atoms: C_2  and  C_17
REMARK    4  A    between atoms: C_3  and  C_4
REMARK    5  A    between atoms: C_4  and  C_5
REMARK    6  A    between atoms: C_4  and  C_6
REMARK    7  A    between atoms: N_7  and  C_8
REMARK    8  A    between atoms: C_8  and  N_10
REMARK    9  A    between atoms: N_10  and  C_11
REMARK   10  A    between atoms: N_19  and  C_20
REMARK   11  A    between atoms: C_24  and  O_26
REMARK                            x       y       z     vdW  Elec       q    Type
REMARK                         _______ _______ _______ _____ _____    ______ ____
ROOT
ATOM      1  C   UNL     1       7.932  -1.360  22.769  0.00  0.00    +0.158 C 
ENDROOT
BRANCH   1   2
ATOM      2  C   UNL     1       7.777  -2.899  22.850  0.00  0.00    +0.234 C 
ATOM      3  N   UNL     1       8.300  -3.481  23.987  0.00  0.00    -0.309 N 
ATOM      4  H   UNL     1       8.502  -2.895  24.794  0.00  0.00    +0.149 HD
ATOM      5  O   UNL     1       7.313  -3.565  21.922  0.00  0.00    -0.274 OA
BRANCH   3   6
ATOM      6  C   UNL     1       8.179  -4.915  24.243  0.00  0.00    +0.103 C 
ATOM      7  C   UNL     1       9.155  -5.367  25.310  0.00  0.00    +0.085 C 
ATOM      8  C   UNL     1       8.433  -4.978  26.588  0.00  0.00    +0.249 C 
ATOM      9  O   UNL     1       7.033  -5.048  26.324  0.00  0.00    -0.350 OA
ATOM     10  C   UNL     1       6.852  -5.263  24.910  0.00  0.00    +0.185 C 
BRANCH   8  11
ATOM     11  O   UNL     1       8.754  -3.636  26.914  0.00  0.00    -0.367 OA
ATOM     12  H   UNL     1       8.439  -3.118  26.153  0.00  0.00    +0.212 HD
ENDBRANCH   8  11
ENDBRANCH   3   6
ENDBRANCH   1   2
BRANCH   1  13
ATOM     13  N   UNL     1       6.592  -0.836  23.037  0.00  0.00    -0.315 N 
ATOM     14  H   UNL     1       5.979  -0.775  22.227  0.00  0.00    +0.148 HD
BRANCH  13  15
ATOM     15  C   UNL     1       6.079  -0.332  24.201  0.00  0.00    +0.135 C 
ATOM     16  S   UNL     1       5.764  -1.195  25.588  0.00  0.00    -0.019 S 
BRANCH  15  17
ATOM     17  N   UNL     1       5.773   1.007  24.142  0.00  0.00    -0.297 N 
ATOM     18  H   UNL     1       4.864   1.277  24.502  0.00  0.00    +0.154 HD
BRANCH  17  19
ATOM     19  C   UNL     1       6.690   2.053  23.893  0.00  0.00    +0.033 A 
ATOM     20  C   UNL     1       6.726   2.725  22.664  0.00  0.00    +0.023 A 
ATOM     21  C   UNL     1       7.622   3.764  22.437  0.00  0.00    +0.002 A 
ATOM     22  C   UNL     1       8.502   4.140  23.444  0.00  0.00    +0.000 A 
ATOM     23  C   UNL     1       8.501   3.456  24.660  0.00  0.00    +0.002 A 
ATOM     24  C   UNL     1       7.610   2.400  24.880  0.00  0.00    +0.023 A 
ENDBRANCH  17  19
ENDBRANCH  15  17
ENDBRANCH  13  15
ENDBRANCH   1  13
BRANCH   1  25
ATOM     25  C   UNL     1       8.950  -0.863  23.800  0.00  0.00    +0.034 C 
BRANCH  25  26
ATOM     26  C   UNL     1      10.177  -0.164  23.182  0.00  0.00    -0.015 C 
ATOM     27  C   UNL     1      10.879   0.682  24.246  0.00  0.00    +0.007 C 
ATOM     28  C   UNL     1       9.808   0.709  21.983  0.00  0.00    +0.007 C 
ENDBRANCH  25  26
ENDBRANCH   1  25
TORSDOF 9
ENDMDL
MODEL 3
REMARK VINA RESULT:      -5.7      2.942      6.479
REMARK  Name = 
REMARK  11 active torsions:
REMARK  status: ('A' for Active; 'I' for Inactive)
REMARK    1  A    between atoms: C_2  and  C_3
REMARK    2  A    between atoms: C_2  and  N_7
REMARK    3  A    between atoms: C_2  and  C_17
REMARK    4  A    between atoms: C_3  and  C_4
REMARK    5  A    between atoms: C_4  and  C_5
REMARK    6  A    between atoms: C_4  and  C_6
REMARK    7  A    between atoms: N_7  and  C_8
REMARK    8  A    between atoms: C_8  and  N_10
REMARK    9  A    between atoms: N_10  and  C_11
REMARK   10  A    between atoms: N_19  and  C_20
REMARK   11  A    between atoms: C_24  and  O_26
REMARK                            x       y       z     vdW  Elec       q    Type
REMARK                         _______ _______ _______ _____ _____    ______ ____
ROOT
ATOM      1  C   UNL     1       8.487  -2.747  23.655  0.00  0.00    +0.158 C 
ENDROOT
BRANCH   1   2
ATOM      2  C   UNL     1       9.555  -1.708  23.232  0.00  0.00    +0.234 C 
ATOM      3  N   UNL     1       9.234  -0.395  23.510  0.00  0.00    -0.309 N 
ATOM      4  H   UNL     1       8.495  -0.197  24.180  0.00  0.00    +0.149 HD
ATOM      5  O   UNL     1      10.567  -2.020  22.604  0.00  0.00    -0.274 OA
BRANCH   3   6
ATOM      6  C   UNL     1      10.162   0.701  23.231  0.00  0.00    +0.103 C 
ATOM      7  C   UNL     1       9.861   1.349  21.895  0.00  0.00    +0.085 C 
ATOM      8  C   UNL     1       8.714   2.280  22.245  0.00  0.00    +0.249 C 
ATOM      9  O   UNL     1       8.881   2.670  23.606  0.00  0.00    -0.350 OA
ATOM     10  C   UNL     1       9.947   1.881  24.172  0.00  0.00    +0.185 C 
BRANCH   8  11
ATOM     11  O   UNL     1       7.490   1.573  22.136  0.00  0.00    -0.367 OA
ATOM     12  H   UNL     1       6.989   1.829  22.930  0.00  0.00    +0.212 HD
ENDBRANCH   8  11
ENDBRANCH   3   6
ENDBRANCH   1   2
BRANCH   1  13
ATOM     13  N   UNL     1       7.912  -3.225  22.396  0.00  0.00    -0.315 N 
ATOM     14  H   UNL     1       8.266  -2.772  21.557  0.00  0.00    +0.148 HD
BRANCH  13  15
ATOM     15  C   UNL     1       6.904  -4.127  22.195  0.00  0.00    +0.135 C 
ATOM     16  S   UNL     1       7.089  -5.733  21.799  0.00  0.00    -0.019 S 
BRANCH  15  17
ATOM     17  N   UNL     1       5.644  -3.587  22.299  0.00  0.00    -0.297 N 
ATOM     18  H   UNL     1       5.227  -3.248  21.437  0.00  0.00    +0.154 HD
BRANCH  17  19
ATOM     19  C   UNL     1       4.782  -3.710  23.412  0.00  0.00    +0.033 A 
ATOM     20  C   UNL     1       3.796  -4.704  23.475  0.00  0.00    +0.023 A 
ATOM     21  C   UNL     1       2.965  -4.825  24.583  0.00  0.00    +0.002 A 
ATOM     22  C   UNL     1       3.109  -3.941  25.645  0.00  0.00    +0.000 A 
ATOM     23  C   UNL     1       4.062  -2.924  25.580  0.00  0.00    +0.002 A 
ATOM     24  C   UNL     1       4.886  -2.794  24.457  0.00  0.00    +0.023 A 
ENDBRANCH  17  19
ENDBRANCH  15  17
ENDBRANCH  13  15
ENDBRANCH   1  13
BRANCH   1  25
ATOM     25  C   UNL     1       9.126  -3.887  24.453  0.00  0.00    +0.034 C 
BRANCH  25  26
ATOM     26  C   UNL     1       8.510  -4.096  25.851  0.00  0.00    -0.015 C 
ATOM     27  C   UNL     1       7.400  -5.146  25.773  0.00  0.00    +0.007 C 
ATOM     28  C   UNL     1       7.958  -2.799  26.444  0.00  0.00    +0.007 C 
ENDBRANCH  25  26
ENDBRANCH   1  25
TORSDOF 9
ENDMDL
MODEL 4
REMARK VINA RESULT:      -5.7      2.295      3.814
REMARK  Name = 
REMARK  11 active torsions:
REMARK  status: ('A' for Active; 'I' for Inactive)
REMARK    1  A    between atoms: C_2  and  C_3
REMARK    2  A    between atoms: C_2  and  N_7
REMARK    3  A    between atoms: C_2  and  C_17
REMARK    4  A    between atoms: C_3  and  C_4
REMARK    5  A    between atoms: C_4  and  C_5
REMARK    6  A    between atoms: C_4  and  C_6
REMARK    7  A    between atoms: N_7  and  C_8
REMARK    8  A    between atoms: C_8  and  N_10
REMARK    9  A    between atoms: N_10  and  C_11
REMARK   10  A    between atoms: N_19  and  C_20
REMARK   11  A    between atoms: C_24  and  O_26
REMARK                            x       y       z     vdW  Elec       q    Type
REMARK                         _______ _______ _______ _____ _____    ______ ____
ROOT
ATOM      1  C   UNL     1       6.701  -2.273  23.729  0.00  0.00    +0.158 C 
ENDROOT
BRANCH   1   2
ATOM      2  C   UNL     1       5.615  -3.284  23.285  0.00  0.00    +0.234 C 
ATOM      3  N   UNL     1       5.226  -4.187  24.253  0.00  0.00    -0.309 N 
ATOM      4  H   UNL     1       5.444  -3.992  25.228  0.00  0.00    +0.149 HD
ATOM      5  O   UNL     1       5.203  -3.344  22.125  0.00  0.00    -0.274 OA
BRANCH   3   6
ATOM      6  C   UNL     1       4.166  -5.166  24.013  0.00  0.00    +0.103 C 
ATOM      7  C   UNL     1       4.686  -6.582  24.145  0.00  0.00    +0.085 C 
ATOM      8  C   UNL     1       4.669  -6.788  25.649  0.00  0.00    +0.249 C 
ATOM      9  O   UNL     1       3.616  -5.985  26.178  0.00  0.00    -0.350 OA
ATOM     10  C   UNL     1       3.114  -5.147  25.117  0.00  0.00    +0.185 C 
BRANCH   8  11
ATOM     11  O   UNL     1       5.893  -6.327  26.196  0.00  0.00    -0.367 OA
ATOM     12  H   UNL     1       6.022  -5.448  25.799  0.00  0.00    +0.212 HD
ENDBRANCH   8  11
ENDBRANCH   3   6
ENDBRANCH   1   2
BRANCH   1  13
ATOM     13  N   UNL     1       7.952  -2.810  23.191  0.00  0.00    -0.315 N 
ATOM     14  H   UNL     1       7.918  -3.098  22.216  0.00  0.00    +0.148 HD
BRANCH  13  15
ATOM     15  C   UNL     1       9.131  -3.063  23.837  0.00  0.00    +0.135 C 
ATOM     16  S   UNL     1       9.357  -4.158  25.070  0.00  0.00    -0.019 S 
BRANCH  15  17
ATOM     17  N   UNL     1      10.177  -2.277  23.418  0.00  0.00    -0.297 N 
ATOM     18  H   UNL     1      10.944  -2.757  22.957  0.00  0.00    +0.154 HD
BRANCH  17  19
ATOM     19  C   UNL     1      10.162  -0.867  23.317  0.00  0.00    +0.033 A 
ATOM     20  C   UNL     1      10.346  -0.046  24.437  0.00  0.00    +0.023 A 
ATOM     21  C   UNL     1      10.345   1.340  24.322  0.00  0.00    +0.002 A 
ATOM     22  C   UNL     1      10.154   1.922  23.075  0.00  0.00    +0.000 A 
ATOM     23  C   UNL     1       9.934   1.117  21.957  0.00  0.00    +0.002 A 
ATOM     24  C   UNL     1       9.919  -0.277  22.079  0.00  0.00    +0.023 A 
ENDBRANCH  17  19
ENDBRANCH  15  17
ENDBRANCH  13  15
ENDBRANCH   1  13
BRANCH   1  25
ATOM     25  C   UNL     1       6.400  -0.877  23.176  0.00  0.00    +0.034 C 
BRANCH  25  26
ATOM     26  C   UNL     1       6.194   0.196  24.264  0.00  0.00    -0.015 C 
ATOM     27  C   UNL     1       6.605   1.566  23.721  0.00  0.00    +0.007 C 
ATOM     28  C   UNL     1       6.975  -0.112  25.543  0.00  0.00    +0.007 C 
ENDBRANCH  25  26
ENDBRANCH   1  25
TORSDOF 9
ENDMDL
MODEL 5
REMARK VINA RESULT:      -5.6      3.010      6.762
REMARK  Name = 
REMARK  11 active torsions:
REMARK  status: ('A' for Active; 'I' for Inactive)
REMARK    1  A    between atoms: C_2  and  C_3
REMARK    2  A    between atoms: C_2  and  N_7
REMARK    3  A    between atoms: C_2  and  C_17
REMARK    4  A    between atoms: C_3  and  C_4
REMARK    5  A    between atoms: C_4  and  C_5
REMARK    6  A    between atoms: C_4  and  C_6
REMARK    7  A    between atoms: N_7  and  C_8
REMARK    8  A    between atoms: C_8  and  N_10
REMARK    9  A    between atoms: N_10  and  C_11
REMARK   10  A    between atoms: N_19  and  C_20
REMARK   11  A    between atoms: C_24  and  O_26
REMARK                            x       y       z     vdW  Elec       q    Type
REMARK                         _______ _______ _______ _____ _____    ______ ____
ROOT
ATOM      1  C   UNL     1       8.711  -2.748  23.428  0.00  0.00    +0.158 C 
ENDROOT
BRANCH   1   2
ATOM      2  C   UNL     1       9.696  -1.620  23.034  0.00  0.00    +0.234 C 
ATOM      3  N   UNL     1       9.320  -0.352  23.429  0.00  0.00    -0.309 N 
ATOM      4  H   UNL     1       8.609  -0.249  24.150  0.00  0.00    +0.149 HD
ATOM      5  O   UNL     1      10.688  -1.824  22.332  0.00  0.00    -0.274 OA
BRANCH   3   6
ATOM      6  C   UNL     1      10.170   0.813  23.190  0.00  0.00    +0.103 C 
ATOM      7  C   UNL     1       9.834   1.477  21.870  0.00  0.00    +0.085 C 
ATOM      8  C   UNL     1       8.622   2.315  22.235  0.00  0.00    +0.249 C 
ATOM      9  O   UNL     1       8.751   2.676  23.608  0.00  0.00    -0.350 OA
ATOM     10  C   UNL     1       9.865   1.948  24.162  0.00  0.00    +0.185 C 
BRANCH   8  11
ATOM     11  O   UNL     1       7.452   1.527  22.094  0.00  0.00    -0.367 OA
ATOM     12  H   UNL     1       7.775   0.667  21.773  0.00  0.00    +0.212 HD
ENDBRANCH   8  11
ENDBRANCH   3   6
ENDBRANCH   1   2
BRANCH   1  13
ATOM     13  N   UNL     1       8.779  -2.809  24.889  0.00  0.00    -0.315 N 
ATOM     14  H   UNL     1       8.934  -1.918  25.355  0.00  0.00    +0.148 HD
BRANCH  13  15
ATOM     15  C   UNL     1       8.757  -3.904  25.709  0.00  0.00    +0.135 C 
ATOM     16  S   UNL     1       9.829  -5.177  25.674  0.00  0.00    -0.019 S 
BRANCH  15  17
ATOM     17  N   UNL     1       7.703  -3.919  26.591  0.00  0.00    -0.297 N 
ATOM     18  H   UNL     1       7.843  -3.428  27.468  0.00  0.00    +0.154 HD
BRANCH  17  19
ATOM     19  C   UNL     1       6.378  -4.304  26.287  0.00  0.00    +0.033 A 
ATOM     20  C   UNL     1       6.062  -5.610  25.889  0.00  0.00    +0.023 A 
ATOM     21  C   UNL     1       4.752  -5.980  25.609  0.00  0.00    +0.002 A 
ATOM     22  C   UNL     1       3.736  -5.039  25.719  0.00  0.00    +0.000 A 
ATOM     23  C   UNL     1       4.041  -3.725  26.080  0.00  0.00    +0.002 A 
ATOM     24  C   UNL     1       5.363  -3.351  26.345  0.00  0.00    +0.023 A 
ENDBRANCH  17  19
ENDBRANCH  15  17
ENDBRANCH  13  15
ENDBRANCH   1  13
BRANCH   1  25
ATOM     25  C   UNL     1       7.295  -2.427  22.941  0.00  0.00    +0.034 C 
BRANCH  25  26
ATOM     26  C   UNL     1       6.615  -3.585  22.185  0.00  0.00    -0.015 C 
ATOM     27  C   UNL     1       5.139  -3.662  22.578  0.00  0.00    +0.007 C 
ATOM     28  C   UNL     1       7.294  -4.931  22.446  0.00  0.00    +0.007 C 
ENDBRANCH  25  26
ENDBRANCH   1  25
TORSDOF 9
ENDMDL
MODEL 6
REMARK VINA RESULT:      -5.6      3.129      5.159
REMARK  Name = 
REMARK  11 active torsions:
REMARK  status: ('A' for Active; 'I' for Inactive)
REMARK    1  A    between atoms: C_2  and  C_3
REMARK    2  A    between atoms: C_2  and  N_7
REMARK    3  A    between atoms: C_2  and  C_17
REMARK    4  A    between atoms: C_3  and  C_4
REMARK    5  A    between atoms: C_4  and  C_5
REMARK    6  A    between atoms: C_4  and  C_6
REMARK    7  A    between atoms: N_7  and  C_8
REMARK    8  A    between atoms: C_8  and  N_10
REMARK    9  A    between atoms: N_10  and  C_11
REMARK   10  A    between atoms: N_19  and  C_20
REMARK   11  A    between atoms: C_24  and  O_26
REMARK                            x       y       z     vdW  Elec       q    Type
REMARK                         _______ _______ _______ _____ _____    ______ ____
ROOT
ATOM      1  C   UNL     1       6.809  -3.903  24.394  0.00  0.00    +0.158 C 
ENDROOT
BRANCH   1   2
ATOM      2  C   UNL     1       5.672  -4.583  25.195  0.00  0.00    +0.234 C 
ATOM      3  N   UNL     1       5.811  -4.529  26.567  0.00  0.00    -0.309 N 
ATOM      4  H   UNL     1       6.458  -3.856  26.973  0.00  0.00    +0.149 HD
ATOM      5  O   UNL     1       4.765  -5.213  24.649  0.00  0.00    -0.274 OA
BRANCH   3   6
ATOM      6  C   UNL     1       4.792  -5.069  27.467  0.00  0.00    +0.103 C 
ATOM      7  C   UNL     1       5.045  -6.532  27.768  0.00  0.00    +0.085 C 
ATOM      8  C   UNL     1       6.103  -6.456  28.854  0.00  0.00    +0.249 C 
ATOM      9  O   UNL     1       5.892  -5.240  29.570  0.00  0.00    -0.350 OA
ATOM     10  C   UNL     1       4.896  -4.471  28.866  0.00  0.00    +0.185 C 
BRANCH   8  11
ATOM     11  O   UNL     1       7.385  -6.397  28.252  0.00  0.00    -0.367 OA
ATOM     12  H   UNL     1       7.208  -6.157  27.325  0.00  0.00    +0.212 HD
ENDBRANCH   8  11
ENDBRANCH   3   6
ENDBRANCH   1   2
BRANCH   1  13
ATOM     13  N   UNL     1       7.763  -3.451  25.409  0.00  0.00    -0.315 N 
ATOM     14  H   UNL     1       7.937  -4.108  26.165  0.00  0.00    +0.148 HD
BRANCH  13  15
ATOM     15  C   UNL     1       8.380  -2.236  25.534  0.00  0.00    +0.135 C 
ATOM     16  S   UNL     1       7.918  -1.002  26.549  0.00  0.00    -0.019 S 
BRANCH  15  17
ATOM     17  N   UNL     1       9.445  -2.062  24.682  0.00  0.00    -0.297 N 
ATOM     18  H   UNL     1      10.081  -2.848  24.591  0.00  0.00    +0.154 HD
BRANCH  17  19
ATOM     19  C   UNL     1       9.582  -1.025  23.732  0.00  0.00    +0.033 A 
ATOM     20  C   UNL     1       9.103  -1.158  22.422  0.00  0.00    +0.023 A 
ATOM     21  C   UNL     1       9.229  -0.123  21.501  0.00  0.00    +0.002 A 
ATOM     22  C   UNL     1       9.845   1.061  21.884  0.00  0.00    +0.000 A 
ATOM     23  C   UNL     1      10.359   1.194  23.175  0.00  0.00    +0.002 A 
ATOM     24  C   UNL     1      10.245   0.145  24.094  0.00  0.00    +0.023 A 
ENDBRANCH  17  19
ENDBRANCH  15  17
ENDBRANCH  13  15
ENDBRANCH   1  13
BRANCH   1  25
ATOM     25  C   UNL     1       7.451  -4.892  23.416  0.00  0.00    +0.034 C 
BRANCH  25  26
ATOM     26  C   UNL     1       7.033  -4.681  21.948  0.00  0.00    -0.015 C 
ATOM     27  C   UNL     1       6.177  -3.418  21.831  0.00  0.00    +0.007 C 
ATOM     28  C   UNL     1       6.271  -5.880  21.380  0.00  0.00    +0.007 C 
ENDBRANCH  25  26
ENDBRANCH   1  25
TORSDOF 9
ENDMDL
MODEL 7
REMARK VINA RESULT:      -5.6      2.803      4.382
REMARK  Name = 
REMARK  11 active torsions:
REMARK  status: ('A' for Active; 'I' for Inactive)
REMARK    1  A    between atoms: C_2  and  C_3
REMARK    2  A    between atoms: C_2  and  N_7
REMARK    3  A    between atoms: C_2  and  C_17
REMARK    4  A    between atoms: C_3  and  C_4
REMARK    5  A    between atoms: C_4  and  C_5
REMARK    6  A    between atoms: C_4  and  C_6
REMARK    7  A    between atoms: N_7  and  C_8
REMARK    8  A    between atoms: C_8  and  N_10
REMARK    9  A    between atoms: N_10  and  C_11
REMARK   10  A    between atoms: N_19  and  C_20
REMARK   11  A    between atoms: C_24  and  O_26
REMARK                            x       y       z     vdW  Elec       q    Type
REMARK                         _______ _______ _______ _____ _____    ______ ____
ROOT
ATOM      1  C   UNL     1       6.835  -1.344  25.217  0.00  0.00    +0.158 C 
ENDROOT
BRANCH   1   2
ATOM      2  C   UNL     1       5.706  -2.331  25.603  0.00  0.00    +0.234 C 
ATOM      3  N   UNL     1       6.089  -3.358  26.442  0.00  0.00    -0.309 N 
ATOM      4  H   UNL     1       6.962  -3.275  26.959  0.00  0.00    +0.149 HD
ATOM      5  O   UNL     1       4.576  -2.265  25.117  0.00  0.00    -0.274 OA
BRANCH   3   6
ATOM      6  C   UNL     1       5.129  -4.337  26.950  0.00  0.00    +0.103 C 
ATOM      7  C   UNL     1       5.594  -5.753  26.682  0.00  0.00    +0.085 C 
ATOM      8  C   UNL     1       6.578  -5.985  27.815  0.00  0.00    +0.249 C 
ATOM      9  O   UNL     1       6.147  -5.195  28.921  0.00  0.00    -0.350 OA
ATOM     10  C   UNL     1       5.075  -4.341  28.474  0.00  0.00    +0.185 C 
BRANCH   8  11
ATOM     11  O   UNL     1       7.860  -5.528  27.419  0.00  0.00    -0.367 OA
ATOM     12  H   UNL     1       7.988  -5.903  26.530  0.00  0.00    +0.212 HD
ENDBRANCH   8  11
ENDBRANCH   3   6
ENDBRANCH   1   2
BRANCH   1  13
ATOM     13  N   UNL     1       7.943  -2.197  24.781  0.00  0.00    -0.315 N 
ATOM     14  H   UNL     1       8.544  -2.542  25.525  0.00  0.00    +0.148 HD
BRANCH  13  15
ATOM     15  C   UNL     1       8.337  -2.518  23.511  0.00  0.00    +0.135 C 
ATOM     16  S   UNL     1       7.537  -3.535  22.464  0.00  0.00    -0.019 S 
BRANCH  15  17
ATOM     17  N   UNL     1       9.534  -1.954  23.139  0.00  0.00    -0.297 N 
ATOM     18  H   UNL     1      10.197  -2.569  22.678  0.00  0.00    +0.154 HD
BRANCH  17  19
ATOM     19  C   UNL     1       9.814  -0.570  23.086  0.00  0.00    +0.033 A 
ATOM     20  C   UNL     1      10.378   0.111  24.173  0.00  0.00    +0.023 A 
ATOM     21  C   UNL     1      10.664   1.470  24.102  0.00  0.00    +0.002 A 
ATOM     22  C   UNL     1      10.380   2.168  22.935  0.00  0.00    +0.000 A 
ATOM     23  C   UNL     1       9.784   1.511  21.858  0.00  0.00    +0.002 A 
ATOM     24  C   UNL     1       9.483   0.147  21.938  0.00  0.00    +0.023 A 
ENDBRANCH  17  19
ENDBRANCH  15  17
ENDBRANCH  13  15
ENDBRANCH   1  13
BRANCH   1  25
ATOM     25  C   UNL     1       6.374  -0.403  24.100  0.00  0.00    +0.034 C 
BRANCH  25  26
ATOM     26  C   UNL     1       6.239   1.069  24.539  0.00  0.00    -0.015 C 
ATOM     27  C   UNL     1       6.480   1.989  23.340  0.00  0.00    +0.007 C 
ATOM     28  C   UNL     1       7.199   1.430  25.673  0.00  0.00    +0.007 C 
ENDBRANCH  25  26
ENDBRANCH   1  25
TORSDOF 9
ENDMDL
MODEL 8
REMARK VINA RESULT:      -5.5      2.235      4.225
REMARK  Name = 
REMARK  11 active torsions:
REMARK  status: ('A' for Active; 'I' for Inactive)
REMARK    1  A    between atoms: C_2  and  C_3
REMARK    2  A    between atoms: C_2  and  N_7
REMARK    3  A    between atoms: C_2  and  C_17
REMARK    4  A    between atoms: C_3  and  C_4
REMARK    5  A    between atoms: C_4  and  C_5
REMARK    6  A    between atoms: C_4  and  C_6
REMARK    7  A    between atoms: N_7  and  C_8
REMARK    8  A    between atoms: C_8  and  N_10
REMARK    9  A    between atoms: N_10  and  C_11
REMARK   10  A    between atoms: N_19  and  C_20
REMARK   11  A    between atoms: C_24  and  O_26
REMARK                            x       y       z     vdW  Elec       q    Type
REMARK                         _______ _______ _______ _____ _____    ______ ____
ROOT
ATOM      1  C   UNL     1       8.025  -3.923  26.185  0.00  0.00    +0.158 C 
ENDROOT
BRANCH   1   2
ATOM      2  C   UNL     1       8.348  -4.008  24.673  0.00  0.00    +0.234 C 
ATOM      3  N   UNL     1       7.250  -4.148  23.848  0.00  0.00    -0.309 N 
ATOM      4  H   UNL     1       6.326  -3.928  24.212  0.00  0.00    +0.149 HD
ATOM      5  O   UNL     1       9.502  -4.049  24.245  0.00  0.00    -0.274 OA
BRANCH   3   6
ATOM      6  C   UNL     1       7.379  -4.180  22.392  0.00  0.00    +0.103 C 
ATOM      7  C   UNL     1       7.362  -5.602  21.869  0.00  0.00    +0.085 C 
ATOM      8  C   UNL     1       5.876  -5.912  21.841  0.00  0.00    +0.249 C 
ATOM      9  O   UNL     1       5.188  -4.684  21.615  0.00  0.00    -0.350 OA
ATOM     10  C   UNL     1       6.146  -3.610  21.700  0.00  0.00    +0.185 C 
BRANCH   8  11
ATOM     11  O   UNL     1       5.481  -6.412  23.108  0.00  0.00    -0.367 OA
ATOM     12  H   UNL     1       4.517  -6.278  23.133  0.00  0.00    +0.212 HD
ENDBRANCH   8  11
ENDBRANCH   3   6
ENDBRANCH   1   2
BRANCH   1  13
ATOM     13  N   UNL     1       8.403  -2.561  26.571  0.00  0.00    -0.315 N 
ATOM     14  H   UNL     1       8.816  -2.471  27.496  0.00  0.00    +0.148 HD
BRANCH  13  15
ATOM     15  C   UNL     1       8.194  -1.386  25.903  0.00  0.00    +0.135 C 
ATOM     16  S   UNL     1       6.718  -0.758  25.461  0.00  0.00    -0.019 S 
BRANCH  15  17
ATOM     17  N   UNL     1       9.351  -0.732  25.551  0.00  0.00    -0.297 N 
ATOM     18  H   UNL     1      10.180  -0.965  26.087  0.00  0.00    +0.154 HD
BRANCH  17  19
ATOM     19  C   UNL     1       9.553   0.005  24.362  0.00  0.00    +0.033 A 
ATOM     20  C   UNL     1       9.731   1.395  24.378  0.00  0.00    +0.023 A 
ATOM     21  C   UNL     1       9.946   2.107  23.203  0.00  0.00    +0.002 A 
ATOM     22  C   UNL     1       9.980   1.431  21.990  0.00  0.00    +0.000 A 
ATOM     23  C   UNL     1       9.768   0.051  21.956  0.00  0.00    +0.002 A 
ATOM     24  C   UNL     1       9.536  -0.660  23.138  0.00  0.00    +0.023 A 
ENDBRANCH  17  19
ENDBRANCH  15  17
ENDBRANCH  13  15
ENDBRANCH   1  13
BRANCH   1  25
ATOM     25  C   UNL     1       6.539  -4.190  26.439  0.00  0.00    +0.034 C 
BRANCH  25  26
ATOM     26  C   UNL     1       6.228  -5.635  26.877  0.00  0.00    -0.015 C 
ATOM     27  C   UNL     1       4.799  -6.001  26.473  0.00  0.00    +0.007 C 
ATOM     28  C   UNL     1       6.413  -5.841  28.381  0.00  0.00    +0.007 C 
ENDBRANCH  25  26
ENDBRANCH   1  25
TORSDOF 9
ENDMDL
MODEL 9
REMARK VINA RESULT:      -5.5      2.082      3.343
REMARK  Name = 
REMARK  11 active torsions:
REMARK  status: ('A' for Active; 'I' for Inactive)
REMARK    1  A    between atoms: C_2  and  C_3
REMARK    2  A    between atoms: C_2  and  N_7
REMARK    3  A    between atoms: C_2  and  C_17
REMARK    4  A    between atoms: C_3  and  C_4
REMARK    5  A    between atoms: C_4  and  C_5
REMARK    6  A    between atoms: C_4  and  C_6
REMARK    7  A    between atoms: N_7  and  C_8
REMARK    8  A    between atoms: C_8  and  N_10
REMARK    9  A    between atoms: N_10  and  C_11
REMARK   10  A    between atoms: N_19  and  C_20
REMARK   11  A    between atoms: C_24  and  O_26
REMARK                            x       y       z     vdW  Elec       q    Type
REMARK                         _______ _______ _______ _____ _____    ______ ____
ROOT
ATOM      1  C   UNL     1       6.421  -2.265  22.969  0.00  0.00    +0.158 C 
ENDROOT
BRANCH   1   2
ATOM      2  C   UNL     1       5.413  -3.438  23.048  0.00  0.00    +0.234 C 
ATOM      3  N   UNL     1       5.191  -3.932  24.317  0.00  0.00    -0.309 N 
ATOM      4  H   UNL     1       5.461  -3.371  25.121  0.00  0.00    +0.149 HD
ATOM      5  O   UNL     1       4.925  -3.957  22.043  0.00  0.00    -0.274 OA
BRANCH   3   6
ATOM      6  C   UNL     1       4.220  -4.997  24.569  0.00  0.00    +0.103 C 
ATOM      7  C   UNL     1       4.907  -6.337  24.739  0.00  0.00    +0.085 C 
ATOM      8  C   UNL     1       5.366  -6.279  26.184  0.00  0.00    +0.249 C 
ATOM      9  O   UNL     1       4.440  -5.458  26.893  0.00  0.00    -0.350 OA
ATOM     10  C   UNL     1       3.554  -4.847  25.933  0.00  0.00    +0.185 C 
BRANCH   8  11
ATOM     11  O   UNL     1       6.640  -5.660  26.244  0.00  0.00    -0.367 OA
ATOM     12  H   UNL     1       6.600  -5.097  27.037  0.00  0.00    +0.212 HD
ENDBRANCH   8  11
ENDBRANCH   3   6
ENDBRANCH   1   2
BRANCH   1  13
ATOM     13  N   UNL     1       6.347  -1.621  24.282  0.00  0.00    -0.315 N 
ATOM     14  H   UNL     1       6.483  -2.239  25.078  0.00  0.00    +0.148 HD
BRANCH  13  15
ATOM     15  C   UNL     1       6.031  -0.326  24.591  0.00  0.00    +0.135 C 
ATOM     16  S   UNL     1       5.241   0.189  25.962  0.00  0.00    -0.019 S 
BRANCH  15  17
ATOM     17  N   UNL     1       6.382   0.581  23.620  0.00  0.00    -0.297 N 
ATOM     18  H   UNL     1       5.622   1.108  23.202  0.00  0.00    +0.154 HD
BRANCH  17  19
ATOM     19  C   UNL     1       7.692   1.039  23.354  0.00  0.00    +0.033 A 
ATOM     20  C   UNL     1       8.192   1.123  22.048  0.00  0.00    +0.023 A 
ATOM     21  C   UNL     1       9.477   1.591  21.797  0.00  0.00    +0.002 A 
ATOM     22  C   UNL     1      10.283   1.979  22.860  0.00  0.00    +0.000 A 
ATOM     23  C   UNL     1       9.810   1.867  24.169  0.00  0.00    +0.002 A 
ATOM     24  C   UNL     1       8.523   1.380  24.419  0.00  0.00    +0.023 A 
ENDBRANCH  17  19
ENDBRANCH  15  17
ENDBRANCH  13  15
ENDBRANCH   1  13
BRANCH   1  25
ATOM     25  C   UNL     1       7.832  -2.781  22.671  0.00  0.00    +0.034 C 
BRANCH  25  26
ATOM     26  C   UNL     1       8.849  -2.510  23.798  0.00  0.00    -0.015 C 
ATOM     27  C   UNL     1      10.109  -1.871  23.214  0.00  0.00    +0.007 C 
ATOM     28  C   UNL     1       9.218  -3.779  24.568  0.00  0.00    +0.007 C 
ENDBRANCH  25  26
ENDBRANCH   1  25
TORSDOF 9
ENDMDL
