MODEL 1
REMARK VINA RESULT:      -5.9      0.000      0.000
REMARK  Name = 
REMARK  31 active torsions:
REMARK  status: ('A' for Active; 'I' for Inactive)
REMARK    1  A    between atoms: C_1  and  C_2
REMARK    2  A    between atoms: C_2  and  C_3
REMARK    3  A    between atoms: C_2  and  C_4
REMARK    4  A    between atoms: C_2  and  C_40
REMARK    5  A    between atoms: C_4  and  O_5
REMARK    6  A    between atoms: O_5  and  P_6
REMARK    7  A    between atoms: P_6  and  O_7
REMARK    8  A    between atoms: P_6  and  O_9
REMARK    9  A    between atoms: O_9  and  P_10
REMARK   10  A    between atoms: P_10  and  O_11
REMARK   11  A    between atoms: P_10  and  O_13
REMARK   12  A    between atoms: O_13  and  C_14
REMARK   13  A    between atoms: C_14  and  C_15
REMARK   14  A    between atoms: C_18  and  N_30
REMARK   15  A    between atoms: C_20  and  O_22
REMARK   16  A    between atoms: C_23  and  O_25
REMARK   17  A    between atoms: O_25  and  P_26
REMARK   18  A    between atoms: P_26  and  O_27
REMARK   19  A    between atoms: P_26  and  O_28
REMARK   20  A    between atoms: C_34  and  N_35
REMARK   21  A    between atoms: C_40  and  O_42
REMARK   22  A    between atoms: C_40  and  C_43
REMARK   23  A    between atoms: N_45  and  C_46
REMARK   24  A    between atoms: C_46  and  C_47
REMARK   25  A    between atoms: C_47  and  C_48
REMARK   26  A    between atoms: N_50  and  C_51
REMARK   27  A    between atoms: C_51  and  C_52
REMARK   28  A    between atoms: C_52  and  S_53
REMARK   29  A    between atoms: S_53  and  C_54
REMARK   30  A    between atoms: C_54  and  C_56
REMARK   31  A    between atoms: C_59  and  O_60
REMARK                            x       y       z     vdW  Elec       q    Type
REMARK                         _______ _______ _______ _____ _____    ______ ____
ROOT
ATOM      1  P   UNL     1       3.152  -3.628  25.357  0.00  0.00    +0.483 P 
ATOM      2  O   UNL     1       1.788  -3.554  24.751  0.00  0.00    -0.227 OA
ENDROOT
BRANCH   1   3
ATOM      3  O   UNL     1       4.193  -2.655  24.626  0.00  0.00    -0.302 OA
ATOM      4  H   UNL     1       4.570  -2.005  25.247  0.00  0.00    +0.222 HD
ENDBRANCH   1   3
BRANCH   1   5
ATOM      5  O   UNL     1       3.228  -3.166  26.891  0.00  0.00    -0.286 OA
BRANCH   5   6
ATOM      6  C   UNL     1       2.487  -2.008  27.255  0.00  0.00    +0.181 C 
BRANCH   6   8
ATOM      7  C   UNL     1       2.361   0.023  28.711  0.00  0.00    +0.016 C 
ATOM      8  C   UNL     1       3.313  -1.083  28.188  0.00  0.00    +0.024 C 
ATOM      9  C   UNL     1       3.818  -1.858  29.421  0.00  0.00    +0.016 C 
BRANCH   8  10
ATOM     10  C   UNL     1       4.502  -0.440  27.399  0.00  0.00    +0.208 C 
BRANCH  10  11
ATOM     11  C   UNL     1       5.018   0.904  27.979  0.00  0.00    +0.242 C 
ATOM     12  N   UNL     1       4.736   2.007  27.194  0.00  0.00    -0.313 N 
ATOM     13  H   UNL     1       3.884   1.924  26.639  0.00  0.00    +0.149 HD
ATOM     14  O   UNL     1       5.684   0.997  29.006  0.00  0.00    -0.273 OA
BRANCH  12  15
ATOM     15  C   UNL     1       5.074   3.340  27.673  0.00  0.00    +0.113 C 
BRANCH  15  16
ATOM     16  C   UNL     1       4.190   4.435  27.089  0.00  0.00    +0.114 C 
BRANCH  16  17
ATOM     17  C   UNL     1       4.411   4.610  25.604  0.00  0.00    +0.215 C 
ATOM     18  N   UNL     1       4.869   5.858  25.251  0.00  0.00    -0.314 N 
ATOM     19  H   UNL     1       4.869   6.606  25.933  0.00  0.00    +0.149 HD
ATOM     20  O   UNL     1       4.220   3.718  24.786  0.00  0.00    -0.276 OA
BRANCH  18  21
ATOM     21  C   UNL     1       5.126   6.197  23.860  0.00  0.00    +0.115 C 
BRANCH  21  22
ATOM     22  C   UNL     1       6.410   7.007  23.652  0.00  0.00    +0.096 C 
BRANCH  22  23
ATOM     23  S   UNL     1       7.435   6.209  22.376  0.00  0.00    -0.082 S 
BRANCH  23  24
ATOM     24  C   UNL     1       8.318   5.042  23.360  0.00  0.00    +0.220 C 
ATOM     25  O   UNL     1       9.411   5.305  23.844  0.00  0.00    -0.280 OA
BRANCH  24  26
ATOM     26  C   UNL     1       7.692   3.696  23.531  0.00  0.00    +0.029 A 
ATOM     27  C   UNL     1       7.042   3.118  22.433  0.00  0.00    +0.016 A 
ATOM     28  C   UNL     1       6.443   1.859  22.549  0.00  0.00    +0.046 A 
ATOM     29  C   UNL     1       6.508   1.173  23.756  0.00  0.00    +0.117 A 
ATOM     30  C   UNL     1       7.146   1.728  24.856  0.00  0.00    +0.046 A 
ATOM     31  C   UNL     1       7.739   2.988  24.744  0.00  0.00    +0.016 A 
BRANCH  29  32
ATOM     32  O   UNL     1       5.937  -0.062  23.823  0.00  0.00    -0.507 OA
ATOM     33  H   UNL     1       6.032  -0.497  22.960  0.00  0.00    +0.292 HD
ENDBRANCH  29  32
ENDBRANCH  24  26
ENDBRANCH  23  24
ENDBRANCH  22  23
ENDBRANCH  21  22
ENDBRANCH  18  21
ENDBRANCH  16  17
ENDBRANCH  15  16
ENDBRANCH  12  15
ENDBRANCH  10  11
BRANCH  10  34
ATOM     34  O   UNL     1       4.193  -0.230  26.017  0.00  0.00    -0.382 OA
ATOM     35  H   UNL     1       3.402   0.340  25.961  0.00  0.00    +0.210 HD
ENDBRANCH  10  34
ENDBRANCH   8  10
ENDBRANCH   6   8
ENDBRANCH   5   6
ENDBRANCH   1   5
BRANCH   1  36
ATOM     36  O   UNL     1       3.854  -5.053  25.290  0.00  0.00    -0.186 OA
BRANCH  36  37
ATOM     37  P   UNL     1       3.693  -5.920  23.929  0.00  0.00    +0.483 P 
ATOM     38  O   UNL     1       4.538  -7.188  24.075  0.00  0.00    -0.227 OA
BRANCH  37  39
ATOM     39  O   UNL     1       2.395  -6.803  24.658  0.00  0.00    -0.302 OA
ATOM     40  H   UNL     1       2.137  -6.227  25.409  0.00  0.00    +0.222 HD
ENDBRANCH  37  39
BRANCH  37  41
ATOM     41  O   UNL     1       4.990  -5.038  23.199  0.00  0.00    -0.284 OA
BRANCH  41  42
ATOM     42  C   UNL     1       6.174  -5.804  22.918  0.00  0.00    +0.206 C 
BRANCH  42  43
ATOM     43  C   UNL     1       7.436  -5.160  23.501  0.00  0.00    +0.179 C 
ATOM     44  C   UNL     1       7.266  -4.578  24.904  0.00  0.00    +0.194 C 
ATOM     45  C   UNL     1       8.267  -3.411  24.934  0.00  0.00    +0.196 C 
ATOM     46  C   UNL     1       8.763  -3.299  23.480  0.00  0.00    +0.253 C 
ATOM     47  O   UNL     1       7.847  -4.065  22.677  0.00  0.00    -0.346 OA
BRANCH  46  48
ATOM     48  N   UNL     1       8.886  -1.969  22.926  0.00  0.00    -0.286 N 
ATOM     49  C   UNL     1       9.551  -0.915  23.491  0.00  0.00    +0.167 A 
ATOM     50  C   UNL     1       9.617   0.041  22.491  0.00  0.00    +0.147 A 
ATOM     51  C   UNL     1      10.307   1.225  22.791  0.00  0.00    +0.147 A 
ATOM     52  N   UNL     1      10.786   1.391  24.045  0.00  0.00    -0.219 NA
ATOM     53  C   UNL     1      10.632   0.381  24.929  0.00  0.00    +0.225 A 
ATOM     54  N   UNL     1       8.976  -0.395  21.350  0.00  0.00    -0.231 NA
ATOM     55  N   UNL     1      10.058  -0.828  24.735  0.00  0.00    -0.216 NA
ATOM     56  C   UNL     1       8.551  -1.605  21.646  0.00  0.00    +0.203 A 
BRANCH  51  57
ATOM     57  N   UNL     1      10.519   2.233  21.860  0.00  0.00    -0.341 N 
ATOM     58  H   UNL     1      11.498   2.449  21.729  0.00  0.00    +0.144 HD
ATOM     59  H   UNL     1       9.863   3.002  21.934  0.00  0.00    +0.144 HD
ENDBRANCH  51  57
ENDBRANCH  46  48
BRANCH  45  60
ATOM     60  O   UNL     1       9.367  -3.630  25.832  0.00  0.00    -0.385 OA
ATOM     61  H   UNL     1       9.304  -4.580  26.076  0.00  0.00    +0.210 HD
ENDBRANCH  45  60
BRANCH  44  62
ATOM     62  O   UNL     1       7.484  -5.593  25.861  0.00  0.00    -0.278 OA
BRANCH  62  63
ATOM     63  P   UNL     1       6.635  -5.595  27.217  0.00  0.00    +0.473 P 
ATOM     64  O   UNL     1       6.111  -4.286  27.694  0.00  0.00    -0.228 OA
BRANCH  63  65
ATOM     65  O   UNL     1       5.488  -6.651  26.882  0.00  0.00    -0.303 OA
ATOM     66  H   UNL     1       4.875  -6.760  27.630  0.00  0.00    +0.222 HD
ENDBRANCH  63  65
BRANCH  63  67
ATOM     67  O   UNL     1       7.568  -6.392  28.235  0.00  0.00    -0.303 OA
ATOM     68  H   UNL     1       8.084  -5.766  28.776  0.00  0.00    +0.222 HD
ENDBRANCH  63  67
ENDBRANCH  62  63
ENDBRANCH  44  62
ENDBRANCH  42  43
ENDBRANCH  41  42
ENDBRANCH  37  41
ENDBRANCH  36  37
ENDBRANCH   1  36
TORSDOF 29
ENDMDL
MODEL 2
REMARK VINA RESULT:      -5.7      1.975      2.851
REMARK  Name = 
REMARK  31 active torsions:
REMARK  status: ('A' for Active; 'I' for Inactive)
REMARK    1  A    between atoms: C_1  and  C_2
REMARK    2  A    between atoms: C_2  and  C_3
REMARK    3  A    between atoms: C_2  and  C_4
REMARK    4  A    between atoms: C_2  and  C_40
REMARK    5  A    between atoms: C_4  and  O_5
REMARK    6  A    between atoms: O_5  and  P_6
REMARK    7  A    between atoms: P_6  and  O_7
REMARK    8  A    between atoms: P_6  and  O_9
REMARK    9  A    between atoms: O_9  and  P_10
REMARK   10  A    between atoms: P_10  and  O_11
REMARK   11  A    between atoms: P_10  and  O_13
REMARK   12  A    between atoms: O_13  and  C_14
REMARK   13  A    between atoms: C_14  and  C_15
REMARK   14  A    between atoms: C_18  and  N_30
REMARK   15  A    between atoms: C_20  and  O_22
REMARK   16  A    between atoms: C_23  and  O_25
REMARK   17  A    between atoms: O_25  and  P_26
REMARK   18  A    between atoms: P_26  and  O_27
REMARK   19  A    between atoms: P_26  and  O_28
REMARK   20  A    between atoms: C_34  and  N_35
REMARK   21  A    between atoms: C_40  and  O_42
REMARK   22  A    between atoms: C_40  and  C_43
REMARK   23  A    between atoms: N_45  and  C_46
REMARK   24  A    between atoms: C_46  and  C_47
REMARK   25  A    between atoms: C_47  and  C_48
REMARK   26  A    between atoms: N_50  and  C_51
REMARK   27  A    between atoms: C_51  and  C_52
REMARK   28  A    between atoms: C_52  and  S_53
REMARK   29  A    between atoms: S_53  and  C_54
REMARK   30  A    between atoms: C_54  and  C_56
REMARK   31  A    between atoms: C_59  and  O_60
REMARK                            x       y       z     vdW  Elec       q    Type
REMARK                         _______ _______ _______ _____ _____    ______ ____
ROOT
ATOM      1  P   UNL     1       3.362  -2.867  27.071  0.00  0.00    +0.483 P 
ATOM      2  O   UNL     1       3.498  -2.502  25.629  0.00  0.00    -0.227 OA
ENDROOT
BRANCH   1   3
ATOM      3  O   UNL     1       4.722  -2.635  27.885  0.00  0.00    -0.302 OA
ATOM      4  H   UNL     1       5.504  -2.795  27.327  0.00  0.00    +0.222 HD
ENDBRANCH   1   3
BRANCH   1   5
ATOM      5  O   UNL     1       2.291  -1.993  27.884  0.00  0.00    -0.286 OA
BRANCH   5   6
ATOM      6  C   UNL     1       2.318  -0.585  27.683  0.00  0.00    +0.181 C 
BRANCH   6   8
ATOM      7  C   UNL     1       1.696   1.621  28.685  0.00  0.00    +0.016 C 
ATOM      8  C   UNL     1       2.145   0.176  29.024  0.00  0.00    +0.024 C 
ATOM      9  C   UNL     1       1.022  -0.453  29.871  0.00  0.00    +0.016 C 
BRANCH   8  10
ATOM     10  C   UNL     1       3.498   0.205  29.810  0.00  0.00    +0.208 C 
BRANCH  10  11
ATOM     11  C   UNL     1       4.726   0.661  28.978  0.00  0.00    +0.242 C 
ATOM     12  N   UNL     1       4.826   2.031  28.818  0.00  0.00    -0.313 N 
ATOM     13  H   UNL     1       4.432   2.577  29.585  0.00  0.00    +0.149 HD
ATOM     14  O   UNL     1       5.514  -0.110  28.438  0.00  0.00    -0.273 OA
BRANCH  12  15
ATOM     15  C   UNL     1       5.988   2.597  28.146  0.00  0.00    +0.113 C 
BRANCH  15  16
ATOM     16  C   UNL     1       5.736   2.938  26.683  0.00  0.00    +0.114 C 
BRANCH  16  17
ATOM     17  C   UNL     1       6.776   3.888  26.135  0.00  0.00    +0.215 C 
ATOM     18  N   UNL     1       6.447   4.431  24.914  0.00  0.00    -0.314 N 
ATOM     19  H   UNL     1       5.662   4.060  24.394  0.00  0.00    +0.149 HD
ATOM     20  O   UNL     1       7.811   4.168  26.729  0.00  0.00    -0.276 OA
BRANCH  18  21
ATOM     21  C   UNL     1       7.341   5.359  24.241  0.00  0.00    +0.115 C 
BRANCH  21  22
ATOM     22  C   UNL     1       8.108   4.735  23.071  0.00  0.00    +0.096 C 
BRANCH  22  23
ATOM     23  S   UNL     1       9.662   4.008  23.678  0.00  0.00    -0.082 S 
BRANCH  23  24
ATOM     24  C   UNL     1       9.510   2.364  23.059  0.00  0.00    +0.220 C 
ATOM     25  O   UNL     1      10.054   2.016  22.019  0.00  0.00    -0.280 OA
BRANCH  24  26
ATOM     26  C   UNL     1       8.642   1.430  23.837  0.00  0.00    +0.029 A 
ATOM     27  C   UNL     1       7.340   1.189  23.377  0.00  0.00    +0.016 A 
ATOM     28  C   UNL     1       6.494   0.321  24.075  0.00  0.00    +0.046 A 
ATOM     29  C   UNL     1       6.954  -0.319  25.220  0.00  0.00    +0.117 A 
ATOM     30  C   UNL     1       8.239  -0.094  25.692  0.00  0.00    +0.046 A 
ATOM     31  C   UNL     1       9.084   0.778  25.001  0.00  0.00    +0.016 A 
BRANCH  29  32
ATOM     32  O   UNL     1       6.111  -1.178  25.857  0.00  0.00    -0.507 OA
ATOM     33  H   UNL     1       6.513  -2.061  25.866  0.00  0.00    +0.292 HD
ENDBRANCH  29  32
ENDBRANCH  24  26
ENDBRANCH  23  24
ENDBRANCH  22  23
ENDBRANCH  21  22
ENDBRANCH  18  21
ENDBRANCH  16  17
ENDBRANCH  15  16
ENDBRANCH  12  15
ENDBRANCH  10  11
BRANCH  10  34
ATOM     34  O   UNL     1       3.816  -1.059  30.402  0.00  0.00    -0.382 OA
ATOM     35  H   UNL     1       4.612  -1.414  29.962  0.00  0.00    +0.210 HD
ENDBRANCH  10  34
ENDBRANCH   8  10
ENDBRANCH   6   8
ENDBRANCH   5   6
ENDBRANCH   1   5
BRANCH   1  36
ATOM     36  O   UNL     1       3.003  -4.389  27.362  0.00  0.00    -0.186 OA
BRANCH  36  37
ATOM     37  P   UNL     1       1.787  -5.059  26.525  0.00  0.00    +0.483 P 
ATOM     38  O   UNL     1       1.655  -6.517  26.971  0.00  0.00    -0.227 OA
BRANCH  37  39
ATOM     39  O   UNL     1       0.697  -4.656  27.807  0.00  0.00    -0.302 OA
ATOM     40  H   UNL     1      -0.163  -4.575  27.342  0.00  0.00    +0.222 HD
ENDBRANCH  37  39
BRANCH  37  41
ATOM     41  O   UNL     1       2.876  -5.462  25.242  0.00  0.00    -0.284 OA
BRANCH  41  42
ATOM     42  C   UNL     1       3.592  -6.697  25.408  0.00  0.00    +0.206 C 
BRANCH  42  43
ATOM     43  C   UNL     1       5.110  -6.504  25.335  0.00  0.00    +0.179 C 
ATOM     44  C   UNL     1       5.727  -5.821  26.555  0.00  0.00    +0.194 C 
ATOM     45  C   UNL     1       6.943  -5.078  25.977  0.00  0.00    +0.196 C 
ATOM     46  C   UNL     1       6.789  -5.229  24.452  0.00  0.00    +0.253 C 
ATOM     47  O   UNL     1       5.440  -5.670  24.220  0.00  0.00    -0.346 OA
BRANCH  46  48
ATOM     48  N   UNL     1       7.055  -4.059  23.644  0.00  0.00    -0.286 N 
ATOM     49  C   UNL     1       8.248  -3.395  23.547  0.00  0.00    +0.167 A 
ATOM     50  C   UNL     1       8.087  -2.530  22.478  0.00  0.00    +0.147 A 
ATOM     51  C   UNL     1       9.199  -1.752  22.120  0.00  0.00    +0.147 A 
ATOM     52  N   UNL     1      10.314  -1.835  22.882  0.00  0.00    -0.219 NA
ATOM     53  C   UNL     1      10.324  -2.709  23.911  0.00  0.00    +0.225 A 
ATOM     54  N   UNL     1       6.817  -2.628  21.951  0.00  0.00    -0.231 NA
ATOM     55  N   UNL     1       9.349  -3.560  24.302  0.00  0.00    -0.216 NA
ATOM     56  C   UNL     1       6.224  -3.556  22.673  0.00  0.00    +0.203 A 
BRANCH  51  57
ATOM     57  N   UNL     1       9.205  -0.902  21.022  0.00  0.00    -0.341 N 
ATOM     58  H   UNL     1       8.363  -0.972  20.466  0.00  0.00    +0.144 HD
ATOM     59  H   UNL     1      10.096  -0.862  20.542  0.00  0.00    +0.144 HD
ENDBRANCH  51  57
ENDBRANCH  46  48
BRANCH  45  60
ATOM     60  O   UNL     1       8.199  -5.617  26.418  0.00  0.00    -0.385 OA
ATOM     61  H   UNL     1       8.752  -5.657  25.606  0.00  0.00    +0.210 HD
ENDBRANCH  45  60
BRANCH  44  62
ATOM     62  O   UNL     1       6.017  -6.793  27.537  0.00  0.00    -0.278 OA
BRANCH  62  63
ATOM     63  P   UNL     1       5.509  -6.574  29.039  0.00  0.00    +0.473 P 
ATOM     64  O   UNL     1       6.296  -7.219  30.125  0.00  0.00    -0.228 OA
BRANCH  63  65
ATOM     65  O   UNL     1       5.475  -4.982  29.143  0.00  0.00    -0.303 OA
ATOM     66  H   UNL     1       6.321  -4.589  28.867  0.00  0.00    +0.222 HD
ENDBRANCH  63  65
BRANCH  63  67
ATOM     67  O   UNL     1       3.964  -6.960  28.965  0.00  0.00    -0.303 OA
ATOM     68  H   UNL     1       3.696  -7.425  29.779  0.00  0.00    +0.222 HD
ENDBRANCH  63  67
ENDBRANCH  62  63
ENDBRANCH  44  62
ENDBRANCH  42  43
ENDBRANCH  41  42
ENDBRANCH  37  41
ENDBRANCH  36  37
ENDBRANCH   1  36
TORSDOF 29
ENDMDL
MODEL 3
REMARK VINA RESULT:      -5.4      3.870      9.507
REMARK  Name = 
REMARK  31 active torsions:
REMARK  status: ('A' for Active; 'I' for Inactive)
REMARK    1  A    between atoms: C_1  and  C_2
REMARK    2  A    between atoms: C_2  and  C_3
REMARK    3  A    between atoms: C_2  and  C_4
REMARK    4  A    between atoms: C_2  and  C_40
REMARK    5  A    between atoms: C_4  and  O_5
REMARK    6  A    between atoms: O_5  and  P_6
REMARK    7  A    between atoms: P_6  and  O_7
REMARK    8  A    between atoms: P_6  and  O_9
REMARK    9  A    between atoms: O_9  and  P_10
REMARK   10  A    between atoms: P_10  and  O_11
REMARK   11  A    between atoms: P_10  and  O_13
REMARK   12  A    between atoms: O_13  and  C_14
REMARK   13  A    between atoms: C_14  and  C_15
REMARK   14  A    between atoms: C_18  and  N_30
REMARK   15  A    between atoms: C_20  and  O_22
REMARK   16  A    between atoms: C_23  and  O_25
REMARK   17  A    between atoms: O_25  and  P_26
REMARK   18  A    between atoms: P_26  and  O_27
REMARK   19  A    between atoms: P_26  and  O_28
REMARK   20  A    between atoms: C_34  and  N_35
REMARK   21  A    between atoms: C_40  and  O_42
REMARK   22  A    between atoms: C_40  and  C_43
REMARK   23  A    between atoms: N_45  and  C_46
REMARK   24  A    between atoms: C_46  and  C_47
REMARK   25  A    between atoms: C_47  and  C_48
REMARK   26  A    between atoms: N_50  and  C_51
REMARK   27  A    between atoms: C_51  and  C_52
REMARK   28  A    between atoms: C_52  and  S_53
REMARK   29  A    between atoms: S_53  and  C_54
REMARK   30  A    between atoms: C_54  and  C_56
REMARK   31  A    between atoms: C_59  and  O_60
REMARK                            x       y       z     vdW  Elec       q    Type
REMARK                         _______ _______ _______ _____ _____    ______ ____
ROOT
ATOM      1  P   UNL     1       9.531   4.878  23.836  0.00  0.00    +0.483 P 
ATOM      2  O   UNL     1      10.825   5.591  24.063  0.00  0.00    -0.227 OA
ENDROOT
BRANCH   1   3
ATOM      3  O   UNL     1       8.598   5.638  22.780  0.00  0.00    -0.302 OA
ATOM      4  H   UNL     1       7.701   5.781  23.133  0.00  0.00    +0.222 HD
ENDBRANCH   1   3
BRANCH   1   5
ATOM      5  O   UNL     1       9.678   3.409  23.210  0.00  0.00    -0.286 OA
BRANCH   5   6
ATOM      6  C   UNL     1       8.485   2.769  22.773  0.00  0.00    +0.181 C 
BRANCH   6   8
ATOM      7  C   UNL     1       7.183   0.641  22.964  0.00  0.00    +0.016 C 
ATOM      8  C   UNL     1       8.616   1.225  22.854  0.00  0.00    +0.024 C 
ATOM      9  C   UNL     1       9.231   0.658  21.559  0.00  0.00    +0.016 C 
BRANCH   8  10
ATOM     10  C   UNL     1       9.459   0.816  24.107  0.00  0.00    +0.208 C 
BRANCH  10  11
ATOM     11  C   UNL     1       9.453  -0.702  24.431  0.00  0.00    +0.242 C 
ATOM     12  N   UNL     1       8.759  -1.034  25.580  0.00  0.00    -0.313 N 
ATOM     13  H   UNL     1       7.984  -0.408  25.802  0.00  0.00    +0.149 HD
ATOM     14  O   UNL     1      10.063  -1.545  23.780  0.00  0.00    -0.273 OA
BRANCH  12  15
ATOM     15  C   UNL     1       8.588  -2.435  25.942  0.00  0.00    +0.113 C 
BRANCH  15  16
ATOM     16  C   UNL     1       7.174  -2.774  26.397  0.00  0.00    +0.114 C 
BRANCH  16  17
ATOM     17  C   UNL     1       7.104  -4.127  27.067  0.00  0.00    +0.215 C 
ATOM     18  N   UNL     1       5.852  -4.454  27.534  0.00  0.00    -0.314 N 
ATOM     19  H   UNL     1       5.126  -3.749  27.564  0.00  0.00    +0.149 HD
ATOM     20  O   UNL     1       8.067  -4.878  27.169  0.00  0.00    -0.276 OA
BRANCH  18  21
ATOM     21  C   UNL     1       5.611  -5.718  28.213  0.00  0.00    +0.115 C 
BRANCH  21  22
ATOM     22  C   UNL     1       4.803  -6.718  27.380  0.00  0.00    +0.096 C 
BRANCH  22  23
ATOM     23  S   UNL     1       3.757  -5.819  26.192  0.00  0.00    -0.082 S 
BRANCH  23  24
ATOM     24  C   UNL     1       4.514  -6.297  24.673  0.00  0.00    +0.220 C 
ATOM     25  O   UNL     1       4.400  -7.431  24.226  0.00  0.00    -0.280 OA
BRANCH  24  26
ATOM     26  C   UNL     1       5.345  -5.266  23.981  0.00  0.00    +0.029 A 
ATOM     27  C   UNL     1       6.693  -5.555  23.729  0.00  0.00    +0.016 A 
ATOM     28  C   UNL     1       7.506  -4.619  23.083  0.00  0.00    +0.046 A 
ATOM     29  C   UNL     1       6.971  -3.403  22.676  0.00  0.00    +0.117 A 
ATOM     30  C   UNL     1       5.638  -3.097  22.917  0.00  0.00    +0.046 A 
ATOM     31  C   UNL     1       4.825  -4.028  23.567  0.00  0.00    +0.016 A 
BRANCH  29  32
ATOM     32  O   UNL     1       7.787  -2.527  22.026  0.00  0.00    -0.507 OA
ATOM     33  H   UNL     1       7.275  -2.079  21.333  0.00  0.00    +0.292 HD
ENDBRANCH  29  32
ENDBRANCH  24  26
ENDBRANCH  23  24
ENDBRANCH  22  23
ENDBRANCH  21  22
ENDBRANCH  18  21
ENDBRANCH  16  17
ENDBRANCH  15  16
ENDBRANCH  12  15
ENDBRANCH  10  11
BRANCH  10  34
ATOM     34  O   UNL     1       9.060   1.517  25.289  0.00  0.00    -0.382 OA
ATOM     35  H   UNL     1       8.512   0.919  25.832  0.00  0.00    +0.210 HD
ENDBRANCH  10  34
ENDBRANCH   8  10
ENDBRANCH   6   8
ENDBRANCH   5   6
ENDBRANCH   1   5
BRANCH   1  36
ATOM     36  O   UNL     1       8.603   4.722  25.118  0.00  0.00    -0.186 OA
BRANCH  36  37
ATOM     37  P   UNL     1       8.304   6.042  26.009  0.00  0.00    +0.483 P 
ATOM     38  O   UNL     1       9.568   6.367  26.810  0.00  0.00    -0.227 OA
BRANCH  37  39
ATOM     39  O   UNL     1       8.954   7.029  24.745  0.00  0.00    -0.302 OA
ATOM     40  H   UNL     1       9.091   7.891  25.193  0.00  0.00    +0.222 HD
ENDBRANCH  37  39
BRANCH  37  41
ATOM     41  O   UNL     1       7.654   5.057  27.274  0.00  0.00    -0.284 OA
BRANCH  41  42
ATOM     42  C   UNL     1       6.376   5.474  27.784  0.00  0.00    +0.206 C 
BRANCH  42  43
ATOM     43  C   UNL     1       5.220   4.665  27.188  0.00  0.00    +0.179 C 
ATOM     44  C   UNL     1       5.578   3.232  26.795  0.00  0.00    +0.194 C 
ATOM     45  C   UNL     1       4.637   2.935  25.616  0.00  0.00    +0.196 C 
ATOM     46  C   UNL     1       3.978   4.292  25.305  0.00  0.00    +0.253 C 
ATOM     47  O   UNL     1       4.760   5.290  25.985  0.00  0.00    -0.346 OA
BRANCH  46  48
ATOM     48  N   UNL     1       3.846   4.656  23.912  0.00  0.00    -0.286 N 
ATOM     49  C   UNL     1       2.963   4.120  23.014  0.00  0.00    +0.167 A 
ATOM     50  C   UNL     1       3.027   4.954  21.911  0.00  0.00    +0.147 A 
ATOM     51  C   UNL     1       2.167   4.658  20.842  0.00  0.00    +0.147 A 
ATOM     52  N   UNL     1       1.400   3.547  20.922  0.00  0.00    -0.219 NA
ATOM     53  C   UNL     1       1.453   2.811  22.054  0.00  0.00    +0.225 A 
ATOM     54  N   UNL     1       3.953   5.958  22.105  0.00  0.00    -0.231 NA
ATOM     55  N   UNL     1       2.180   3.037  23.172  0.00  0.00    -0.216 NA
ATOM     56  C   UNL     1       4.424   5.750  23.316  0.00  0.00    +0.203 A 
BRANCH  51  57
ATOM     57  N   UNL     1       2.068   5.454  19.709  0.00  0.00    -0.341 N 
ATOM     58  H   UNL     1       1.122   5.526  19.359  0.00  0.00    +0.144 HD
ATOM     59  H   UNL     1       2.817   5.309  19.042  0.00  0.00    +0.144 HD
ENDBRANCH  51  57
ENDBRANCH  46  48
BRANCH  45  60
ATOM     60  O   UNL     1       3.642   1.943  25.919  0.00  0.00    -0.385 OA
ATOM     61  H   UNL     1       3.800   1.712  26.862  0.00  0.00    +0.210 HD
ENDBRANCH  45  60
BRANCH  44  62
ATOM     62  O   UNL     1       5.432   2.390  27.919  0.00  0.00    -0.278 OA
BRANCH  62  63
ATOM     63  P   UNL     1       6.671   1.503  28.406  0.00  0.00    +0.473 P 
ATOM     64  O   UNL     1       7.319   0.625  27.394  0.00  0.00    -0.228 OA
BRANCH  63  65
ATOM     65  O   UNL     1       7.651   2.610  29.002  0.00  0.00    -0.303 OA
ATOM     66  H   UNL     1       8.165   3.046  28.301  0.00  0.00    +0.222 HD
ENDBRANCH  63  65
BRANCH  63  67
ATOM     67  O   UNL     1       6.114   0.778  29.713  0.00  0.00    -0.303 OA
ATOM     68  H   UNL     1       6.817   0.715  30.386  0.00  0.00    +0.222 HD
ENDBRANCH  63  67
ENDBRANCH  62  63
ENDBRANCH  44  62
ENDBRANCH  42  43
ENDBRANCH  41  42
ENDBRANCH  37  41
ENDBRANCH  36  37
ENDBRANCH   1  36
TORSDOF 29
ENDMDL
MODEL 4
REMARK VINA RESULT:      -5.3      2.531      6.343
REMARK  Name = 
REMARK  31 active torsions:
REMARK  status: ('A' for Active; 'I' for Inactive)
REMARK    1  A    between atoms: C_1  and  C_2
REMARK    2  A    between atoms: C_2  and  C_3
REMARK    3  A    between atoms: C_2  and  C_4
REMARK    4  A    between atoms: C_2  and  C_40
REMARK    5  A    between atoms: C_4  and  O_5
REMARK    6  A    between atoms: O_5  and  P_6
REMARK    7  A    between atoms: P_6  and  O_7
REMARK    8  A    between atoms: P_6  and  O_9
REMARK    9  A    between atoms: O_9  and  P_10
REMARK   10  A    between atoms: P_10  and  O_11
REMARK   11  A    between atoms: P_10  and  O_13
REMARK   12  A    between atoms: O_13  and  C_14
REMARK   13  A    between atoms: C_14  and  C_15
REMARK   14  A    between atoms: C_18  and  N_30
REMARK   15  A    between atoms: C_20  and  O_22
REMARK   16  A    between atoms: C_23  and  O_25
REMARK   17  A    between atoms: O_25  and  P_26
REMARK   18  A    between atoms: P_26  and  O_27
REMARK   19  A    between atoms: P_26  and  O_28
REMARK   20  A    between atoms: C_34  and  N_35
REMARK   21  A    between atoms: C_40  and  O_42
REMARK   22  A    between atoms: C_40  and  C_43
REMARK   23  A    between atoms: N_45  and  C_46
REMARK   24  A    between atoms: C_46  and  C_47
REMARK   25  A    between atoms: C_47  and  C_48
REMARK   26  A    between atoms: N_50  and  C_51
REMARK   27  A    between atoms: C_51  and  C_52
REMARK   28  A    between atoms: C_52  and  S_53
REMARK   29  A    between atoms: S_53  and  C_54
REMARK   30  A    between atoms: C_54  and  C_56
REMARK   31  A    between atoms: C_59  and  O_60
REMARK                            x       y       z     vdW  Elec       q    Type
REMARK                         _______ _______ _______ _____ _____    ______ ____
ROOT
ATOM      1  P   UNL     1       8.750  -2.805  23.903  0.00  0.00    +0.483 P 
ATOM      2  O   UNL     1       8.188  -3.161  22.566  0.00  0.00    -0.227 OA
ENDROOT
BRANCH   1   3
ATOM      3  O   UNL     1      10.224  -3.397  24.117  0.00  0.00    -0.302 OA
ATOM      4  H   UNL     1      10.632  -3.653  23.270  0.00  0.00    +0.222 HD
ENDBRANCH   1   3
BRANCH   1   5
ATOM      5  O   UNL     1       8.944  -1.233  24.150  0.00  0.00    -0.286 OA
BRANCH   5   6
ATOM      6  C   UNL     1       9.580  -0.489  23.119  0.00  0.00    +0.181 C 
BRANCH   6   8
ATOM      7  C   UNL     1       9.515   1.553  21.675  0.00  0.00    +0.016 C 
ATOM      8  C   UNL     1       8.946   0.920  22.970  0.00  0.00    +0.024 C 
ATOM      9  C   UNL     1       7.419   0.817  22.784  0.00  0.00    +0.016 C 
BRANCH   8  10
ATOM     10  C   UNL     1       9.306   1.810  24.206  0.00  0.00    +0.208 C 
BRANCH  10  11
ATOM     11  C   UNL     1      10.029   3.140  23.864  0.00  0.00    +0.242 C 
ATOM     12  N   UNL     1       9.231   4.264  23.969  0.00  0.00    -0.313 N 
ATOM     13  H   UNL     1       8.487   4.191  24.664  0.00  0.00    +0.149 HD
ATOM     14  O   UNL     1      11.187   3.208  23.462  0.00  0.00    -0.273 OA
BRANCH  12  15
ATOM     15  C   UNL     1       9.812   5.585  23.776  0.00  0.00    +0.113 C 
BRANCH  15  16
ATOM     16  C   UNL     1       8.782   6.659  23.452  0.00  0.00    +0.114 C 
BRANCH  16  17
ATOM     17  C   UNL     1       7.493   6.069  22.929  0.00  0.00    +0.215 C 
ATOM     18  N   UNL     1       6.401   6.316  23.729  0.00  0.00    -0.314 N 
ATOM     19  H   UNL     1       6.533   6.702  24.656  0.00  0.00    +0.149 HD
ATOM     20  O   UNL     1       7.417   5.443  21.878  0.00  0.00    -0.276 OA
BRANCH  18  21
ATOM     21  C   UNL     1       5.083   5.812  23.376  0.00  0.00    +0.115 C 
BRANCH  21  22
ATOM     22  C   UNL     1       4.835   4.369  23.829  0.00  0.00    +0.096 C 
BRANCH  22  23
ATOM     23  S   UNL     1       4.079   4.373  25.486  0.00  0.00    -0.082 S 
BRANCH  23  24
ATOM     24  C   UNL     1       3.785   2.648  25.707  0.00  0.00    +0.220 C 
ATOM     25  O   UNL     1       2.663   2.170  25.605  0.00  0.00    -0.280 OA
BRANCH  24  26
ATOM     26  C   UNL     1       4.962   1.806  26.074  0.00  0.00    +0.029 A 
ATOM     27  C   UNL     1       4.986   0.470  25.650  0.00  0.00    +0.016 A 
ATOM     28  C   UNL     1       6.069  -0.353  25.972  0.00  0.00    +0.046 A 
ATOM     29  C   UNL     1       7.135   0.161  26.701  0.00  0.00    +0.117 A 
ATOM     30  C   UNL     1       7.131   1.481  27.131  0.00  0.00    +0.046 A 
ATOM     31  C   UNL     1       6.047   2.303  26.816  0.00  0.00    +0.016 A 
BRANCH  29  32
ATOM     32  O   UNL     1       8.185  -0.664  26.971  0.00  0.00    -0.507 OA
ATOM     33  H   UNL     1       8.984  -0.297  26.560  0.00  0.00    +0.292 HD
ENDBRANCH  29  32
ENDBRANCH  24  26
ENDBRANCH  23  24
ENDBRANCH  22  23
ENDBRANCH  21  22
ENDBRANCH  18  21
ENDBRANCH  16  17
ENDBRANCH  15  16
ENDBRANCH  12  15
ENDBRANCH  10  11
BRANCH  10  34
ATOM     34  O   UNL     1      10.104   1.114  25.169  0.00  0.00    -0.382 OA
ATOM     35  H   UNL     1       9.960   0.155  25.053  0.00  0.00    +0.210 HD
ENDBRANCH  10  34
ENDBRANCH   8  10
ENDBRANCH   6   8
ENDBRANCH   5   6
ENDBRANCH   1   5
BRANCH   1  36
ATOM     36  O   UNL     1       7.937  -3.353  25.155  0.00  0.00    -0.186 OA
BRANCH  36  37
ATOM     37  P   UNL     1       7.937  -4.951  25.425  0.00  0.00    +0.483 P 
ATOM     38  O   UNL     1       8.793  -5.613  24.343  0.00  0.00    -0.227 OA
BRANCH  37  39
ATOM     39  O   UNL     1       9.390  -4.784  26.352  0.00  0.00    -0.302 OA
ATOM     40  H   UNL     1       9.787  -3.966  25.984  0.00  0.00    +0.222 HD
ENDBRANCH  37  39
BRANCH  37  41
ATOM     41  O   UNL     1       6.486  -5.121  24.500  0.00  0.00    -0.284 OA
BRANCH  41  42
ATOM     42  C   UNL     1       5.496  -4.101  24.716  0.00  0.00    +0.206 C 
BRANCH  42  43
ATOM     43  C   UNL     1       4.716  -4.312  26.018  0.00  0.00    +0.179 C 
ATOM     44  C   UNL     1       3.374  -5.023  25.851  0.00  0.00    +0.194 C 
ATOM     45  C   UNL     1       2.517  -4.450  26.991  0.00  0.00    +0.196 C 
ATOM     46  C   UNL     1       3.375  -3.311  27.574  0.00  0.00    +0.253 C 
ATOM     47  O   UNL     1       4.410  -3.046  26.611  0.00  0.00    -0.346 OA
BRANCH  46  48
ATOM     48  N   UNL     1       2.697  -2.075  27.898  0.00  0.00    -0.286 N 
ATOM     49  C   UNL     1       3.241  -0.998  28.544  0.00  0.00    +0.167 A 
ATOM     50  C   UNL     1       2.310   0.017  28.387  0.00  0.00    +0.147 A 
ATOM     51  C   UNL     1       2.647   1.271  28.919  0.00  0.00    +0.147 A 
ATOM     52  N   UNL     1       3.803   1.388  29.612  0.00  0.00    -0.219 NA
ATOM     53  C   UNL     1       4.607   0.307  29.704  0.00  0.00    +0.225 A 
ATOM     54  N   UNL     1       1.205  -0.431  27.696  0.00  0.00    -0.231 NA
ATOM     55  N   UNL     1       4.428  -0.924  29.172  0.00  0.00    -0.216 NA
ATOM     56  C   UNL     1       1.470  -1.689  27.416  0.00  0.00    +0.203 A 
BRANCH  51  57
ATOM     57  N   UNL     1       1.847   2.396  28.766  0.00  0.00    -0.341 N 
ATOM     58  H   UNL     1       1.252   2.567  29.566  0.00  0.00    +0.144 HD
ATOM     59  H   UNL     1       1.445   2.489  27.841  0.00  0.00    +0.144 HD
ENDBRANCH  51  57
ENDBRANCH  46  48
BRANCH  45  60
ATOM     60  O   UNL     1       2.199  -5.418  28.005  0.00  0.00    -0.385 OA
ATOM     61  H   UNL     1       3.069  -5.787  28.277  0.00  0.00    +0.210 HD
ENDBRANCH  45  60
BRANCH  44  62
ATOM     62  O   UNL     1       3.579  -6.420  25.885  0.00  0.00    -0.278 OA
BRANCH  62  63
ATOM     63  P   UNL     1       3.196  -7.305  24.608  0.00  0.00    +0.473 P 
ATOM     64  O   UNL     1       2.156  -6.763  23.691  0.00  0.00    -0.228 OA
BRANCH  63  65
ATOM     65  O   UNL     1       4.616  -7.498  23.908  0.00  0.00    -0.303 OA
ATOM     66  H   UNL     1       4.886  -6.700  23.421  0.00  0.00    +0.222 HD
ENDBRANCH  63  65
BRANCH  63  67
ATOM     67  O   UNL     1       2.905  -8.743  25.229  0.00  0.00    -0.303 OA
ATOM     68  H   UNL     1       3.720  -9.279  25.230  0.00  0.00    +0.222 HD
ENDBRANCH  63  67
ENDBRANCH  62  63
ENDBRANCH  44  62
ENDBRANCH  42  43
ENDBRANCH  41  42
ENDBRANCH  37  41
ENDBRANCH  36  37
ENDBRANCH   1  36
TORSDOF 29
ENDMDL
MODEL 5
REMARK VINA RESULT:      -5.1      3.801      8.918
REMARK  Name = 
REMARK  31 active torsions:
REMARK  status: ('A' for Active; 'I' for Inactive)
REMARK    1  A    between atoms: C_1  and  C_2
REMARK    2  A    between atoms: C_2  and  C_3
REMARK    3  A    between atoms: C_2  and  C_4
REMARK    4  A    between atoms: C_2  and  C_40
REMARK    5  A    between atoms: C_4  and  O_5
REMARK    6  A    between atoms: O_5  and  P_6
REMARK    7  A    between atoms: P_6  and  O_7
REMARK    8  A    between atoms: P_6  and  O_9
REMARK    9  A    between atoms: O_9  and  P_10
REMARK   10  A    between atoms: P_10  and  O_11
REMARK   11  A    between atoms: P_10  and  O_13
REMARK   12  A    between atoms: O_13  and  C_14
REMARK   13  A    between atoms: C_14  and  C_15
REMARK   14  A    between atoms: C_18  and  N_30
REMARK   15  A    between atoms: C_20  and  O_22
REMARK   16  A    between atoms: C_23  and  O_25
REMARK   17  A    between atoms: O_25  and  P_26
REMARK   18  A    between atoms: P_26  and  O_27
REMARK   19  A    between atoms: P_26  and  O_28
REMARK   20  A    between atoms: C_34  and  N_35
REMARK   21  A    between atoms: C_40  and  O_42
REMARK   22  A    between atoms: C_40  and  C_43
REMARK   23  A    between atoms: N_45  and  C_46
REMARK   24  A    between atoms: C_46  and  C_47
REMARK   25  A    between atoms: C_47  and  C_48
REMARK   26  A    between atoms: N_50  and  C_51
REMARK   27  A    between atoms: C_51  and  C_52
REMARK   28  A    between atoms: C_52  and  S_53
REMARK   29  A    between atoms: S_53  and  C_54
REMARK   30  A    between atoms: C_54  and  C_56
REMARK   31  A    between atoms: C_59  and  O_60
REMARK                            x       y       z     vdW  Elec       q    Type
REMARK                         _______ _______ _______ _____ _____    ______ ____
ROOT
ATOM      1  P   UNL     1       9.693   1.559  22.912  0.00  0.00    +0.483 P 
ATOM      2  O   UNL     1      10.759   1.876  23.909  0.00  0.00    -0.227 OA
ENDROOT
BRANCH   1   3
ATOM      3  O   UNL     1       9.972   2.242  21.490  0.00  0.00    -0.302 OA
ATOM      4  H   UNL     1      10.722   1.822  21.033  0.00  0.00    +0.222 HD
ENDBRANCH   1   3
BRANCH   1   5
ATOM      5  O   UNL     1       9.554   0.003  22.553  0.00  0.00    -0.286 OA
BRANCH   5   6
ATOM      6  C   UNL     1      10.215  -0.921  23.409  0.00  0.00    +0.181 C 
BRANCH   6   8
ATOM      7  C   UNL     1       7.865  -1.781  23.402  0.00  0.00    +0.016 C 
ATOM      8  C   UNL     1       9.194  -1.781  24.201  0.00  0.00    +0.024 C 
ATOM      9  C   UNL     1       9.664  -3.246  24.288  0.00  0.00    +0.016 C 
BRANCH   8  10
ATOM     10  C   UNL     1       8.964  -1.174  25.625  0.00  0.00    +0.208 C 
BRANCH  10  11
ATOM     11  C   UNL     1       7.690  -1.682  26.352  0.00  0.00    +0.242 C 
ATOM     12  N   UNL     1       6.659  -0.762  26.399  0.00  0.00    -0.313 N 
ATOM     13  H   UNL     1       6.637  -0.110  25.613  0.00  0.00    +0.149 HD
ATOM     14  O   UNL     1       7.606  -2.773  26.908  0.00  0.00    -0.273 OA
BRANCH  12  15
ATOM     15  C   UNL     1       5.371  -1.147  26.961  0.00  0.00    +0.113 C 
BRANCH  15  16
ATOM     16  C   UNL     1       4.481  -1.898  25.978  0.00  0.00    +0.114 C 
BRANCH  16  17
ATOM     17  C   UNL     1       3.724  -3.022  26.645  0.00  0.00    +0.215 C 
ATOM     18  N   UNL     1       4.083  -3.237  27.956  0.00  0.00    -0.314 N 
ATOM     19  H   UNL     1       4.905  -2.781  28.333  0.00  0.00    +0.149 HD
ATOM     20  O   UNL     1       2.853  -3.674  26.081  0.00  0.00    -0.276 OA
BRANCH  18  21
ATOM     21  C   UNL     1       3.457  -4.287  28.742  0.00  0.00    +0.115 C 
BRANCH  21  22
ATOM     22  C   UNL     1       4.448  -5.099  29.583  0.00  0.00    +0.096 C 
BRANCH  22  23
ATOM     23  S   UNL     1       4.823  -6.667  28.737  0.00  0.00    -0.082 S 
BRANCH  23  24
ATOM     24  C   UNL     1       6.077  -6.135  27.618  0.00  0.00    +0.220 C 
ATOM     25  O   UNL     1       7.182  -5.784  28.009  0.00  0.00    -0.280 OA
BRANCH  24  26
ATOM     26  C   UNL     1       5.709  -6.083  26.171  0.00  0.00    +0.029 A 
ATOM     27  C   UNL     1       4.577  -6.791  25.744  0.00  0.00    +0.016 A 
ATOM     28  C   UNL     1       4.196  -6.769  24.399  0.00  0.00    +0.046 A 
ATOM     29  C   UNL     1       4.935  -6.028  23.484  0.00  0.00    +0.117 A 
ATOM     30  C   UNL     1       6.060  -5.321  23.886  0.00  0.00    +0.046 A 
ATOM     31  C   UNL     1       6.445  -5.346  25.228  0.00  0.00    +0.016 A 
BRANCH  29  32
ATOM     32  O   UNL     1       4.518  -6.008  22.188  0.00  0.00    -0.507 OA
ATOM     33  H   UNL     1       4.694  -6.876  21.790  0.00  0.00    +0.292 HD
ENDBRANCH  29  32
ENDBRANCH  24  26
ENDBRANCH  23  24
ENDBRANCH  22  23
ENDBRANCH  21  22
ENDBRANCH  18  21
ENDBRANCH  16  17
ENDBRANCH  15  16
ENDBRANCH  12  15
ENDBRANCH  10  11
BRANCH  10  34
ATOM     34  O   UNL     1       8.919   0.256  25.612  0.00  0.00    -0.382 OA
ATOM     35  H   UNL     1       8.078   0.534  25.202  0.00  0.00    +0.210 HD
ENDBRANCH  10  34
ENDBRANCH   8  10
ENDBRANCH   6   8
ENDBRANCH   5   6
ENDBRANCH   1   5
BRANCH   1  36
ATOM     36  O   UNL     1       8.231   2.058  23.291  0.00  0.00    -0.186 OA
BRANCH  36  37
ATOM     37  P   UNL     1       8.013   3.640  23.572  0.00  0.00    +0.483 P 
ATOM     38  O   UNL     1       9.369   4.335  23.428  0.00  0.00    -0.227 OA
BRANCH  37  39
ATOM     39  O   UNL     1       7.796   3.899  21.874  0.00  0.00    -0.302 OA
ATOM     40  H   UNL     1       6.820   3.955  21.788  0.00  0.00    +0.222 HD
ENDBRANCH  37  39
BRANCH  37  41
ATOM     41  O   UNL     1       8.230   3.381  25.268  0.00  0.00    -0.284 OA
BRANCH  41  42
ATOM     42  C   UNL     1       7.997   4.530  26.100  0.00  0.00    +0.206 C 
BRANCH  42  43
ATOM     43  C   UNL     1       6.696   4.415  26.901  0.00  0.00    +0.179 C 
ATOM     44  C   UNL     1       6.507   3.082  27.623  0.00  0.00    +0.194 C 
ATOM     45  C   UNL     1       4.980   2.902  27.654  0.00  0.00    +0.196 C 
ATOM     46  C   UNL     1       4.446   4.039  26.762  0.00  0.00    +0.253 C 
ATOM     47  O   UNL     1       5.573   4.540  26.023  0.00  0.00    -0.346 OA
BRANCH  46  48
ATOM     48  N   UNL     1       3.380   3.709  25.843  0.00  0.00    -0.286 N 
ATOM     49  C   UNL     1       3.340   4.008  24.508  0.00  0.00    +0.167 A 
ATOM     50  C   UNL     1       2.277   3.273  24.011  0.00  0.00    +0.147 A 
ATOM     51  C   UNL     1       2.041   3.355  22.629  0.00  0.00    +0.147 A 
ATOM     52  N   UNL     1       2.803   4.198  21.896  0.00  0.00    -0.219 NA
ATOM     53  C   UNL     1       3.795   4.871  22.517  0.00  0.00    +0.225 A 
ATOM     54  N   UNL     1       1.652   2.567  25.017  0.00  0.00    -0.231 NA
ATOM     55  N   UNL     1       4.165   4.816  23.817  0.00  0.00    -0.216 NA
ATOM     56  C   UNL     1       2.340   2.851  26.103  0.00  0.00    +0.203 A 
BRANCH  51  57
ATOM     57  N   UNL     1       1.062   2.612  21.985  0.00  0.00    -0.341 N 
ATOM     58  H   UNL     1       1.438   1.988  21.284  0.00  0.00    +0.144 HD
ATOM     59  H   UNL     1       0.229   3.143  21.757  0.00  0.00    +0.144 HD
ENDBRANCH  51  57
ENDBRANCH  46  48
BRANCH  45  60
ATOM     60  O   UNL     1       4.425   2.988  28.977  0.00  0.00    -0.385 OA
ATOM     61  H   UNL     1       3.968   2.128  29.111  0.00  0.00    +0.210 HD
ENDBRANCH  45  60
BRANCH  44  62
ATOM     62  O   UNL     1       7.139   3.140  28.885  0.00  0.00    -0.278 OA
BRANCH  62  63
ATOM     63  P   UNL     1       7.474   1.783  29.662  0.00  0.00    +0.473 P 
ATOM     64  O   UNL     1       6.370   1.151  30.436  0.00  0.00    -0.228 OA
BRANCH  63  65
ATOM     65  O   UNL     1       8.029   0.860  28.486  0.00  0.00    -0.303 OA
ATOM     66  H   UNL     1       7.684  -0.047  28.551  0.00  0.00    +0.222 HD
ENDBRANCH  63  65
BRANCH  63  67
ATOM     67  O   UNL     1       8.791   2.144  30.485  0.00  0.00    -0.303 OA
ATOM     68  H   UNL     1       8.612   2.882  31.096  0.00  0.00    +0.222 HD
ENDBRANCH  63  67
ENDBRANCH  62  63
ENDBRANCH  44  62
ENDBRANCH  42  43
ENDBRANCH  41  42
ENDBRANCH  37  41
ENDBRANCH  36  37
ENDBRANCH   1  36
TORSDOF 29
ENDMDL
MODEL 6
REMARK VINA RESULT:      -5.1      3.449      7.649
REMARK  Name = 
REMARK  31 active torsions:
REMARK  status: ('A' for Active; 'I' for Inactive)
REMARK    1  A    between atoms: C_1  and  C_2
REMARK    2  A    between atoms: C_2  and  C_3
REMARK    3  A    between atoms: C_2  and  C_4
REMARK    4  A    between atoms: C_2  and  C_40
REMARK    5  A    between atoms: C_4  and  O_5
REMARK    6  A    between atoms: O_5  and  P_6
REMARK    7  A    between atoms: P_6  and  O_7
REMARK    8  A    between atoms: P_6  and  O_9
REMARK    9  A    between atoms: O_9  and  P_10
REMARK   10  A    between atoms: P_10  and  O_11
REMARK   11  A    between atoms: P_10  and  O_13
REMARK   12  A    between atoms: O_13  and  C_14
REMARK   13  A    between atoms: C_14  and  C_15
REMARK   14  A    between atoms: C_18  and  N_30
REMARK   15  A    between atoms: C_20  and  O_22
REMARK   16  A    between atoms: C_23  and  O_25
REMARK   17  A    between atoms: O_25  and  P_26
REMARK   18  A    between atoms: P_26  and  O_27
REMARK   19  A    between atoms: P_26  and  O_28
REMARK   20  A    between atoms: C_34  and  N_35
REMARK   21  A    between atoms: C_40  and  O_42
REMARK   22  A    between atoms: C_40  and  C_43
REMARK   23  A    between atoms: N_45  and  C_46
REMARK   24  A    between atoms: C_46  and  C_47
REMARK   25  A    between atoms: C_47  and  C_48
REMARK   26  A    between atoms: N_50  and  C_51
REMARK   27  A    between atoms: C_51  and  C_52
REMARK   28  A    between atoms: C_52  and  S_53
REMARK   29  A    between atoms: S_53  and  C_54
REMARK   30  A    between atoms: C_54  and  C_56
REMARK   31  A    between atoms: C_59  and  O_60
REMARK                            x       y       z     vdW  Elec       q    Type
REMARK                         _______ _______ _______ _____ _____    ______ ____
ROOT
ATOM      1  P   UNL     1       6.797   4.528  27.629  0.00  0.00    +0.483 P 
ATOM      2  O   UNL     1       7.940   5.336  27.107  0.00  0.00    -0.227 OA
ENDROOT
BRANCH   1   3
ATOM      3  O   UNL     1       5.951   5.318  28.735  0.00  0.00    -0.302 OA
ATOM      4  H   UNL     1       5.988   6.282  28.592  0.00  0.00    +0.222 HD
ENDBRANCH   1   3
BRANCH   1   5
ATOM      5  O   UNL     1       5.696   4.140  26.529  0.00  0.00    -0.286 OA
BRANCH   5   6
ATOM      6  C   UNL     1       5.971   4.500  25.182  0.00  0.00    +0.181 C 
BRANCH   6   8
ATOM      7  C   UNL     1       4.876   5.066  23.004  0.00  0.00    +0.016 C 
ATOM      8  C   UNL     1       4.778   4.151  24.252  0.00  0.00    +0.024 C 
ATOM      9  C   UNL     1       4.882   2.698  23.750  0.00  0.00    +0.016 C 
BRANCH   8  10
ATOM     10  C   UNL     1       3.423   4.399  24.994  0.00  0.00    +0.208 C 
BRANCH  10  11
ATOM     11  C   UNL     1       2.596   3.119  25.286  0.00  0.00    +0.242 C 
ATOM     12  N   UNL     1       2.913   2.497  26.479  0.00  0.00    -0.313 N 
ATOM     13  H   UNL     1       3.250   3.127  27.208  0.00  0.00    +0.149 HD
ATOM     14  O   UNL     1       1.777   2.638  24.508  0.00  0.00    -0.273 OA
BRANCH  12  15
ATOM     15  C   UNL     1       2.140   1.345  26.923  0.00  0.00    +0.113 C 
BRANCH  15  16
ATOM     16  C   UNL     1       1.729   1.419  28.388  0.00  0.00    +0.114 C 
BRANCH  16  17
ATOM     17  C   UNL     1       2.593   0.541  29.264  0.00  0.00    +0.215 C 
ATOM     18  N   UNL     1       2.930  -0.662  28.689  0.00  0.00    -0.314 N 
ATOM     19  H   UNL     1       2.470  -0.959  27.838  0.00  0.00    +0.149 HD
ATOM     20  O   UNL     1       2.979   0.875  30.378  0.00  0.00    -0.276 OA
BRANCH  18  21
ATOM     21  C   UNL     1       3.751  -1.629  29.400  0.00  0.00    +0.115 C 
BRANCH  21  22
ATOM     22  C   UNL     1       4.126  -2.854  28.560  0.00  0.00    +0.096 C 
BRANCH  22  23
ATOM     23  S   UNL     1       5.526  -2.442  27.471  0.00  0.00    -0.082 S 
BRANCH  23  24
ATOM     24  C   UNL     1       4.775  -2.654  25.890  0.00  0.00    +0.220 C 
ATOM     25  O   UNL     1       4.456  -1.697  25.196  0.00  0.00    -0.280 OA
BRANCH  24  26
ATOM     26  C   UNL     1       4.498  -4.057  25.459  0.00  0.00    +0.029 A 
ATOM     27  C   UNL     1       3.471  -4.280  24.532  0.00  0.00    +0.016 A 
ATOM     28  C   UNL     1       3.179  -5.578  24.100  0.00  0.00    +0.046 A 
ATOM     29  C   UNL     1       3.922  -6.649  24.582  0.00  0.00    +0.117 A 
ATOM     30  C   UNL     1       4.943  -6.450  25.500  0.00  0.00    +0.046 A 
ATOM     31  C   UNL     1       5.233  -5.155  25.937  0.00  0.00    +0.016 A 
BRANCH  29  32
ATOM     32  O   UNL     1       3.627  -7.895  24.118  0.00  0.00    -0.507 OA
ATOM     33  H   UNL     1       4.397  -8.471  24.257  0.00  0.00    +0.292 HD
ENDBRANCH  29  32
ENDBRANCH  24  26
ENDBRANCH  23  24
ENDBRANCH  22  23
ENDBRANCH  21  22
ENDBRANCH  18  21
ENDBRANCH  16  17
ENDBRANCH  15  16
ENDBRANCH  12  15
ENDBRANCH  10  11
BRANCH  10  34
ATOM     34  O   UNL     1       2.575   5.317  24.296  0.00  0.00    -0.382 OA
ATOM     35  H   UNL     1       3.099   6.109  24.070  0.00  0.00    +0.210 HD
ENDBRANCH  10  34
ENDBRANCH   8  10
ENDBRANCH   6   8
ENDBRANCH   5   6
ENDBRANCH   1   5
BRANCH   1  36
ATOM     36  O   UNL     1       7.194   3.170  28.355  0.00  0.00    -0.186 OA
BRANCH  36  37
ATOM     37  P   UNL     1       6.236   1.881  28.142  0.00  0.00    +0.483 P 
ATOM     38  O   UNL     1       6.304   1.027  29.410  0.00  0.00    -0.227 OA
BRANCH  37  39
ATOM     39  O   UNL     1       4.934   2.739  28.892  0.00  0.00    -0.302 OA
ATOM     40  H   UNL     1       5.291   2.937  29.784  0.00  0.00    +0.222 HD
ENDBRANCH  37  39
BRANCH  37  41
ATOM     41  O   UNL     1       7.536   1.022  27.391  0.00  0.00    -0.284 OA
BRANCH  41  42
ATOM     42  C   UNL     1       7.516   1.007  25.954  0.00  0.00    +0.206 C 
BRANCH  42  43
ATOM     43  C   UNL     1       8.607   0.107  25.366  0.00  0.00    +0.179 C 
ATOM     44  C   UNL     1       8.931   0.374  23.896  0.00  0.00    +0.194 C 
ATOM     45  C   UNL     1       9.376  -1.001  23.369  0.00  0.00    +0.196 C 
ATOM     46  C   UNL     1       9.063  -1.969  24.526  0.00  0.00    +0.253 C 
ATOM     47  O   UNL     1       8.193  -1.262  25.426  0.00  0.00    -0.346 OA
BRANCH  46  48
ATOM     48  N   UNL     1       8.462  -3.237  24.178  0.00  0.00    -0.286 N 
ATOM     49  C   UNL     1       7.433  -3.432  23.297  0.00  0.00    +0.167 A 
ATOM     50  C   UNL     1       7.388  -4.802  23.100  0.00  0.00    +0.147 A 
ATOM     51  C   UNL     1       6.439  -5.279  22.181  0.00  0.00    +0.147 A 
ATOM     52  N   UNL     1       5.587  -4.393  21.618  0.00  0.00    -0.219 NA
ATOM     53  C   UNL     1       5.732  -3.084  21.918  0.00  0.00    +0.225 A 
ATOM     54  N   UNL     1       8.338  -5.442  23.867  0.00  0.00    -0.231 NA
ATOM     55  N   UNL     1       6.650  -2.501  22.721  0.00  0.00    -0.216 NA
ATOM     56  C   UNL     1       8.965  -4.473  24.501  0.00  0.00    +0.203 A 
BRANCH  51  57
ATOM     57  N   UNL     1       6.337  -6.618  21.828  0.00  0.00    -0.341 N 
ATOM     58  H   UNL     1       5.976  -7.196  22.574  0.00  0.00    +0.144 HD
ATOM     59  H   UNL     1       7.127  -6.961  21.294  0.00  0.00    +0.144 HD
ENDBRANCH  51  57
ENDBRANCH  46  48
BRANCH  45  60
ATOM     60  O   UNL     1      10.769  -1.053  23.024  0.00  0.00    -0.385 OA
ATOM     61  H   UNL     1      11.152  -1.725  23.632  0.00  0.00    +0.210 HD
ENDBRANCH  45  60
BRANCH  44  62
ATOM     62  O   UNL     1       9.896   1.401  23.810  0.00  0.00    -0.278 OA
BRANCH  62  63
ATOM     63  P   UNL     1       9.617   2.669  22.876  0.00  0.00    +0.473 P 
ATOM     64  O   UNL     1       8.346   3.412  23.097  0.00  0.00    -0.228 OA
BRANCH  63  65
ATOM     65  O   UNL     1      10.919   3.555  23.130  0.00  0.00    -0.303 OA
ATOM     66  H   UNL     1      10.687   4.461  23.398  0.00  0.00    +0.222 HD
ENDBRANCH  63  65
BRANCH  63  67
ATOM     67  O   UNL     1       9.853   2.103  21.404  0.00  0.00    -0.303 OA
ATOM     68  H   UNL     1      10.235   1.207  21.447  0.00  0.00    +0.222 HD
ENDBRANCH  63  67
ENDBRANCH  62  63
ENDBRANCH  44  62
ENDBRANCH  42  43
ENDBRANCH  41  42
ENDBRANCH  37  41
ENDBRANCH  36  37
ENDBRANCH   1  36
TORSDOF 29
ENDMDL
MODEL 7
REMARK VINA RESULT:      -5.0      2.540      6.212
REMARK  Name = 
REMARK  31 active torsions:
REMARK  status: ('A' for Active; 'I' for Inactive)
REMARK    1  A    between atoms: C_1  and  C_2
REMARK    2  A    between atoms: C_2  and  C_3
REMARK    3  A    between atoms: C_2  and  C_4
REMARK    4  A    between atoms: C_2  and  C_40
REMARK    5  A    between atoms: C_4  and  O_5
REMARK    6  A    between atoms: O_5  and  P_6
REMARK    7  A    between atoms: P_6  and  O_7
REMARK    8  A    between atoms: P_6  and  O_9
REMARK    9  A    between atoms: O_9  and  P_10
REMARK   10  A    between atoms: P_10  and  O_11
REMARK   11  A    between atoms: P_10  and  O_13
REMARK   12  A    between atoms: O_13  and  C_14
REMARK   13  A    between atoms: C_14  and  C_15
REMARK   14  A    between atoms: C_18  and  N_30
REMARK   15  A    between atoms: C_20  and  O_22
REMARK   16  A    between atoms: C_23  and  O_25
REMARK   17  A    between atoms: O_25  and  P_26
REMARK   18  A    between atoms: P_26  and  O_27
REMARK   19  A    between atoms: P_26  and  O_28
REMARK   20  A    between atoms: C_34  and  N_35
REMARK   21  A    between atoms: C_40  and  O_42
REMARK   22  A    between atoms: C_40  and  C_43
REMARK   23  A    between atoms: N_45  and  C_46
REMARK   24  A    between atoms: C_46  and  C_47
REMARK   25  A    between atoms: C_47  and  C_48
REMARK   26  A    between atoms: N_50  and  C_51
REMARK   27  A    between atoms: C_51  and  C_52
REMARK   28  A    between atoms: C_52  and  S_53
REMARK   29  A    between atoms: S_53  and  C_54
REMARK   30  A    between atoms: C_54  and  C_56
REMARK   31  A    between atoms: C_59  and  O_60
REMARK                            x       y       z     vdW  Elec       q    Type
REMARK                         _______ _______ _______ _____ _____    ______ ____
ROOT
ATOM      1  P   UNL     1       8.806  -2.787  23.940  0.00  0.00    +0.483 P 
ATOM      2  O   UNL     1       8.233  -3.086  22.593  0.00  0.00    -0.227 OA
ENDROOT
BRANCH   1   3
ATOM      3  O   UNL     1      10.285  -3.379  24.114  0.00  0.00    -0.302 OA
ATOM      4  H   UNL     1      10.269  -4.265  24.521  0.00  0.00    +0.222 HD
ENDBRANCH   1   3
BRANCH   1   5
ATOM      5  O   UNL     1       8.994  -1.226  24.255  0.00  0.00    -0.286 OA
BRANCH   5   6
ATOM      6  C   UNL     1       9.735  -0.460  23.314  0.00  0.00    +0.181 C 
BRANCH   6   8
ATOM      7  C   UNL     1       8.796   1.530  24.505  0.00  0.00    +0.016 C 
ATOM      8  C   UNL     1       9.097   0.939  23.103  0.00  0.00    +0.024 C 
ATOM      9  C   UNL     1      10.092   1.897  22.419  0.00  0.00    +0.016 C 
BRANCH   8  10
ATOM     10  C   UNL     1       7.774   0.814  22.278  0.00  0.00    +0.208 C 
BRANCH  10  11
ATOM     11  C   UNL     1       6.876   2.079  22.288  0.00  0.00    +0.242 C 
ATOM     12  N   UNL     1       5.612   1.876  22.809  0.00  0.00    -0.313 N 
ATOM     13  H   UNL     1       5.560   1.144  23.518  0.00  0.00    +0.149 HD
ATOM     14  O   UNL     1       7.211   3.161  21.814  0.00  0.00    -0.273 OA
BRANCH  12  15
ATOM     15  C   UNL     1       4.706   3.004  22.972  0.00  0.00    +0.113 C 
BRANCH  15  16
ATOM     16  C   UNL     1       3.962   2.997  24.301  0.00  0.00    +0.114 C 
BRANCH  16  17
ATOM     17  C   UNL     1       4.728   2.261  25.376  0.00  0.00    +0.215 C 
ATOM     18  N   UNL     1       5.557   3.067  26.122  0.00  0.00    -0.314 N 
ATOM     19  H   UNL     1       5.736   4.018  25.823  0.00  0.00    +0.149 HD
ATOM     20  O   UNL     1       4.611   1.058  25.581  0.00  0.00    -0.276 OA
BRANCH  18  21
ATOM     21  C   UNL     1       6.372   2.517  27.193  0.00  0.00    +0.115 C 
BRANCH  21  22
ATOM     22  C   UNL     1       6.892   3.573  28.174  0.00  0.00    +0.096 C 
BRANCH  22  23
ATOM     23  S   UNL     1       6.241   5.209  27.711  0.00  0.00    -0.082 S 
BRANCH  23  24
ATOM     24  C   UNL     1       7.671   5.924  26.968  0.00  0.00    +0.220 C 
ATOM     25  O   UNL     1       8.585   6.381  27.642  0.00  0.00    -0.280 OA
BRANCH  24  26
ATOM     26  C   UNL     1       7.691   5.993  25.476  0.00  0.00    +0.029 A 
ATOM     27  C   UNL     1       6.479   6.191  24.801  0.00  0.00    +0.016 A 
ATOM     28  C   UNL     1       6.452   6.263  23.405  0.00  0.00    +0.046 A 
ATOM     29  C   UNL     1       7.636   6.152  22.685  0.00  0.00    +0.117 A 
ATOM     30  C   UNL     1       8.846   5.955  23.334  0.00  0.00    +0.046 A 
ATOM     31  C   UNL     1       8.875   5.877  24.728  0.00  0.00    +0.016 A 
BRANCH  29  32
ATOM     32  O   UNL     1       7.573   6.254  21.328  0.00  0.00    -0.507 OA
ATOM     33  H   UNL     1       6.775   5.797  21.017  0.00  0.00    +0.292 HD
ENDBRANCH  29  32
ENDBRANCH  24  26
ENDBRANCH  23  24
ENDBRANCH  22  23
ENDBRANCH  21  22
ENDBRANCH  18  21
ENDBRANCH  16  17
ENDBRANCH  15  16
ENDBRANCH  12  15
ENDBRANCH  10  11
BRANCH  10  34
ATOM     34  O   UNL     1       6.970  -0.295  22.695  0.00  0.00    -0.382 OA
ATOM     35  H   UNL     1       6.198  -0.356  22.101  0.00  0.00    +0.210 HD
ENDBRANCH  10  34
ENDBRANCH   8  10
ENDBRANCH   6   8
ENDBRANCH   5   6
ENDBRANCH   1   5
BRANCH   1  36
ATOM     36  O   UNL     1       8.008  -3.395  25.174  0.00  0.00    -0.186 OA
BRANCH  36  37
ATOM     37  P   UNL     1       8.044  -5.001  25.390  0.00  0.00    +0.483 P 
ATOM     38  O   UNL     1       8.873  -5.611  24.258  0.00  0.00    -0.227 OA
BRANCH  37  39
ATOM     39  O   UNL     1       9.524  -4.837  26.272  0.00  0.00    -0.302 OA
ATOM     40  H   UNL     1       9.556  -5.665  26.797  0.00  0.00    +0.222 HD
ENDBRANCH  37  39
BRANCH  37  41
ATOM     41  O   UNL     1       6.564  -5.166  24.510  0.00  0.00    -0.284 OA
BRANCH  41  42
ATOM     42  C   UNL     1       5.642  -4.072  24.645  0.00  0.00    +0.206 C 
BRANCH  42  43
ATOM     43  C   UNL     1       4.746  -4.215  25.880  0.00  0.00    +0.179 C 
ATOM     44  C   UNL     1       3.431  -4.952  25.632  0.00  0.00    +0.194 C 
ATOM     45  C   UNL     1       2.466  -4.323  26.651  0.00  0.00    +0.196 C 
ATOM     46  C   UNL     1       3.257  -3.139  27.240  0.00  0.00    +0.253 C 
ATOM     47  O   UNL     1       4.375  -2.920  26.364  0.00  0.00    -0.346 OA
BRANCH  46  48
ATOM     48  N   UNL     1       2.543  -1.896  27.424  0.00  0.00    -0.286 N 
ATOM     49  C   UNL     1       3.000  -0.788  28.085  0.00  0.00    +0.167 A 
ATOM     50  C   UNL     1       2.095   0.212  27.770  0.00  0.00    +0.147 A 
ATOM     51  C   UNL     1       2.361   1.491  28.284  0.00  0.00    +0.147 A 
ATOM     52  N   UNL     1       3.423   1.645  29.109  0.00  0.00    -0.219 NA
ATOM     53  C   UNL     1       4.211   0.575  29.346  0.00  0.00    +0.225 A 
ATOM     54  N   UNL     1       1.084  -0.272  26.968  0.00  0.00    -0.231 NA
ATOM     55  N   UNL     1       4.101  -0.678  28.851  0.00  0.00    -0.216 NA
ATOM     56  C   UNL     1       1.384  -1.540  26.778  0.00  0.00    +0.203 A 
BRANCH  51  57
ATOM     57  N   UNL     1       1.585   2.602  27.985  0.00  0.00    -0.341 N 
ATOM     58  H   UNL     1       1.738   2.949  27.048  0.00  0.00    +0.144 HD
ATOM     59  H   UNL     1       1.523   3.273  28.742  0.00  0.00    +0.144 HD
ENDBRANCH  51  57
ENDBRANCH  46  48
BRANCH  45  60
ATOM     60  O   UNL     1       2.063  -5.232  27.687  0.00  0.00    -0.385 OA
ATOM     61  H   UNL     1       1.157  -4.941  27.936  0.00  0.00    +0.210 HD
ENDBRANCH  45  60
BRANCH  44  62
ATOM     62  O   UNL     1       3.642  -6.342  25.770  0.00  0.00    -0.278 OA
BRANCH  62  63
ATOM     63  P   UNL     1       3.327  -7.313  24.539  0.00  0.00    +0.473 P 
ATOM     64  O   UNL     1       2.698  -8.626  24.851  0.00  0.00    -0.228 OA
BRANCH  63  65
ATOM     65  O   UNL     1       2.420  -6.384  23.613  0.00  0.00    -0.303 OA
ATOM     66  H   UNL     1       2.861  -6.183  22.769  0.00  0.00    +0.222 HD
ENDBRANCH  63  65
BRANCH  63  67
ATOM     67  O   UNL     1       4.710  -7.366  23.748  0.00  0.00    -0.303 OA
ATOM     68  H   UNL     1       5.157  -6.501  23.796  0.00  0.00    +0.222 HD
ENDBRANCH  63  67
ENDBRANCH  62  63
ENDBRANCH  44  62
ENDBRANCH  42  43
ENDBRANCH  41  42
ENDBRANCH  37  41
ENDBRANCH  36  37
ENDBRANCH   1  36
TORSDOF 29
ENDMDL
MODEL 8
REMARK VINA RESULT:      -5.0      4.042      9.488
REMARK  Name = 
REMARK  31 active torsions:
REMARK  status: ('A' for Active; 'I' for Inactive)
REMARK    1  A    between atoms: C_1  and  C_2
REMARK    2  A    between atoms: C_2  and  C_3
REMARK    3  A    between atoms: C_2  and  C_4
REMARK    4  A    between atoms: C_2  and  C_40
REMARK    5  A    between atoms: C_4  and  O_5
REMARK    6  A    between atoms: O_5  and  P_6
REMARK    7  A    between atoms: P_6  and  O_7
REMARK    8  A    between atoms: P_6  and  O_9
REMARK    9  A    between atoms: O_9  and  P_10
REMARK   10  A    between atoms: P_10  and  O_11
REMARK   11  A    between atoms: P_10  and  O_13
REMARK   12  A    between atoms: O_13  and  C_14
REMARK   13  A    between atoms: C_14  and  C_15
REMARK   14  A    between atoms: C_18  and  N_30
REMARK   15  A    between atoms: C_20  and  O_22
REMARK   16  A    between atoms: C_23  and  O_25
REMARK   17  A    between atoms: O_25  and  P_26
REMARK   18  A    between atoms: P_26  and  O_27
REMARK   19  A    between atoms: P_26  and  O_28
REMARK   20  A    between atoms: C_34  and  N_35
REMARK   21  A    between atoms: C_40  and  O_42
REMARK   22  A    between atoms: C_40  and  C_43
REMARK   23  A    between atoms: N_45  and  C_46
REMARK   24  A    between atoms: C_46  and  C_47
REMARK   25  A    between atoms: C_47  and  C_48
REMARK   26  A    between atoms: N_50  and  C_51
REMARK   27  A    between atoms: C_51  and  C_52
REMARK   28  A    between atoms: C_52  and  S_53
REMARK   29  A    between atoms: S_53  and  C_54
REMARK   30  A    between atoms: C_54  and  C_56
REMARK   31  A    between atoms: C_59  and  O_60
REMARK                            x       y       z     vdW  Elec       q    Type
REMARK                         _______ _______ _______ _____ _____    ______ ____
ROOT
ATOM      1  P   UNL     1       9.116   2.172  23.101  0.00  0.00    +0.483 P 
ATOM      2  O   UNL     1       9.937   1.797  24.291  0.00  0.00    -0.227 OA
ENDROOT
BRANCH   1   3
ATOM      3  O   UNL     1      10.010   2.760  21.909  0.00  0.00    -0.302 OA
ATOM      4  H   UNL     1      10.395   3.624  22.145  0.00  0.00    +0.222 HD
ENDBRANCH   1   3
BRANCH   1   5
ATOM      5  O   UNL     1       8.340   0.949  22.412  0.00  0.00    -0.286 OA
BRANCH   5   6
ATOM      6  C   UNL     1       7.902  -0.102  23.263  0.00  0.00    +0.181 C 
BRANCH   6   8
ATOM      7  C   UNL     1       7.530  -2.527  22.775  0.00  0.00    +0.016 C 
ATOM      8  C   UNL     1       8.620  -1.435  22.924  0.00  0.00    +0.024 C 
ATOM      9  C   UNL     1       9.344  -1.338  21.567  0.00  0.00    +0.016 C 
BRANCH   8  10
ATOM     10  C   UNL     1       9.614  -1.822  24.069  0.00  0.00    +0.208 C 
BRANCH  10  11
ATOM     11  C   UNL     1       9.337  -3.194  24.738  0.00  0.00    +0.242 C 
ATOM     12  N   UNL     1       8.610  -3.117  25.912  0.00  0.00    -0.313 N 
ATOM     13  H   UNL     1       7.965  -2.328  25.959  0.00  0.00    +0.149 HD
ATOM     14  O   UNL     1       9.775  -4.262  24.321  0.00  0.00    -0.273 OA
BRANCH  12  15
ATOM     15  C   UNL     1       8.192  -4.340  26.585  0.00  0.00    +0.113 C 
BRANCH  15  16
ATOM     16  C   UNL     1       6.684  -4.438  26.781  0.00  0.00    +0.114 C 
BRANCH  16  17
ATOM     17  C   UNL     1       6.324  -5.206  28.032  0.00  0.00    +0.215 C 
ATOM     18  N   UNL     1       5.284  -4.656  28.745  0.00  0.00    -0.314 N 
ATOM     19  H   UNL     1       4.949  -3.730  28.511  0.00  0.00    +0.149 HD
ATOM     20  O   UNL     1       6.890  -6.238  28.374  0.00  0.00    -0.276 OA
BRANCH  18  21
ATOM     21  C   UNL     1       4.816  -5.265  29.979  0.00  0.00    +0.115 C 
BRANCH  21  22
ATOM     22  C   UNL     1       3.569  -6.137  29.800  0.00  0.00    +0.096 C 
BRANCH  22  23
ATOM     23  S   UNL     1       2.391  -5.296  28.696  0.00  0.00    -0.082 S 
BRANCH  23  24
ATOM     24  C   UNL     1       2.374  -6.416  27.334  0.00  0.00    +0.220 C 
ATOM     25  O   UNL     1       1.909  -7.544  27.435  0.00  0.00    -0.280 OA
BRANCH  24  26
ATOM     26  C   UNL     1       3.000  -5.941  26.064  0.00  0.00    +0.029 A 
ATOM     27  C   UNL     1       3.707  -6.865  25.282  0.00  0.00    +0.016 A 
ATOM     28  C   UNL     1       4.308  -6.463  24.085  0.00  0.00    +0.046 A 
ATOM     29  C   UNL     1       4.191  -5.144  23.662  0.00  0.00    +0.117 A 
ATOM     30  C   UNL     1       3.497  -4.213  24.423  0.00  0.00    +0.046 A 
ATOM     31  C   UNL     1       2.901  -4.611  25.622  0.00  0.00    +0.016 A 
BRANCH  29  32
ATOM     32  O   UNL     1       4.767  -4.796  22.478  0.00  0.00    -0.507 OA
ATOM     33  H   UNL     1       4.756  -3.828  22.398  0.00  0.00    +0.292 HD
ENDBRANCH  29  32
ENDBRANCH  24  26
ENDBRANCH  23  24
ENDBRANCH  22  23
ENDBRANCH  21  22
ENDBRANCH  18  21
ENDBRANCH  16  17
ENDBRANCH  15  16
ENDBRANCH  12  15
ENDBRANCH  10  11
BRANCH  10  34
ATOM     34  O   UNL     1       9.670  -0.834  25.104  0.00  0.00    -0.382 OA
ATOM     35  H   UNL     1      10.578  -0.816  25.464  0.00  0.00    +0.210 HD
ENDBRANCH  10  34
ENDBRANCH   8  10
ENDBRANCH   6   8
ENDBRANCH   5   6
ENDBRANCH   1   5
BRANCH   1  36
ATOM     36  O   UNL     1       8.026   3.303  23.350  0.00  0.00    -0.186 OA
BRANCH  36  37
ATOM     37  P   UNL     1       8.493   4.659  24.107  0.00  0.00    +0.483 P 
ATOM     38  O   UNL     1      10.022   4.653  24.186  0.00  0.00    -0.227 OA
BRANCH  37  39
ATOM     39  O   UNL     1       8.660   5.444  22.574  0.00  0.00    -0.302 OA
ATOM     40  H   UNL     1       9.337   6.130  22.755  0.00  0.00    +0.222 HD
ENDBRANCH  37  39
BRANCH  37  41
ATOM     41  O   UNL     1       8.326   3.876  25.640  0.00  0.00    -0.284 OA
BRANCH  41  42
ATOM     42  C   UNL     1       7.399   4.493  26.549  0.00  0.00    +0.206 C 
BRANCH  42  43
ATOM     43  C   UNL     1       5.974   3.957  26.380  0.00  0.00    +0.179 C 
ATOM     44  C   UNL     1       5.888   2.481  25.993  0.00  0.00    +0.194 C 
ATOM     45  C   UNL     1       4.591   2.398  25.172  0.00  0.00    +0.196 C 
ATOM     46  C   UNL     1       4.167   3.867  24.984  0.00  0.00    +0.253 C 
ATOM     47  O   UNL     1       5.308   4.669  25.332  0.00  0.00    -0.346 OA
BRANCH  46  48
ATOM     48  N   UNL     1       3.694   4.254  23.673  0.00  0.00    -0.286 N 
ATOM     49  C   UNL     1       2.558   3.803  23.056  0.00  0.00    +0.167 A 
ATOM     50  C   UNL     1       2.392   4.638  21.964  0.00  0.00    +0.147 A 
ATOM     51  C   UNL     1       1.252   4.426  21.172  0.00  0.00    +0.147 A 
ATOM     52  N   UNL     1       0.444   3.384  21.474  0.00  0.00    -0.219 NA
ATOM     53  C   UNL     1       0.739   2.637  22.559  0.00  0.00    +0.225 A 
ATOM     54  N   UNL     1       3.417   5.557  21.885  0.00  0.00    -0.231 NA
ATOM     55  N   UNL     1       1.758   2.790  23.435  0.00  0.00    -0.216 NA
ATOM     56  C   UNL     1       4.179   5.299  22.927  0.00  0.00    +0.203 A 
BRANCH  51  57
ATOM     57  N   UNL     1       0.918   5.237  20.096  0.00  0.00    -0.341 N 
ATOM     58  H   UNL     1       0.357   4.760  19.403  0.00  0.00    +0.144 HD
ATOM     59  H   UNL     1       1.679   5.825  19.776  0.00  0.00    +0.144 HD
ENDBRANCH  51  57
ENDBRANCH  46  48
BRANCH  45  60
ATOM     60  O   UNL     1       3.553   1.647  25.822  0.00  0.00    -0.385 OA
ATOM     61  H   UNL     1       3.378   2.137  26.658  0.00  0.00    +0.210 HD
ENDBRANCH  45  60
BRANCH  44  62
ATOM     62  O   UNL     1       5.920   1.690  27.162  0.00  0.00    -0.278 OA
BRANCH  62  63
ATOM     63  P   UNL     1       7.080   0.603  27.347  0.00  0.00    +0.473 P 
ATOM     64  O   UNL     1       6.728  -0.820  27.089  0.00  0.00    -0.228 OA
BRANCH  63  65
ATOM     65  O   UNL     1       8.209   1.161  26.369  0.00  0.00    -0.303 OA
ATOM     66  H   UNL     1       9.089   0.822  26.610  0.00  0.00    +0.222 HD
ENDBRANCH  63  65
BRANCH  63  67
ATOM     67  O   UNL     1       7.666   0.931  28.793  0.00  0.00    -0.303 OA
ATOM     68  H   UNL     1       8.434   1.527  28.716  0.00  0.00    +0.222 HD
ENDBRANCH  63  67
ENDBRANCH  62  63
ENDBRANCH  44  62
ENDBRANCH  42  43
ENDBRANCH  41  42
ENDBRANCH  37  41
ENDBRANCH  36  37
ENDBRANCH   1  36
TORSDOF 29
ENDMDL
MODEL 9
REMARK VINA RESULT:      -5.0      3.700      9.361
REMARK  Name = 
REMARK  31 active torsions:
REMARK  status: ('A' for Active; 'I' for Inactive)
REMARK    1  A    between atoms: C_1  and  C_2
REMARK    2  A    between atoms: C_2  and  C_3
REMARK    3  A    between atoms: C_2  and  C_4
REMARK    4  A    between atoms: C_2  and  C_40
REMARK    5  A    between atoms: C_4  and  O_5
REMARK    6  A    between atoms: O_5  and  P_6
REMARK    7  A    between atoms: P_6  and  O_7
REMARK    8  A    between atoms: P_6  and  O_9
REMARK    9  A    between atoms: O_9  and  P_10
REMARK   10  A    between atoms: P_10  and  O_11
REMARK   11  A    between atoms: P_10  and  O_13
REMARK   12  A    between atoms: O_13  and  C_14
REMARK   13  A    between atoms: C_14  and  C_15
REMARK   14  A    between atoms: C_18  and  N_30
REMARK   15  A    between atoms: C_20  and  O_22
REMARK   16  A    between atoms: C_23  and  O_25
REMARK   17  A    between atoms: O_25  and  P_26
REMARK   18  A    between atoms: P_26  and  O_27
REMARK   19  A    between atoms: P_26  and  O_28
REMARK   20  A    between atoms: C_34  and  N_35
REMARK   21  A    between atoms: C_40  and  O_42
REMARK   22  A    between atoms: C_40  and  C_43
REMARK   23  A    between atoms: N_45  and  C_46
REMARK   24  A    between atoms: C_46  and  C_47
REMARK   25  A    between atoms: C_47  and  C_48
REMARK   26  A    between atoms: N_50  and  C_51
REMARK   27  A    between atoms: C_51  and  C_52
REMARK   28  A    between atoms: C_52  and  S_53
REMARK   29  A    between atoms: S_53  and  C_54
REMARK   30  A    between atoms: C_54  and  C_56
REMARK   31  A    between atoms: C_59  and  O_60
REMARK                            x       y       z     vdW  Elec       q    Type
REMARK                         _______ _______ _______ _____ _____    ______ ____
ROOT
ATOM      1  P   UNL     1       9.470   4.181  23.961  0.00  0.00    +0.483 P 
ATOM      2  O   UNL     1      10.714   5.008  23.925  0.00  0.00    -0.227 OA
ENDROOT
BRANCH   1   3
ATOM      3  O   UNL     1       8.633   4.284  22.600  0.00  0.00    -0.302 OA
ATOM      4  H   UNL     1       7.686   4.431  22.774  0.00  0.00    +0.222 HD
ENDBRANCH   1   3
BRANCH   1   5
ATOM      5  O   UNL     1       9.721   2.605  24.122  0.00  0.00    -0.286 OA
BRANCH   5   6
ATOM      6  C   UNL     1       8.622   1.744  23.854  0.00  0.00    +0.181 C 
BRANCH   6   8
ATOM      7  C   UNL     1       7.824  -0.379  22.796  0.00  0.00    +0.016 C 
ATOM      8  C   UNL     1       9.092   0.427  23.180  0.00  0.00    +0.024 C 
ATOM      9  C   UNL     1       9.848   0.721  21.869  0.00  0.00    +0.016 C 
BRANCH   8  10
ATOM     10  C   UNL     1       9.976  -0.403  24.169  0.00  0.00    +0.208 C 
BRANCH  10  11
ATOM     11  C   UNL     1       9.786  -1.940  24.082  0.00  0.00    +0.242 C 
ATOM     12  N   UNL     1       9.090  -2.488  25.143  0.00  0.00    -0.313 N 
ATOM     13  H   UNL     1       8.408  -1.861  25.571  0.00  0.00    +0.149 HD
ATOM     14  O   UNL     1      10.265  -2.642  23.195  0.00  0.00    -0.273 OA
BRANCH  12  15
ATOM     15  C   UNL     1       8.752  -3.905  25.134  0.00  0.00    +0.113 C 
BRANCH  15  16
ATOM     16  C   UNL     1       8.627  -4.508  26.527  0.00  0.00    +0.114 C 
BRANCH  16  17
ATOM     17  C   UNL     1       7.204  -4.904  26.847  0.00  0.00    +0.215 C 
ATOM     18  N   UNL     1       6.699  -5.883  26.023  0.00  0.00    -0.314 N 
ATOM     19  H   UNL     1       7.206  -6.149  25.188  0.00  0.00    +0.149 HD
ATOM     20  O   UNL     1       6.560  -4.415  27.768  0.00  0.00    -0.276 OA
BRANCH  18  21
ATOM     21  C   UNL     1       5.340  -6.375  26.189  0.00  0.00    +0.115 C 
BRANCH  21  22
ATOM     22  C   UNL     1       4.660  -6.758  24.871  0.00  0.00    +0.096 C 
BRANCH  22  23
ATOM     23  S   UNL     1       3.244  -5.653  24.572  0.00  0.00    -0.082 S 
BRANCH  23  24
ATOM     24  C   UNL     1       4.078  -4.219  23.973  0.00  0.00    +0.220 C 
ATOM     25  O   UNL     1       4.424  -4.118  22.803  0.00  0.00    -0.280 OA
BRANCH  24  26
ATOM     26  C   UNL     1       4.390  -3.155  24.973  0.00  0.00    +0.029 A 
ATOM     27  C   UNL     1       3.573  -3.045  26.107  0.00  0.00    +0.016 A 
ATOM     28  C   UNL     1       3.829  -2.063  27.070  0.00  0.00    +0.046 A 
ATOM     29  C   UNL     1       4.908  -1.203  26.908  0.00  0.00    +0.117 A 
ATOM     30  C   UNL     1       5.729  -1.294  25.792  0.00  0.00    +0.046 A 
ATOM     31  C   UNL     1       5.471  -2.270  24.826  0.00  0.00    +0.016 A 
BRANCH  29  32
ATOM     32  O   UNL     1       5.143  -0.277  27.879  0.00  0.00    -0.507 OA
ATOM     33  H   UNL     1       5.244  -0.736  28.729  0.00  0.00    +0.292 HD
ENDBRANCH  29  32
ENDBRANCH  24  26
ENDBRANCH  23  24
ENDBRANCH  22  23
ENDBRANCH  21  22
ENDBRANCH  18  21
ENDBRANCH  16  17
ENDBRANCH  15  16
ENDBRANCH  12  15
ENDBRANCH  10  11
BRANCH  10  34
ATOM     34  O   UNL     1       9.784  -0.015  25.534  0.00  0.00    -0.382 OA
ATOM     35  H   UNL     1      10.545  -0.336  26.056  0.00  0.00    +0.210 HD
ENDBRANCH  10  34
ENDBRANCH   8  10
ENDBRANCH   6   8
ENDBRANCH   5   6
ENDBRANCH   1   5
BRANCH   1  36
ATOM     36  O   UNL     1       8.417   4.578  25.084  0.00  0.00    -0.186 OA
BRANCH  36  37
ATOM     37  P   UNL     1       8.368   6.122  25.573  0.00  0.00    +0.483 P 
ATOM     38  O   UNL     1       9.807   6.588  25.808  0.00  0.00    -0.227 OA
BRANCH  37  39
ATOM     39  O   UNL     1       8.559   6.636  23.932  0.00  0.00    -0.302 OA
ATOM     40  H   UNL     1       8.886   7.556  24.030  0.00  0.00    +0.222 HD
ENDBRANCH  37  39
BRANCH  37  41
ATOM     41  O   UNL     1       8.177   5.610  27.214  0.00  0.00    -0.284 OA
BRANCH  41  42
ATOM     42  C   UNL     1       7.130   6.269  27.947  0.00  0.00    +0.206 C 
BRANCH  42  43
ATOM     43  C   UNL     1       5.925   5.356  28.190  0.00  0.00    +0.179 C 
ATOM     44  C   UNL     1       6.247   3.862  28.201  0.00  0.00    +0.194 C 
ATOM     45  C   UNL     1       4.953   3.210  27.688  0.00  0.00    +0.196 C 
ATOM     46  C   UNL     1       4.085   4.397  27.229  0.00  0.00    +0.253 C 
ATOM     47  O   UNL     1       4.962   5.534  27.146  0.00  0.00    -0.346 OA
BRANCH  46  48
ATOM     48  N   UNL     1       3.374   4.250  25.979  0.00  0.00    -0.286 N 
ATOM     49  C   UNL     1       3.927   3.951  24.763  0.00  0.00    +0.167 A 
ATOM     50  C   UNL     1       2.848   3.659  23.945  0.00  0.00    +0.147 A 
ATOM     51  C   UNL     1       3.139   3.261  22.631  0.00  0.00    +0.147 A 
ATOM     52  N   UNL     1       4.430   3.268  22.228  0.00  0.00    -0.219 NA
ATOM     53  C   UNL     1       5.382   3.596  23.129  0.00  0.00    +0.225 A 
ATOM     54  N   UNL     1       1.658   3.809  24.626  0.00  0.00    -0.231 NA
ATOM     55  N   UNL     1       5.231   3.920  24.433  0.00  0.00    -0.216 NA
ATOM     56  C   UNL     1       2.010   4.163  25.844  0.00  0.00    +0.203 A 
BRANCH  51  57
ATOM     57  N   UNL     1       2.163   2.862  21.728  0.00  0.00    -0.341 N 
ATOM     58  H   UNL     1       2.524   2.267  20.995  0.00  0.00    +0.144 HD
ATOM     59  H   UNL     1       1.516   3.600  21.474  0.00  0.00    +0.144 HD
ENDBRANCH  51  57
ENDBRANCH  46  48
BRANCH  45  60
ATOM     60  O   UNL     1       4.271   2.437  28.689  0.00  0.00    -0.385 OA
ATOM     61  H   UNL     1       4.030   1.598  28.235  0.00  0.00    +0.210 HD
ENDBRANCH  45  60
BRANCH  44  62
ATOM     62  O   UNL     1       6.648   3.481  29.500  0.00  0.00    -0.278 OA
BRANCH  62  63
ATOM     63  P   UNL     1       7.214   2.005  29.749  0.00  0.00    +0.473 P 
ATOM     64  O   UNL     1       6.313   1.037  30.434  0.00  0.00    -0.228 OA
BRANCH  63  65
ATOM     65  O   UNL     1       7.617   1.556  28.273  0.00  0.00    -0.303 OA
ATOM     66  H   UNL     1       8.398   0.976  28.278  0.00  0.00    +0.222 HD
ENDBRANCH  63  65
BRANCH  63  67
ATOM     67  O   UNL     1       8.626   2.263  30.443  0.00  0.00    -0.303 OA
ATOM     68  H   UNL     1       9.054   3.046  30.049  0.00  0.00    +0.222 HD
ENDBRANCH  63  67
ENDBRANCH  62  63
ENDBRANCH  44  62
ENDBRANCH  42  43
ENDBRANCH  41  42
ENDBRANCH  37  41
ENDBRANCH  36  37
ENDBRANCH   1  36
TORSDOF 29
ENDMDL
