MODEL 1
REMARK VINA RESULT:      -5.0      0.000      0.000
REMARK  Name = 
REMARK  0 active torsions:
REMARK  status: ('A' for Active; 'I' for Inactive)
REMARK                            x       y       z     vdW  Elec       q    Type
REMARK                         _______ _______ _______ _____ _____    ______ ____
ROOT
ATOM      1  H   UNL     1      10.747  -6.407  25.813  0.00  0.00    +0.213 HD
ATOM      2  N   UNL     1       9.995  -5.760  25.582  0.00  0.00    -0.196 N 
ATOM      3  N   UNL     1      10.236  -4.671  24.852  0.00  0.00    -0.154 NA
ATOM      4  C   UNL     1       9.022  -4.093  24.768  0.00  0.00    +0.129 A 
ATOM      5  C   UNL     1       8.626  -2.902  24.120  0.00  0.00    +0.062 A 
ATOM      6  C   UNL     1       7.248  -2.581  24.231  0.00  0.00    +0.049 A 
ATOM      7  C   UNL     1       6.314  -3.408  24.952  0.00  0.00    +0.049 A 
ATOM      8  C   UNL     1       6.702  -4.606  25.606  0.00  0.00    +0.062 A 
ATOM      9 BR   UNL     1       5.537  -5.746  26.572  0.00  0.00    -0.047 Br
ATOM     10 BR   UNL     1       4.460  -2.893  25.049  0.00  0.00    -0.048 Br
ATOM     11 BR   UNL     1       6.632  -0.969  23.374  0.00  0.00    -0.048 Br
ATOM     12 BR   UNL     1       9.915  -1.869  23.192  0.00  0.00    -0.047 Br
ATOM     13  C   UNL     1       8.071  -4.935  25.502  0.00  0.00    +0.129 A 
ATOM     14  N   UNL     1       8.750  -5.987  26.001  0.00  0.00    -0.154 NA
ENDROOT
TORSDOF 0
ENDMDL
MODEL 2
REMARK VINA RESULT:      -4.9      2.947      4.652
REMARK  Name = 
REMARK  0 active torsions:
REMARK  status: ('A' for Active; 'I' for Inactive)
REMARK                            x       y       z     vdW  Elec       q    Type
REMARK                         _______ _______ _______ _____ _____    ______ ____
ROOT
ATOM      1  H   UNL     1       6.192  -7.154  29.635  0.00  0.00    +0.213 HD
ATOM      2  N   UNL     1       6.171  -6.818  28.675  0.00  0.00    -0.196 N 
ATOM      3  N   UNL     1       5.170  -7.151  27.860  0.00  0.00    -0.154 NA
ATOM      4  C   UNL     1       5.498  -6.525  26.713  0.00  0.00    +0.129 A 
ATOM      5  C   UNL     1       4.827  -6.496  25.470  0.00  0.00    +0.062 A 
ATOM      6  C   UNL     1       5.459  -5.728  24.457  0.00  0.00    +0.049 A 
ATOM      7  C   UNL     1       6.698  -5.026  24.676  0.00  0.00    +0.049 A 
ATOM      8  C   UNL     1       7.380  -5.050  25.920  0.00  0.00    +0.062 A 
ATOM      9 BR   UNL     1       9.010  -4.155  26.286  0.00  0.00    -0.047 Br
ATOM     10 BR   UNL     1       7.483  -4.007  23.241  0.00  0.00    -0.048 Br
ATOM     11 BR   UNL     1       4.603  -5.641  22.733  0.00  0.00    -0.048 Br
ATOM     12 BR   UNL     1       3.201  -7.446  25.263  0.00  0.00    -0.047 Br
ATOM     13  C   UNL     1       6.760  -5.811  26.934  0.00  0.00    +0.129 A 
ATOM     14  N   UNL     1       7.143  -6.034  28.207  0.00  0.00    -0.154 NA
ENDROOT
TORSDOF 0
ENDMDL
MODEL 3
REMARK VINA RESULT:      -4.9      2.924      3.560
REMARK  Name = 
REMARK  0 active torsions:
REMARK  status: ('A' for Active; 'I' for Inactive)
REMARK                            x       y       z     vdW  Elec       q    Type
REMARK                         _______ _______ _______ _____ _____    ______ ____
ROOT
ATOM      1  H   UNL     1       6.216  -7.160  29.626  0.00  0.00    +0.213 HD
ATOM      2  N   UNL     1       6.181  -6.811  28.670  0.00  0.00    -0.196 N 
ATOM      3  N   UNL     1       7.137  -6.008  28.203  0.00  0.00    -0.154 NA
ATOM      4  C   UNL     1       6.740  -5.775  26.938  0.00  0.00    +0.129 A 
ATOM      5  C   UNL     1       7.340  -4.991  25.927  0.00  0.00    +0.062 A 
ATOM      6  C   UNL     1       6.646  -4.961  24.690  0.00  0.00    +0.049 A 
ATOM      7  C   UNL     1       5.415  -5.678  24.473  0.00  0.00    +0.049 A 
ATOM      8  C   UNL     1       4.804  -6.468  25.482  0.00  0.00    +0.062 A 
ATOM      9 BR   UNL     1       3.189  -7.438  25.276  0.00  0.00    -0.047 Br
ATOM     10 BR   UNL     1       4.542  -5.580  22.758  0.00  0.00    -0.048 Br
ATOM     11 BR   UNL     1       7.404  -3.912  23.262  0.00  0.00    -0.048 Br
ATOM     12 BR   UNL     1       8.961  -4.078  26.290  0.00  0.00    -0.047 Br
ATOM     13  C   UNL     1       5.487  -6.504  26.717  0.00  0.00    +0.129 A 
ATOM     14  N   UNL     1       5.177  -7.149  27.859  0.00  0.00    -0.154 NA
ENDROOT
TORSDOF 0
ENDMDL
MODEL 4
REMARK VINA RESULT:      -4.9      0.169      3.404
REMARK  Name = 
REMARK  0 active torsions:
REMARK  status: ('A' for Active; 'I' for Inactive)
REMARK                            x       y       z     vdW  Elec       q    Type
REMARK                         _______ _______ _______ _____ _____    ______ ____
ROOT
ATOM      1  H   UNL     1      10.625  -6.523  25.774  0.00  0.00    +0.213 HD
ATOM      2  N   UNL     1       9.907  -5.830  25.574  0.00  0.00    -0.196 N 
ATOM      3  N   UNL     1       8.662  -5.993  26.020  0.00  0.00    -0.154 NA
ATOM      4  C   UNL     1       8.033  -4.894  25.560  0.00  0.00    +0.129 A 
ATOM      5  C   UNL     1       6.687  -4.490  25.704  0.00  0.00    +0.062 A 
ATOM      6  C   UNL     1       6.353  -3.259  25.082  0.00  0.00    +0.049 A 
ATOM      7  C   UNL     1       7.316  -2.471  24.353  0.00  0.00    +0.049 A 
ATOM      8  C   UNL     1       8.670  -2.869  24.203  0.00  0.00    +0.062 A 
ATOM      9 BR   UNL     1       9.993  -1.892  23.262  0.00  0.00    -0.047 Br
ATOM     10 BR   UNL     1       6.772  -0.810  23.542  0.00  0.00    -0.048 Br
ATOM     11 BR   UNL     1       4.535  -2.641  25.235  0.00  0.00    -0.048 Br
ATOM     12 BR   UNL     1       5.482  -5.581  26.678  0.00  0.00    -0.047 Br
ATOM     13  C   UNL     1       9.012  -4.093  24.817  0.00  0.00    +0.129 A 
ATOM     14  N   UNL     1      10.193  -4.740  24.860  0.00  0.00    -0.154 NA
ENDROOT
TORSDOF 0
ENDMDL
MODEL 5
REMARK VINA RESULT:      -4.9      1.760      2.000
REMARK  Name = 
REMARK  0 active torsions:
REMARK  status: ('A' for Active; 'I' for Inactive)
REMARK                            x       y       z     vdW  Elec       q    Type
REMARK                         _______ _______ _______ _____ _____    ______ ____
ROOT
ATOM      1  H   UNL     1       9.070  -5.783  27.889  0.00  0.00    +0.213 HD
ATOM      2  N   UNL     1       8.419  -5.538  27.145  0.00  0.00    -0.196 N 
ATOM      3  N   UNL     1       8.774  -4.683  26.186  0.00  0.00    -0.154 NA
ATOM      4  C   UNL     1       7.672  -4.624  25.415  0.00  0.00    +0.129 A 
ATOM      5  C   UNL     1       7.424  -3.883  24.238  0.00  0.00    +0.062 A 
ATOM      6  C   UNL     1       6.134  -4.057  23.671  0.00  0.00    +0.049 A 
ATOM      7  C   UNL     1       5.143  -4.929  24.250  0.00  0.00    +0.049 A 
ATOM      8  C   UNL     1       5.382  -5.677  25.432  0.00  0.00    +0.062 A 
ATOM      9 BR   UNL     1       4.133  -6.841  26.255  0.00  0.00    -0.047 Br
ATOM     10 BR   UNL     1       3.418  -5.103  23.410  0.00  0.00    -0.048 Br
ATOM     11 BR   UNL     1       5.722  -3.077  22.064  0.00  0.00    -0.048 Br
ATOM     12 BR   UNL     1       8.780  -2.759  23.538  0.00  0.00    -0.047 Br
ATOM     13  C   UNL     1       6.662  -5.511  26.005  0.00  0.00    +0.129 A 
ATOM     14  N   UNL     1       7.196  -6.068  27.109  0.00  0.00    -0.154 NA
ENDROOT
TORSDOF 0
ENDMDL
MODEL 6
REMARK VINA RESULT:      -4.9      1.782      3.952
REMARK  Name = 
REMARK  0 active torsions:
REMARK  status: ('A' for Active; 'I' for Inactive)
REMARK                            x       y       z     vdW  Elec       q    Type
REMARK                         _______ _______ _______ _____ _____    ______ ____
ROOT
ATOM      1  H   UNL     1       9.010  -5.805  27.920  0.00  0.00    +0.213 HD
ATOM      2  N   UNL     1       8.367  -5.559  27.170  0.00  0.00    -0.196 N 
ATOM      3  N   UNL     1       7.142  -6.082  27.126  0.00  0.00    -0.154 NA
ATOM      4  C   UNL     1       6.618  -5.524  26.018  0.00  0.00    +0.129 A 
ATOM      5  C   UNL     1       5.342  -5.685  25.435  0.00  0.00    +0.062 A 
ATOM      6  C   UNL     1       5.116  -4.937  24.250  0.00  0.00    +0.049 A 
ATOM      7  C   UNL     1       6.116  -4.072  23.677  0.00  0.00    +0.049 A 
ATOM      8  C   UNL     1       7.402  -3.904  24.254  0.00  0.00    +0.062 A 
ATOM      9 BR   UNL     1       8.768  -2.787  23.563  0.00  0.00    -0.047 Br
ATOM     10 BR   UNL     1       5.721  -3.094  22.064  0.00  0.00    -0.048 Br
ATOM     11 BR   UNL     1       3.397  -5.107  23.397  0.00  0.00    -0.048 Br
ATOM     12 BR   UNL     1       4.081  -6.842  26.250  0.00  0.00    -0.047 Br
ATOM     13  C   UNL     1       7.636  -4.643  25.433  0.00  0.00    +0.129 A 
ATOM     14  N   UNL     1       8.733  -4.706  26.213  0.00  0.00    -0.154 NA
ENDROOT
TORSDOF 0
ENDMDL
MODEL 7
REMARK VINA RESULT:      -4.6      2.542      2.901
REMARK  Name = 
REMARK  0 active torsions:
REMARK  status: ('A' for Active; 'I' for Inactive)
REMARK                            x       y       z     vdW  Elec       q    Type
REMARK                         _______ _______ _______ _____ _____    ______ ____
ROOT
ATOM      1  H   UNL     1      10.491  -4.613  25.925  0.00  0.00    +0.213 HD
ATOM      2  N   UNL     1       9.504  -4.808  25.767  0.00  0.00    -0.196 N 
ATOM      3  N   UNL     1       9.010  -4.847  24.529  0.00  0.00    -0.154 NA
ATOM      4  C   UNL     1       7.708  -5.126  24.737  0.00  0.00    +0.129 A 
ATOM      5  C   UNL     1       6.656  -5.294  23.809  0.00  0.00    +0.062 A 
ATOM      6  C   UNL     1       5.388  -5.585  24.376  0.00  0.00    +0.049 A 
ATOM      7  C   UNL     1       5.182  -5.701  25.798  0.00  0.00    +0.049 A 
ATOM      8  C   UNL     1       6.232  -5.532  26.737  0.00  0.00    +0.062 A 
ATOM      9 BR   UNL     1       6.042  -5.669  28.618  0.00  0.00    -0.047 Br
ATOM     10 BR   UNL     1       3.423  -6.098  26.478  0.00  0.00    -0.048 Br
ATOM     11 BR   UNL     1       3.903  -5.827  23.173  0.00  0.00    -0.048 Br
ATOM     12 BR   UNL     1       7.009  -5.127  21.955  0.00  0.00    -0.047 Br
ATOM     13  C   UNL     1       7.498  -5.243  26.184  0.00  0.00    +0.129 A 
ATOM     14  N   UNL     1       8.681  -5.031  26.792  0.00  0.00    -0.154 NA
ENDROOT
TORSDOF 0
ENDMDL
MODEL 8
REMARK VINA RESULT:      -4.6      4.901      6.250
REMARK  Name = 
REMARK  0 active torsions:
REMARK  status: ('A' for Active; 'I' for Inactive)
REMARK                            x       y       z     vdW  Elec       q    Type
REMARK                         _______ _______ _______ _____ _____    ______ ____
ROOT
ATOM      1  H   UNL     1      10.016   2.708  20.936  0.00  0.00    +0.213 HD
ATOM      2  N   UNL     1       9.682   2.253  21.784  0.00  0.00    -0.196 N 
ATOM      3  N   UNL     1       9.877   0.949  21.976  0.00  0.00    -0.154 NA
ATOM      4  C   UNL     1       9.307   0.736  23.178  0.00  0.00    +0.129 A 
ATOM      5  C   UNL     1       9.188  -0.455  23.929  0.00  0.00    +0.062 A 
ATOM      6  C   UNL     1       8.519  -0.323  25.174  0.00  0.00    +0.049 A 
ATOM      7  C   UNL     1       7.997   0.936  25.644  0.00  0.00    +0.049 A 
ATOM      8  C   UNL     1       8.111   2.137  24.897  0.00  0.00    +0.062 A 
ATOM      9 BR   UNL     1       7.452   3.827  25.445  0.00  0.00    -0.047 Br
ATOM     10 BR   UNL     1       7.103   1.020  27.349  0.00  0.00    -0.048 Br
ATOM     11 BR   UNL     1       8.317  -1.905  26.255  0.00  0.00    -0.048 Br
ATOM     12 BR   UNL     1       9.903  -2.069  23.242  0.00  0.00    -0.047 Br
ATOM     13  C   UNL     1       8.775   2.016  23.657  0.00  0.00    +0.129 A 
ATOM     14  N   UNL     1       9.044   2.950  22.724  0.00  0.00    -0.154 NA
ENDROOT
TORSDOF 0
ENDMDL
MODEL 9
REMARK VINA RESULT:      -4.6      3.368      5.042
REMARK  Name = 
REMARK  0 active torsions:
REMARK  status: ('A' for Active; 'I' for Inactive)
REMARK                            x       y       z     vdW  Elec       q    Type
REMARK                         _______ _______ _______ _____ _____    ______ ____
ROOT
ATOM      1  H   UNL     1      10.884  -1.281  20.730  0.00  0.00    +0.213 HD
ATOM      2  N   UNL     1      10.173  -1.109  21.439  0.00  0.00    -0.196 N 
ATOM      3  N   UNL     1       9.970  -1.984  22.424  0.00  0.00    -0.154 NA
ATOM      4  C   UNL     1       8.977  -1.412  23.131  0.00  0.00    +0.129 A 
ATOM      5  C   UNL     1       8.318  -1.859  24.298  0.00  0.00    +0.062 A 
ATOM      6  C   UNL     1       7.302  -0.998  24.789  0.00  0.00    +0.049 A 
ATOM      7  C   UNL     1       6.962   0.247  24.146  0.00  0.00    +0.049 A 
ATOM      8  C   UNL     1       7.617   0.704  22.973  0.00  0.00    +0.062 A 
ATOM      9 BR   UNL     1       7.229   2.324  22.070  0.00  0.00    -0.047 Br
ATOM     10 BR   UNL     1       5.568   1.353  24.885  0.00  0.00    -0.048 Br
ATOM     11 BR   UNL     1       6.358  -1.541  26.378  0.00  0.00    -0.048 Br
ATOM     12 BR   UNL     1       8.825  -3.507  25.085  0.00  0.00    -0.047 Br
ATOM     13  C   UNL     1       8.630  -0.145  22.477  0.00  0.00    +0.129 A 
ATOM     14  N   UNL     1       9.428  -0.005  21.400  0.00  0.00    -0.154 NA
ENDROOT
TORSDOF 0
ENDMDL
