MODEL 1
REMARK VINA RESULT:      -4.5      0.000      0.000
REMARK  Name = 
REMARK  9 active torsions:
REMARK  status: ('A' for Active; 'I' for Inactive)
REMARK    1  A    between atoms: O_1  and  C_2
REMARK    2  A    between atoms: C_2  and  C_3
REMARK    3  A    between atoms: C_3  and  O_5
REMARK    4  A    between atoms: C_3  and  C_6
REMARK    5  A    between atoms: C_6  and  O_8
REMARK    6  A    between atoms: C_6  and  C_9
REMARK    7  A    between atoms: C_9  and  C_10
REMARK    8  A    between atoms: C_10  and  C_12
REMARK    9  A    between atoms: C_12  and  O_13
REMARK                            x       y       z     vdW  Elec       q    Type
REMARK                         _______ _______ _______ _____ _____    ______ ____
ROOT
ATOM      1  C   UNL     1       8.793  -3.096  24.115  0.00  0.00    +0.153 C 
ENDROOT
BRANCH   1   2
ATOM      2  O   UNL     1      10.226  -3.178  23.978  0.00  0.00    -0.389 OA
ATOM      3  H   UNL     1      10.441  -2.663  23.177  0.00  0.00    +0.210 HD
ENDBRANCH   1   2
BRANCH   1   4
ATOM      4  C   UNL     1       8.305  -4.480  24.590  0.00  0.00    +0.169 C 
BRANCH   4   5
ATOM      5  O   UNL     1       8.377  -5.402  23.487  0.00  0.00    -0.387 OA
ATOM      6  H   UNL     1       8.443  -6.291  23.879  0.00  0.00    +0.210 HD
ENDBRANCH   4   5
BRANCH   4   7
ATOM      7  C   UNL     1       9.089  -5.058  25.774  0.00  0.00    +0.189 C 
BRANCH   7   8
ATOM      8  O   UNL     1      10.317  -5.640  25.348  0.00  0.00    -0.392 OA
ATOM      9  H   UNL     1      10.977  -4.924  25.328  0.00  0.00    +0.210 HD
ENDBRANCH   7   8
ENDBRANCH   4   7
ENDBRANCH   1   4
BRANCH   1  10
ATOM     10  C   UNL     1       8.210  -2.729  22.756  0.00  0.00    +0.120 C 
BRANCH  10  11
ATOM     11  C   UNL     1       8.173  -1.238  22.530  0.00  0.00    +0.242 C 
ATOM     12  O   UNL     1       7.293  -0.463  22.900  0.00  0.00    -0.285 OA
BRANCH  11  13
ATOM     13  C   UNL     1       9.293  -0.660  21.670  0.00  0.00    +0.373 C 
ATOM     14  O   UNL     1       9.306   0.486  21.266  0.00  0.00    -0.242 OA
BRANCH  13  15
ATOM     15  O   UNL     1      10.251  -1.580  21.457  0.00  0.00    -0.475 OA
ATOM     16  H   UNL     1      10.545  -1.942  22.326  0.00  0.00    +0.295 HD
ENDBRANCH  13  15
ENDBRANCH  11  13
ENDBRANCH  10  11
ENDBRANCH   1  10
TORSDOF 9
ENDMDL
MODEL 2
REMARK VINA RESULT:      -4.5      3.150      5.772
REMARK  Name = 
REMARK  9 active torsions:
REMARK  status: ('A' for Active; 'I' for Inactive)
REMARK    1  A    between atoms: O_1  and  C_2
REMARK    2  A    between atoms: C_2  and  C_3
REMARK    3  A    between atoms: C_3  and  O_5
REMARK    4  A    between atoms: C_3  and  C_6
REMARK    5  A    between atoms: C_6  and  O_8
REMARK    6  A    between atoms: C_6  and  C_9
REMARK    7  A    between atoms: C_9  and  C_10
REMARK    8  A    between atoms: C_10  and  C_12
REMARK    9  A    between atoms: C_12  and  O_13
REMARK                            x       y       z     vdW  Elec       q    Type
REMARK                         _______ _______ _______ _____ _____    ______ ____
ROOT
ATOM      1  C   UNL     1       9.662   1.851  24.536  0.00  0.00    +0.153 C 
ENDROOT
BRANCH   1   2
ATOM      2  O   UNL     1       8.361   1.293  24.266  0.00  0.00    -0.389 OA
ATOM      3  H   UNL     1       7.788   2.055  24.054  0.00  0.00    +0.210 HD
ENDBRANCH   1   2
BRANCH   1   4
ATOM      4  C   UNL     1       9.751   3.183  23.762  0.00  0.00    +0.169 C 
BRANCH   4   5
ATOM      5  O   UNL     1      10.693   3.032  22.684  0.00  0.00    -0.387 OA
ATOM      6  H   UNL     1      10.580   3.812  22.113  0.00  0.00    +0.210 HD
ENDBRANCH   4   5
BRANCH   4   7
ATOM      7  C   UNL     1       8.416   3.677  23.192  0.00  0.00    +0.189 C 
BRANCH   7   8
ATOM      8  O   UNL     1       8.168   3.125  21.903  0.00  0.00    -0.392 OA
ATOM      9  H   UNL     1       8.598   3.713  21.257  0.00  0.00    +0.210 HD
ENDBRANCH   7   8
ENDBRANCH   4   7
ENDBRANCH   1   4
BRANCH   1  10
ATOM     10  C   UNL     1      10.711   0.853  24.062  0.00  0.00    +0.120 C 
BRANCH  10  11
ATOM     11  C   UNL     1      10.095  -0.393  23.475  0.00  0.00    +0.242 C 
ATOM     12  O   UNL     1       9.833  -1.433  24.075  0.00  0.00    -0.285 OA
BRANCH  11  13
ATOM     13  C   UNL     1       9.873  -0.385  21.965  0.00  0.00    +0.373 C 
ATOM     14  O   UNL     1       9.455   0.577  21.352  0.00  0.00    -0.242 OA
BRANCH  13  15
ATOM     15  O   UNL     1      10.224  -1.567  21.428  0.00  0.00    -0.475 OA
ATOM     16  H   UNL     1      10.943  -1.965  21.974  0.00  0.00    +0.295 HD
ENDBRANCH  13  15
ENDBRANCH  11  13
ENDBRANCH  10  11
ENDBRANCH   1  10
TORSDOF 9
ENDMDL
MODEL 3
REMARK VINA RESULT:      -4.4      2.021      4.898
REMARK  Name = 
REMARK  9 active torsions:
REMARK  status: ('A' for Active; 'I' for Inactive)
REMARK    1  A    between atoms: O_1  and  C_2
REMARK    2  A    between atoms: C_2  and  C_3
REMARK    3  A    between atoms: C_3  and  O_5
REMARK    4  A    between atoms: C_3  and  C_6
REMARK    5  A    between atoms: C_6  and  O_8
REMARK    6  A    between atoms: C_6  and  C_9
REMARK    7  A    between atoms: C_9  and  C_10
REMARK    8  A    between atoms: C_10  and  C_12
REMARK    9  A    between atoms: C_12  and  O_13
REMARK                            x       y       z     vdW  Elec       q    Type
REMARK                         _______ _______ _______ _____ _____    ______ ____
ROOT
ATOM      1  C   UNL     1       9.067   0.135  21.814  0.00  0.00    +0.153 C 
ENDROOT
BRANCH   1   2
ATOM      2  O   UNL     1       9.862  -0.874  21.161  0.00  0.00    -0.389 OA
ATOM      3  H   UNL     1       9.610  -0.836  20.219  0.00  0.00    +0.210 HD
ENDBRANCH   1   2
BRANCH   1   4
ATOM      4  C   UNL     1      10.046   1.108  22.500  0.00  0.00    +0.169 C 
BRANCH   4   5
ATOM      5  O   UNL     1      10.262   2.238  21.634  0.00  0.00    -0.387 OA
ATOM      6  H   UNL     1      11.197   2.487  21.739  0.00  0.00    +0.210 HD
ENDBRANCH   4   5
BRANCH   4   7
ATOM      7  C   UNL     1       9.584   1.613  23.872  0.00  0.00    +0.189 C 
BRANCH   7   8
ATOM      8  O   UNL     1      10.401   1.094  24.917  0.00  0.00    -0.392 OA
ATOM      9  H   UNL     1      11.192   1.659  24.964  0.00  0.00    +0.210 HD
ENDBRANCH   7   8
ENDBRANCH   4   7
ENDBRANCH   1   4
BRANCH   1  10
ATOM     10  C   UNL     1       8.162  -0.559  22.824  0.00  0.00    +0.120 C 
BRANCH  10  11
ATOM     11  C   UNL     1       8.462  -2.032  22.949  0.00  0.00    +0.242 C 
ATOM     12  O   UNL     1       8.018  -2.933  22.240  0.00  0.00    -0.285 OA
BRANCH  11  13
ATOM     13  C   UNL     1       9.326  -2.444  24.138  0.00  0.00    +0.373 C 
ATOM     14  O   UNL     1      10.066  -3.408  24.129  0.00  0.00    -0.242 OA
BRANCH  13  15
ATOM     15  O   UNL     1       9.166  -1.586  25.161  0.00  0.00    -0.475 OA
ATOM     16  H   UNL     1      10.048  -1.398  25.561  0.00  0.00    +0.295 HD
ENDBRANCH  13  15
ENDBRANCH  11  13
ENDBRANCH  10  11
ENDBRANCH   1  10
TORSDOF 9
ENDMDL
MODEL 4
REMARK VINA RESULT:      -4.4      3.259      4.141
REMARK  Name = 
REMARK  9 active torsions:
REMARK  status: ('A' for Active; 'I' for Inactive)
REMARK    1  A    between atoms: O_1  and  C_2
REMARK    2  A    between atoms: C_2  and  C_3
REMARK    3  A    between atoms: C_3  and  O_5
REMARK    4  A    between atoms: C_3  and  C_6
REMARK    5  A    between atoms: C_6  and  O_8
REMARK    6  A    between atoms: C_6  and  C_9
REMARK    7  A    between atoms: C_9  and  C_10
REMARK    8  A    between atoms: C_10  and  C_12
REMARK    9  A    between atoms: C_12  and  O_13
REMARK                            x       y       z     vdW  Elec       q    Type
REMARK                         _______ _______ _______ _____ _____    ______ ____
ROOT
ATOM      1  C   UNL     1       7.262  -4.132  25.441  0.00  0.00    +0.153 C 
ENDROOT
BRANCH   1   2
ATOM      2  O   UNL     1       8.023  -3.452  24.424  0.00  0.00    -0.389 OA
ATOM      3  H   UNL     1       8.019  -2.510  24.681  0.00  0.00    +0.210 HD
ENDBRANCH   1   2
BRANCH   1   4
ATOM      4  C   UNL     1       8.272  -4.703  26.457  0.00  0.00    +0.169 C 
BRANCH   4   5
ATOM      5  O   UNL     1       7.830  -6.009  26.868  0.00  0.00    -0.387 OA
ATOM      6  H   UNL     1       6.858  -5.998  26.814  0.00  0.00    +0.210 HD
ENDBRANCH   4   5
BRANCH   4   7
ATOM      7  C   UNL     1       9.710  -4.805  25.933  0.00  0.00    +0.189 C 
BRANCH   7   8
ATOM      8  O   UNL     1       9.880  -5.956  25.111  0.00  0.00    -0.392 OA
ATOM      9  H   UNL     1      10.365  -6.613  25.641  0.00  0.00    +0.210 HD
ENDBRANCH   7   8
ENDBRANCH   4   7
ENDBRANCH   1   4
BRANCH   1  10
ATOM     10  C   UNL     1       6.455  -5.235  24.768  0.00  0.00    +0.120 C 
BRANCH  10  11
ATOM     11  C   UNL     1       6.858  -5.446  23.330  0.00  0.00    +0.242 C 
ATOM     12  O   UNL     1       7.988  -5.691  22.913  0.00  0.00    -0.285 OA
BRANCH  11  13
ATOM     13  C   UNL     1       5.764  -5.232  22.287  0.00  0.00    +0.373 C 
ATOM     14  O   UNL     1       5.108  -4.212  22.201  0.00  0.00    -0.242 OA
BRANCH  13  15
ATOM     15  O   UNL     1       5.659  -6.304  21.483  0.00  0.00    -0.475 OA
ATOM     16  H   UNL     1       6.031  -6.078  20.598  0.00  0.00    +0.295 HD
ENDBRANCH  13  15
ENDBRANCH  11  13
ENDBRANCH  10  11
ENDBRANCH   1  10
TORSDOF 9
ENDMDL
MODEL 5
REMARK VINA RESULT:      -4.4      2.523      3.872
REMARK  Name = 
REMARK  9 active torsions:
REMARK  status: ('A' for Active; 'I' for Inactive)
REMARK    1  A    between atoms: O_1  and  C_2
REMARK    2  A    between atoms: C_2  and  C_3
REMARK    3  A    between atoms: C_3  and  O_5
REMARK    4  A    between atoms: C_3  and  C_6
REMARK    5  A    between atoms: C_6  and  O_8
REMARK    6  A    between atoms: C_6  and  C_9
REMARK    7  A    between atoms: C_9  and  C_10
REMARK    8  A    between atoms: C_10  and  C_12
REMARK    9  A    between atoms: C_12  and  O_13
REMARK                            x       y       z     vdW  Elec       q    Type
REMARK                         _______ _______ _______ _____ _____    ______ ____
ROOT
ATOM      1  C   UNL     1       9.967  -0.509  24.234  0.00  0.00    +0.153 C 
ENDROOT
BRANCH   1   2
ATOM      2  O   UNL     1      11.073   0.407  24.120  0.00  0.00    -0.389 OA
ATOM      3  H   UNL     1      11.863  -0.104  24.377  0.00  0.00    +0.210 HD
ENDBRANCH   1   2
BRANCH   1   4
ATOM      4  C   UNL     1      10.168  -1.597  23.159  0.00  0.00    +0.169 C 
BRANCH   4   5
ATOM      5  O   UNL     1      10.175  -2.886  23.798  0.00  0.00    -0.387 OA
ATOM      6  H   UNL     1       9.291  -3.002  24.189  0.00  0.00    +0.210 HD
ENDBRANCH   4   5
BRANCH   4   7
ATOM      7  C   UNL     1       9.110  -1.596  22.049  0.00  0.00    +0.189 C 
BRANCH   7   8
ATOM      8  O   UNL     1       9.575  -0.909  20.891  0.00  0.00    -0.392 OA
ATOM      9  H   UNL     1       9.879  -0.032  21.187  0.00  0.00    +0.210 HD
ENDBRANCH   7   8
ENDBRANCH   4   7
ENDBRANCH   1   4
BRANCH   1  10
ATOM     10  C   UNL     1       8.680   0.274  24.009  0.00  0.00    +0.120 C 
BRANCH  10  11
ATOM     11  C   UNL     1       8.937   1.732  23.722  0.00  0.00    +0.242 C 
ATOM     12  O   UNL     1       9.165   2.613  24.549  0.00  0.00    -0.285 OA
BRANCH  11  13
ATOM     13  C   UNL     1       8.799   2.166  22.265  0.00  0.00    +0.373 C 
ATOM     14  O   UNL     1       7.772   2.606  21.789  0.00  0.00    -0.242 OA
BRANCH  13  15
ATOM     15  O   UNL     1       9.966   2.015  21.613  0.00  0.00    -0.475 OA
ATOM     16  H   UNL     1      10.707   2.122  22.255  0.00  0.00    +0.295 HD
ENDBRANCH  13  15
ENDBRANCH  11  13
ENDBRANCH  10  11
ENDBRANCH   1  10
TORSDOF 9
ENDMDL
MODEL 6
REMARK VINA RESULT:      -4.3      1.596      4.918
REMARK  Name = 
REMARK  9 active torsions:
REMARK  status: ('A' for Active; 'I' for Inactive)
REMARK    1  A    between atoms: O_1  and  C_2
REMARK    2  A    between atoms: C_2  and  C_3
REMARK    3  A    between atoms: C_3  and  O_5
REMARK    4  A    between atoms: C_3  and  C_6
REMARK    5  A    between atoms: C_6  and  O_8
REMARK    6  A    between atoms: C_6  and  C_9
REMARK    7  A    between atoms: C_9  and  C_10
REMARK    8  A    between atoms: C_10  and  C_12
REMARK    9  A    between atoms: C_12  and  O_13
REMARK                            x       y       z     vdW  Elec       q    Type
REMARK                         _______ _______ _______ _____ _____    ______ ____
ROOT
ATOM      1  C   UNL     1       8.891  -2.868  23.426  0.00  0.00    +0.153 C 
ENDROOT
BRANCH   1   2
ATOM      2  O   UNL     1      10.174  -3.218  23.981  0.00  0.00    -0.389 OA
ATOM      3  H   UNL     1      10.691  -2.390  23.986  0.00  0.00    +0.210 HD
ENDBRANCH   1   2
BRANCH   1   4
ATOM      4  C   UNL     1       8.803  -1.328  23.426  0.00  0.00    +0.169 C 
BRANCH   4   5
ATOM      5  O   UNL     1       9.494  -0.823  24.583  0.00  0.00    -0.387 OA
ATOM      6  H   UNL     1      10.425  -1.092  24.483  0.00  0.00    +0.210 HD
ENDBRANCH   4   5
BRANCH   4   7
ATOM      7  C   UNL     1       9.377  -0.659  22.171  0.00  0.00    +0.189 C 
BRANCH   7   8
ATOM      8  O   UNL     1      10.232  -1.547  21.457  0.00  0.00    -0.392 OA
ATOM      9  H   UNL     1      10.510  -1.081  20.648  0.00  0.00    +0.210 HD
ENDBRANCH   7   8
ENDBRANCH   4   7
ENDBRANCH   1   4
BRANCH   1  10
ATOM     10  C   UNL     1       7.812  -3.494  24.301  0.00  0.00    +0.120 C 
BRANCH  10  11
ATOM     11  C   UNL     1       8.307  -3.804  25.691  0.00  0.00    +0.242 C 
ATOM     12  O   UNL     1       8.692  -2.992  26.530  0.00  0.00    -0.285 OA
BRANCH  11  13
ATOM     13  C   UNL     1       8.434  -5.283  26.046  0.00  0.00    +0.373 C 
ATOM     14  O   UNL     1       7.584  -5.903  26.654  0.00  0.00    -0.242 OA
BRANCH  13  15
ATOM     15  O   UNL     1       9.586  -5.788  25.572  0.00  0.00    -0.475 OA
ATOM     16  H   UNL     1       9.690  -6.712  25.901  0.00  0.00    +0.295 HD
ENDBRANCH  13  15
ENDBRANCH  11  13
ENDBRANCH  10  11
ENDBRANCH   1  10
TORSDOF 9
ENDMDL
MODEL 7
REMARK VINA RESULT:      -4.3      2.291      3.140
REMARK  Name = 
REMARK  9 active torsions:
REMARK  status: ('A' for Active; 'I' for Inactive)
REMARK    1  A    between atoms: O_1  and  C_2
REMARK    2  A    between atoms: C_2  and  C_3
REMARK    3  A    between atoms: C_3  and  O_5
REMARK    4  A    between atoms: C_3  and  C_6
REMARK    5  A    between atoms: C_6  and  O_8
REMARK    6  A    between atoms: C_6  and  C_9
REMARK    7  A    between atoms: C_9  and  C_10
REMARK    8  A    between atoms: C_10  and  C_12
REMARK    9  A    between atoms: C_12  and  O_13
REMARK                            x       y       z     vdW  Elec       q    Type
REMARK                         _______ _______ _______ _____ _____    ______ ____
ROOT
ATOM      1  C   UNL     1       8.496  -0.636  24.793  0.00  0.00    +0.153 C 
ENDROOT
BRANCH   1   2
ATOM      2  O   UNL     1       9.873  -0.467  25.184  0.00  0.00    -0.389 OA
ATOM      3  H   UNL     1       9.873   0.264  25.831  0.00  0.00    +0.210 HD
ENDBRANCH   1   2
BRANCH   1   4
ATOM      4  C   UNL     1       8.398  -1.987  24.057  0.00  0.00    +0.169 C 
BRANCH   4   5
ATOM      5  O   UNL     1       7.885  -1.759  22.732  0.00  0.00    -0.387 OA
ATOM      6  H   UNL     1       7.065  -1.244  22.842  0.00  0.00    +0.210 HD
ENDBRANCH   4   5
BRANCH   4   7
ATOM      7  C   UNL     1       9.722  -2.753  23.954  0.00  0.00    +0.189 C 
BRANCH   7   8
ATOM      8  O   UNL     1      10.492  -2.307  22.841  0.00  0.00    -0.392 OA
ATOM      9  H   UNL     1      11.216  -1.763  23.198  0.00  0.00    +0.210 HD
ENDBRANCH   7   8
ENDBRANCH   4   7
ENDBRANCH   1   4
BRANCH   1  10
ATOM     10  C   UNL     1       8.117   0.529  23.887  0.00  0.00    +0.120 C 
BRANCH  10  11
ATOM     11  C   UNL     1       9.312   1.358  23.487  0.00  0.00    +0.242 C 
ATOM     12  O   UNL     1       9.869   2.216  24.168  0.00  0.00    -0.285 OA
BRANCH  11  13
ATOM     13  C   UNL     1       9.808   1.176  22.055  0.00  0.00    +0.373 C 
ATOM     14  O   UNL     1       9.743   0.125  21.450  0.00  0.00    -0.242 OA
BRANCH  13  15
ATOM     15  O   UNL     1      10.290   2.334  21.570  0.00  0.00    -0.475 OA
ATOM     16  H   UNL     1       9.827   3.084  22.012  0.00  0.00    +0.295 HD
ENDBRANCH  13  15
ENDBRANCH  11  13
ENDBRANCH  10  11
ENDBRANCH   1  10
TORSDOF 9
ENDMDL
MODEL 8
REMARK VINA RESULT:      -4.3      1.497      2.038
REMARK  Name = 
REMARK  9 active torsions:
REMARK  status: ('A' for Active; 'I' for Inactive)
REMARK    1  A    between atoms: O_1  and  C_2
REMARK    2  A    between atoms: C_2  and  C_3
REMARK    3  A    between atoms: C_3  and  O_5
REMARK    4  A    between atoms: C_3  and  C_6
REMARK    5  A    between atoms: C_6  and  O_8
REMARK    6  A    between atoms: C_6  and  C_9
REMARK    7  A    between atoms: C_9  and  C_10
REMARK    8  A    between atoms: C_10  and  C_12
REMARK    9  A    between atoms: C_12  and  O_13
REMARK                            x       y       z     vdW  Elec       q    Type
REMARK                         _______ _______ _______ _____ _____    ______ ____
ROOT
ATOM      1  C   UNL     1       8.398  -4.383  24.160  0.00  0.00    +0.153 C 
ENDROOT
BRANCH   1   2
ATOM      2  O   UNL     1       7.022  -4.199  24.549  0.00  0.00    -0.389 OA
ATOM      3  H   UNL     1       6.754  -3.343  24.166  0.00  0.00    +0.210 HD
ENDBRANCH   1   2
BRANCH   1   4
ATOM      4  C   UNL     1       9.056  -5.272  25.234  0.00  0.00    +0.169 C 
BRANCH   4   5
ATOM      5  O   UNL     1      10.479  -5.288  25.016  0.00  0.00    -0.387 OA
ATOM      6  H   UNL     1      10.612  -5.635  24.116  0.00  0.00    +0.210 HD
ENDBRANCH   4   5
BRANCH   4   7
ATOM      7  C   UNL     1       8.779  -4.836  26.678  0.00  0.00    +0.189 C 
BRANCH   7   8
ATOM      8  O   UNL     1       7.889  -5.737  27.329  0.00  0.00    -0.392 OA
ATOM      9  H   UNL     1       8.414  -6.225  27.988  0.00  0.00    +0.210 HD
ENDBRANCH   7   8
ENDBRANCH   4   7
ENDBRANCH   1   4
BRANCH   1  10
ATOM     10  C   UNL     1       9.054  -3.010  24.086  0.00  0.00    +0.120 C 
BRANCH  10  11
ATOM     11  C   UNL     1       8.721  -2.283  22.807  0.00  0.00    +0.242 C 
ATOM     12  O   UNL     1       7.759  -2.495  22.072  0.00  0.00    -0.285 OA
BRANCH  11  13
ATOM     13  C   UNL     1       9.740  -1.250  22.336  0.00  0.00    +0.373 C 
ATOM     14  O   UNL     1      10.553  -0.724  23.070  0.00  0.00    -0.242 OA
BRANCH  13  15
ATOM     15  O   UNL     1       9.623  -1.035  21.013  0.00  0.00    -0.475 OA
ATOM     16  H   UNL     1       8.704  -0.733  20.819  0.00  0.00    +0.295 HD
ENDBRANCH  13  15
ENDBRANCH  11  13
ENDBRANCH  10  11
ENDBRANCH   1  10
TORSDOF 9
ENDMDL
MODEL 9
REMARK VINA RESULT:      -4.2      1.911      2.895
REMARK  Name = 
REMARK  9 active torsions:
REMARK  status: ('A' for Active; 'I' for Inactive)
REMARK    1  A    between atoms: O_1  and  C_2
REMARK    2  A    between atoms: C_2  and  C_3
REMARK    3  A    between atoms: C_3  and  O_5
REMARK    4  A    between atoms: C_3  and  C_6
REMARK    5  A    between atoms: C_6  and  O_8
REMARK    6  A    between atoms: C_6  and  C_9
REMARK    7  A    between atoms: C_9  and  C_10
REMARK    8  A    between atoms: C_10  and  C_12
REMARK    9  A    between atoms: C_12  and  O_13
REMARK                            x       y       z     vdW  Elec       q    Type
REMARK                         _______ _______ _______ _____ _____    ______ ____
ROOT
ATOM      1  C   UNL     1       8.519  -1.881  22.428  0.00  0.00    +0.153 C 
ENDROOT
BRANCH   1   2
ATOM      2  O   UNL     1       7.522  -0.972  22.937  0.00  0.00    -0.389 OA
ATOM      3  H   UNL     1       7.333  -0.355  22.205  0.00  0.00    +0.210 HD
ENDBRANCH   1   2
BRANCH   1   4
ATOM      4  C   UNL     1       8.852  -2.869  23.565  0.00  0.00    +0.169 C 
BRANCH   4   5
ATOM      5  O   UNL     1      10.281  -2.921  23.731  0.00  0.00    -0.387 OA
ATOM      6  H   UNL     1      10.464  -2.582  24.625  0.00  0.00    +0.210 HD
ENDBRANCH   4   5
BRANCH   4   7
ATOM      7  C   UNL     1       8.206  -2.527  24.913  0.00  0.00    +0.189 C 
BRANCH   7   8
ATOM      8  O   UNL     1       8.921  -1.493  25.582  0.00  0.00    -0.392 OA
ATOM      9  H   UNL     1       8.547  -0.648  25.277  0.00  0.00    +0.210 HD
ENDBRANCH   7   8
ENDBRANCH   4   7
ENDBRANCH   1   4
BRANCH   1  10
ATOM     10  C   UNL     1       9.736  -1.063  22.017  0.00  0.00    +0.120 C 
BRANCH  10  11
ATOM     11  C   UNL     1       9.753   0.304  22.654  0.00  0.00    +0.242 C 
ATOM     12  O   UNL     1       9.991   0.560  23.833  0.00  0.00    -0.285 OA
BRANCH  11  13
ATOM     13  C   UNL     1       9.333   1.468  21.761  0.00  0.00    +0.373 C 
ATOM     14  O   UNL     1       8.217   1.590  21.297  0.00  0.00    -0.242 OA
BRANCH  13  15
ATOM     15  O   UNL     1      10.352   2.329  21.592  0.00  0.00    -0.475 OA
ATOM     16  H   UNL     1      10.024   3.122  21.106  0.00  0.00    +0.295 HD
ENDBRANCH  13  15
ENDBRANCH  11  13
ENDBRANCH  10  11
ENDBRANCH   1  10
TORSDOF 9
ENDMDL
