MODEL 1
REMARK VINA RESULT:      -6.5      0.000      0.000
REMARK  Name = 
REMARK  24 active torsions:
REMARK  status: ('A' for Active; 'I' for Inactive)
REMARK    1  A    between atoms: C_1  and  C_2
REMARK    2  A    between atoms: N_4  and  C_5
REMARK    3  A    between atoms: C_7  and  O_9
REMARK    4  A    between atoms: C_11  and  O_12
REMARK    5  A    between atoms: C_11  and  C_56
REMARK    6  A    between atoms: O_12  and  C_13
REMARK    7  A    between atoms: C_15  and  O_17
REMARK    8  A    between atoms: C_18  and  C_20
REMARK    9  A    between atoms: C_20  and  O_21
REMARK   10  A    between atoms: C_23  and  O_25
REMARK   11  A    between atoms: O_25  and  C_26
REMARK   12  A    between atoms: C_28  and  C_30
REMARK   13  A    between atoms: C_30  and  O_31
REMARK   14  A    between atoms: C_33  and  O_35
REMARK   15  A    between atoms: C_36  and  O_38
REMARK   16  A    between atoms: C_39  and  O_41
REMARK   17  A    between atoms: C_42  and  O_44
REMARK   18  A    between atoms: C_46  and  C_48
REMARK   19  A    between atoms: C_48  and  O_50
REMARK   20  A    between atoms: C_48  and  C_51
REMARK   21  A    between atoms: C_51  and  O_53
REMARK   22  A    between atoms: C_51  and  C_54
REMARK   23  A    between atoms: C_54  and  O_55
REMARK   24  A    between atoms: C_56  and  O_57
REMARK                            x       y       z     vdW  Elec       q    Type
REMARK                         _______ _______ _______ _____ _____    ______ ____
ROOT
ATOM      1  C   UNL     1       6.365  -3.628  26.564  0.00  0.00    +0.186 C 
ATOM      2  C   UNL     1       6.856  -2.182  26.824  0.00  0.00    +0.202 C 
ATOM      3  C   UNL     1       8.017  -1.699  25.901  0.00  0.00    +0.282 C 
ATOM      4  O   UNL     1       9.031  -2.692  25.698  0.00  0.00    -0.341 OA
ATOM      5  C   UNL     1       8.591  -4.056  25.532  0.00  0.00    +0.178 C 
ATOM      6  C   UNL     1       7.616  -4.498  26.645  0.00  0.00    +0.177 C 
ENDROOT
BRANCH   6   7
ATOM      7  O   UNL     1       7.262  -5.878  26.588  0.00  0.00    -0.386 OA
ATOM      8  H   UNL     1       6.592  -6.020  27.288  0.00  0.00    +0.210 HD
ENDBRANCH   6   7
BRANCH   2   9
ATOM      9  O   UNL     1       5.769  -1.259  26.863  0.00  0.00    -0.384 OA
ATOM     10  H   UNL     1       5.249  -1.513  27.644  0.00  0.00    +0.210 HD
ENDBRANCH   2   9
BRANCH   1  11
ATOM     11  O   UNL     1       5.707  -3.711  25.294  0.00  0.00    -0.331 OA
BRANCH  11  15
ATOM     12  C   UNL     1       1.887  -5.351  26.328  0.00  0.00    +0.133 C 
ATOM     13  C   UNL     1       3.063  -6.300  26.022  0.00  0.00    +0.176 C 
ATOM     14  O   UNL     1       4.318  -5.510  26.062  0.00  0.00    -0.332 OA
ATOM     15  C   UNL     1       4.436  -4.431  25.111  0.00  0.00    +0.273 C 
ATOM     16  C   UNL     1       3.195  -3.514  25.104  0.00  0.00    +0.110 C 
ATOM     17  C   UNL     1       1.855  -4.249  25.250  0.00  0.00    +0.143 C 
BRANCH  12  20
ATOM     18  C   UNL     1       1.959  -4.746  30.121  0.00  0.00    +0.109 C 
ATOM     19  C   UNL     1       1.628  -5.445  28.817  0.00  0.00    +0.210 C 
ATOM     20  N   UNL     1       2.004  -4.754  27.678  0.00  0.00    -0.308 N 
ATOM     21  H   UNL     1       2.650  -3.987  27.832  0.00  0.00    +0.149 HD
ATOM     22  O   UNL     1       1.072  -6.541  28.790  0.00  0.00    -0.276 OA
ENDBRANCH  12  20
BRANCH  17  23
ATOM     23  O   UNL     1       1.496  -4.828  23.997  0.00  0.00    -0.390 OA
ATOM     24  H   UNL     1       0.532  -4.764  23.873  0.00  0.00    +0.210 HD
ENDBRANCH  17  23
BRANCH  15  25
ATOM     25  C   UNL     1       4.845  -4.985  23.718  0.00  0.00    +0.365 C 
ATOM     26  O   UNL     1       4.178  -4.893  22.695  0.00  0.00    -0.245 OA
BRANCH  25  27
ATOM     27  O   UNL     1       6.001  -5.676  23.689  0.00  0.00    -0.477 OA
ATOM     28  H   UNL     1       5.855  -6.379  24.359  0.00  0.00    +0.295 HD
ENDBRANCH  25  27
ENDBRANCH  15  25
BRANCH  13  29
ATOM     29  C   UNL     1       2.939  -7.173  24.726  0.00  0.00    +0.176 C 
BRANCH  29  30
ATOM     30  O   UNL     1       4.196  -7.869  24.565  0.00  0.00    -0.387 OA
ATOM     31  H   UNL     1       4.022  -8.803  24.803  0.00  0.00    +0.210 HD
ENDBRANCH  29  30
BRANCH  29  32
ATOM     32  C   UNL     1       1.803  -8.217  24.574  0.00  0.00    +0.171 C 
BRANCH  32  33
ATOM     33  O   UNL     1       2.246  -9.510  24.992  0.00  0.00    -0.387 OA
ATOM     34  H   UNL     1       3.096  -9.378  25.446  0.00  0.00    +0.210 HD
ENDBRANCH  32  33
BRANCH  32  35
ATOM     35  C   UNL     1       1.367  -8.273  23.084  0.00  0.00    +0.189 C 
BRANCH  35  36
ATOM     36  O   UNL     1       2.061  -7.327  22.273  0.00  0.00    -0.392 OA
ATOM     37  H   UNL     1       2.964  -7.255  22.633  0.00  0.00    +0.210 HD
ENDBRANCH  35  36
ENDBRANCH  32  35
ENDBRANCH  29  32
ENDBRANCH  13  29
ENDBRANCH  11  15
ENDBRANCH   1  11
BRANCH   3  38
ATOM     38  O   UNL     1       7.556  -1.054  24.688  0.00  0.00    -0.340 OA
BRANCH  38  39
ATOM     39  C   UNL     1       8.227   0.196  24.377  0.00  0.00    +0.183 C 
ATOM     40  C   UNL     1       8.434   0.385  22.846  0.00  0.00    +0.179 C 
ATOM     41  C   UNL     1       9.242   1.670  22.554  0.00  0.00    +0.201 C 
ATOM     42  C   UNL     1       8.746   2.894  23.352  0.00  0.00    +0.279 C 
ATOM     43  O   UNL     1       8.419   2.605  24.702  0.00  0.00    -0.341 OA
ATOM     44  C   UNL     1       7.529   1.489  24.885  0.00  0.00    +0.178 C 
BRANCH  42  45
ATOM     45  O   UNL     1       9.769   3.880  23.419  0.00  0.00    -0.365 OA
ATOM     46  H   UNL     1       9.904   4.020  24.373  0.00  0.00    +0.213 HD
ENDBRANCH  42  45
BRANCH  41  47
ATOM     47  O   UNL     1       9.196   1.962  21.147  0.00  0.00    -0.384 OA
ATOM     48  H   UNL     1      10.067   2.326  20.903  0.00  0.00    +0.210 HD
ENDBRANCH  41  47
BRANCH  40  49
ATOM     49  O   UNL     1       9.116  -0.724  22.237  0.00  0.00    -0.386 OA
ATOM     50  H   UNL     1      10.056  -0.497  22.137  0.00  0.00    +0.210 HD
ENDBRANCH  40  49
BRANCH  44  51
ATOM     51  C   UNL     1       6.141   1.781  24.272  0.00  0.00    +0.190 C 
BRANCH  51  52
ATOM     52  O   UNL     1       5.247   0.697  24.536  0.00  0.00    -0.392 OA
ATOM     53  H   UNL     1       5.121   0.649  25.502  0.00  0.00    +0.210 HD
ENDBRANCH  51  52
ENDBRANCH  44  51
ENDBRANCH  38  39
ENDBRANCH   3  38
BRANCH   5  54
ATOM     54  C   UNL     1       9.842  -4.948  25.556  0.00  0.00    +0.190 C 
BRANCH  54  55
ATOM     55  O   UNL     1       9.743  -5.976  24.568  0.00  0.00    -0.392 OA
ATOM     56  H   UNL     1      10.215  -6.749  24.930  0.00  0.00    +0.210 HD
ENDBRANCH  54  55
ENDBRANCH   5  54
TORSDOF 23
ENDMDL
MODEL 2
REMARK VINA RESULT:      -6.1      2.728      8.471
REMARK  Name = 
REMARK  24 active torsions:
REMARK  status: ('A' for Active; 'I' for Inactive)
REMARK    1  A    between atoms: C_1  and  C_2
REMARK    2  A    between atoms: N_4  and  C_5
REMARK    3  A    between atoms: C_7  and  O_9
REMARK    4  A    between atoms: C_11  and  O_12
REMARK    5  A    between atoms: C_11  and  C_56
REMARK    6  A    between atoms: O_12  and  C_13
REMARK    7  A    between atoms: C_15  and  O_17
REMARK    8  A    between atoms: C_18  and  C_20
REMARK    9  A    between atoms: C_20  and  O_21
REMARK   10  A    between atoms: C_23  and  O_25
REMARK   11  A    between atoms: O_25  and  C_26
REMARK   12  A    between atoms: C_28  and  C_30
REMARK   13  A    between atoms: C_30  and  O_31
REMARK   14  A    between atoms: C_33  and  O_35
REMARK   15  A    between atoms: C_36  and  O_38
REMARK   16  A    between atoms: C_39  and  O_41
REMARK   17  A    between atoms: C_42  and  O_44
REMARK   18  A    between atoms: C_46  and  C_48
REMARK   19  A    between atoms: C_48  and  O_50
REMARK   20  A    between atoms: C_48  and  C_51
REMARK   21  A    between atoms: C_51  and  O_53
REMARK   22  A    between atoms: C_51  and  C_54
REMARK   23  A    between atoms: C_54  and  O_55
REMARK   24  A    between atoms: C_56  and  O_57
REMARK                            x       y       z     vdW  Elec       q    Type
REMARK                         _______ _______ _______ _____ _____    ______ ____
ROOT
ATOM      1  C   UNL     1       6.040  -2.876  23.112  0.00  0.00    +0.186 C 
ATOM      2  C   UNL     1       4.916  -3.135  24.144  0.00  0.00    +0.202 C 
ATOM      3  C   UNL     1       4.980  -4.520  24.861  0.00  0.00    +0.282 C 
ATOM      4  O   UNL     1       5.298  -5.602  23.976  0.00  0.00    -0.341 OA
ATOM      5  C   UNL     1       6.289  -5.349  22.959  0.00  0.00    +0.178 C 
ATOM      6  C   UNL     1       5.991  -4.065  22.156  0.00  0.00    +0.177 C 
ENDROOT
BRANCH   6   7
ATOM      7  O   UNL     1       6.875  -3.852  21.057  0.00  0.00    -0.386 OA
ATOM      8  H   UNL     1       7.663  -3.397  21.420  0.00  0.00    +0.210 HD
ENDBRANCH   6   7
BRANCH   2   9
ATOM      9  O   UNL     1       4.787  -2.051  25.062  0.00  0.00    -0.384 OA
ATOM     10  H   UNL     1       3.997  -1.564  24.769  0.00  0.00    +0.210 HD
ENDBRANCH   2   9
BRANCH   1  11
ATOM     11  O   UNL     1       7.305  -2.741  23.772  0.00  0.00    -0.331 OA
BRANCH  11  15
ATOM     12  C   UNL     1       7.539   1.046  25.760  0.00  0.00    +0.133 C 
ATOM     13  C   UNL     1       7.331   1.001  24.233  0.00  0.00    +0.176 C 
ATOM     14  O   UNL     1       6.921  -0.375  23.861  0.00  0.00    -0.332 OA
ATOM     15  C   UNL     1       7.859  -1.432  24.153  0.00  0.00    +0.273 C 
ATOM     16  C   UNL     1       8.381  -1.373  25.605  0.00  0.00    +0.110 C 
ATOM     17  C   UNL     1       8.651   0.043  26.130  0.00  0.00    +0.143 C 
BRANCH  12  20
ATOM     18  C   UNL     1       4.612   0.998  28.246  0.00  0.00    +0.109 C 
ATOM     19  C   UNL     1       5.996   1.310  27.714  0.00  0.00    +0.210 C 
ATOM     20  N   UNL     1       6.292   0.732  26.491  0.00  0.00    -0.308 N 
ATOM     21  H   UNL     1       5.494   0.363  25.985  0.00  0.00    +0.149 HD
ATOM     22  O   UNL     1       6.783   2.026  28.330  0.00  0.00    -0.276 OA
ENDBRANCH  12  20
BRANCH  17  23
ATOM     23  O   UNL     1       9.896   0.508  25.612  0.00  0.00    -0.390 OA
ATOM     24  H   UNL     1       9.756   0.904  24.733  0.00  0.00    +0.210 HD
ENDBRANCH  17  23
BRANCH  15  25
ATOM     25  C   UNL     1       8.968  -1.482  23.065  0.00  0.00    +0.365 C 
ATOM     26  O   UNL     1       8.773  -1.548  21.858  0.00  0.00    -0.245 OA
BRANCH  25  27
ATOM     27  O   UNL     1      10.232  -1.523  23.531  0.00  0.00    -0.477 OA
ATOM     28  H   UNL     1      10.438  -0.577  23.694  0.00  0.00    +0.295 HD
ENDBRANCH  25  27
ENDBRANCH  15  25
BRANCH  13  29
ATOM     29  C   UNL     1       8.508   1.541  23.349  0.00  0.00    +0.176 C 
BRANCH  29  30
ATOM     30  O   UNL     1       8.088   1.425  21.971  0.00  0.00    -0.387 OA
ATOM     31  H   UNL     1       7.249   0.919  21.985  0.00  0.00    +0.210 HD
ENDBRANCH  29  30
BRANCH  29  32
ATOM     32  C   UNL     1       9.064   2.974  23.550  0.00  0.00    +0.171 C 
BRANCH  32  33
ATOM     33  O   UNL     1       8.377   3.905  22.710  0.00  0.00    -0.387 OA
ATOM     34  H   UNL     1       7.536   3.485  22.462  0.00  0.00    +0.210 HD
ENDBRANCH  32  33
BRANCH  32  35
ATOM     35  C   UNL     1      10.579   2.981  23.206  0.00  0.00    +0.189 C 
BRANCH  35  36
ATOM     36  O   UNL     1      10.831   2.668  21.837  0.00  0.00    -0.392 OA
ATOM     37  H   UNL     1      10.066   2.992  21.328  0.00  0.00    +0.210 HD
ENDBRANCH  35  36
ENDBRANCH  32  35
ENDBRANCH  29  32
ENDBRANCH  13  29
ENDBRANCH  11  15
ENDBRANCH   1  11
BRANCH   3  38
ATOM     38  O   UNL     1       5.753  -4.498  26.086  0.00  0.00    -0.340 OA
BRANCH  38  39
ATOM     39  C   UNL     1       5.251  -5.371  27.132  0.00  0.00    +0.183 C 
ATOM     40  C   UNL     1       6.287  -5.571  28.276  0.00  0.00    +0.179 C 
ATOM     41  C   UNL     1       5.766  -6.587  29.320  0.00  0.00    +0.201 C 
ATOM     42  C   UNL     1       4.301  -6.335  29.734  0.00  0.00    +0.279 C 
ATOM     43  O   UNL     1       3.449  -5.995  28.652  0.00  0.00    -0.341 OA
ATOM     44  C   UNL     1       3.927  -4.926  27.815  0.00  0.00    +0.178 C 
BRANCH  42  45
ATOM     45  O   UNL     1       3.743  -7.517  30.292  0.00  0.00    -0.365 OA
ATOM     46  H   UNL     1       3.199  -7.198  31.034  0.00  0.00    +0.213 HD
ENDBRANCH  42  45
BRANCH  41  47
ATOM     47  O   UNL     1       6.608  -6.558  30.484  0.00  0.00    -0.384 OA
ATOM     48  H   UNL     1       6.284  -7.253  31.087  0.00  0.00    +0.210 HD
ENDBRANCH  41  47
BRANCH  40  49
ATOM     49  O   UNL     1       7.561  -6.031  27.797  0.00  0.00    -0.386 OA
ATOM     50  H   UNL     1       7.692  -6.950  28.086  0.00  0.00    +0.210 HD
ENDBRANCH  40  49
BRANCH  44  51
ATOM     51  C   UNL     1       3.998  -3.597  28.601  0.00  0.00    +0.190 C 
BRANCH  51  52
ATOM     52  O   UNL     1       4.463  -2.546  27.751  0.00  0.00    -0.392 OA
ATOM     53  H   UNL     1       5.042  -2.948  27.077  0.00  0.00    +0.210 HD
ENDBRANCH  51  52
ENDBRANCH  44  51
ENDBRANCH  38  39
ENDBRANCH   3  38
BRANCH   5  54
ATOM     54  C   UNL     1       6.296  -6.561  22.013  0.00  0.00    +0.190 C 
BRANCH  54  55
ATOM     55  O   UNL     1       5.337  -6.386  20.968  0.00  0.00    -0.392 OA
ATOM     56  H   UNL     1       5.835  -6.068  20.192  0.00  0.00    +0.210 HD
ENDBRANCH  54  55
ENDBRANCH   5  54
TORSDOF 23
ENDMDL
MODEL 3
REMARK VINA RESULT:      -6.0      2.229      4.490
REMARK  Name = 
REMARK  24 active torsions:
REMARK  status: ('A' for Active; 'I' for Inactive)
REMARK    1  A    between atoms: C_1  and  C_2
REMARK    2  A    between atoms: N_4  and  C_5
REMARK    3  A    between atoms: C_7  and  O_9
REMARK    4  A    between atoms: C_11  and  O_12
REMARK    5  A    between atoms: C_11  and  C_56
REMARK    6  A    between atoms: O_12  and  C_13
REMARK    7  A    between atoms: C_15  and  O_17
REMARK    8  A    between atoms: C_18  and  C_20
REMARK    9  A    between atoms: C_20  and  O_21
REMARK   10  A    between atoms: C_23  and  O_25
REMARK   11  A    between atoms: O_25  and  C_26
REMARK   12  A    between atoms: C_28  and  C_30
REMARK   13  A    between atoms: C_30  and  O_31
REMARK   14  A    between atoms: C_33  and  O_35
REMARK   15  A    between atoms: C_36  and  O_38
REMARK   16  A    between atoms: C_39  and  O_41
REMARK   17  A    between atoms: C_42  and  O_44
REMARK   18  A    between atoms: C_46  and  C_48
REMARK   19  A    between atoms: C_48  and  O_50
REMARK   20  A    between atoms: C_48  and  C_51
REMARK   21  A    between atoms: C_51  and  O_53
REMARK   22  A    between atoms: C_51  and  C_54
REMARK   23  A    between atoms: C_54  and  O_55
REMARK   24  A    between atoms: C_56  and  O_57
REMARK                            x       y       z     vdW  Elec       q    Type
REMARK                         _______ _______ _______ _____ _____    ______ ____
ROOT
ATOM      1  C   UNL     1       8.571  -1.871  25.440  0.00  0.00    +0.186 C 
ATOM      2  C   UNL     1       9.342  -0.631  25.954  0.00  0.00    +0.202 C 
ATOM      3  C   UNL     1       9.113   0.679  25.136  0.00  0.00    +0.282 C 
ATOM      4  O   UNL     1       9.111   0.468  23.719  0.00  0.00    -0.341 OA
ATOM      5  C   UNL     1       8.463  -0.725  23.232  0.00  0.00    +0.178 C 
ATOM      6  C   UNL     1       8.945  -1.995  23.966  0.00  0.00    +0.177 C 
ENDROOT
BRANCH   6   7
ATOM      7  O   UNL     1       8.424  -3.208  23.425  0.00  0.00    -0.386 OA
ATOM      8  H   UNL     1       8.860  -3.937  23.911  0.00  0.00    +0.210 HD
ENDBRANCH   6   7
BRANCH   2   9
ATOM      9  O   UNL     1       9.154  -0.439  27.355  0.00  0.00    -0.384 OA
ATOM     10  H   UNL     1       8.247  -0.743  27.532  0.00  0.00    +0.210 HD
ENDBRANCH   2   9
BRANCH   1  11
ATOM     11  O   UNL     1       7.163  -1.707  25.649  0.00  0.00    -0.331 OA
BRANCH  11  15
ATOM     12  C   UNL     1       5.342  -5.479  24.756  0.00  0.00    +0.133 C 
ATOM     13  C   UNL     1       4.521  -4.184  24.600  0.00  0.00    +0.176 C 
ATOM     14  O   UNL     1       5.461  -3.036  24.606  0.00  0.00    -0.332 OA
ATOM     15  C   UNL     1       6.250  -2.851  25.800  0.00  0.00    +0.273 C 
ATOM     16  C   UNL     1       6.947  -4.151  26.254  0.00  0.00    +0.110 C 
ATOM     17  C   UNL     1       6.097  -5.419  26.100  0.00  0.00    +0.143 C 
BRANCH  12  20
ATOM     18  C   UNL     1       6.964  -5.825  21.292  0.00  0.00    +0.109 C 
ATOM     19  C   UNL     1       5.857  -5.802  22.327  0.00  0.00    +0.210 C 
ATOM     20  N   UNL     1       6.291  -5.664  23.635  0.00  0.00    -0.308 N 
ATOM     21  H   UNL     1       7.255  -5.368  23.741  0.00  0.00    +0.149 HD
ATOM     22  O   UNL     1       4.673  -5.894  22.014  0.00  0.00    -0.276 OA
ENDBRANCH  12  20
BRANCH  17  23
ATOM     23  O   UNL     1       5.158  -5.491  27.171  0.00  0.00    -0.390 OA
ATOM     24  H   UNL     1       4.272  -5.255  26.844  0.00  0.00    +0.210 HD
ENDBRANCH  17  23
BRANCH  15  25
ATOM     25  C   UNL     1       5.404  -2.147  26.899  0.00  0.00    +0.365 C 
ATOM     26  O   UNL     1       5.118  -2.627  27.988  0.00  0.00    -0.245 OA
BRANCH  25  27
ATOM     27  O   UNL     1       4.907  -0.942  26.559  0.00  0.00    -0.477 OA
ATOM     28  H   UNL     1       4.381  -0.689  27.349  0.00  0.00    +0.295 HD
ENDBRANCH  25  27
ENDBRANCH  15  25
BRANCH  13  29
ATOM     29  C   UNL     1       3.323  -3.990  25.592  0.00  0.00    +0.176 C 
BRANCH  29  30
ATOM     30  O   UNL     1       2.802  -2.660  25.368  0.00  0.00    -0.387 OA
ATOM     31  H   UNL     1       1.833  -2.762  25.261  0.00  0.00    +0.210 HD
ENDBRANCH  29  30
BRANCH  29  32
ATOM     32  C   UNL     1       2.122  -4.970  25.593  0.00  0.00    +0.171 C 
BRANCH  32  33
ATOM     33  O   UNL     1       2.456  -6.178  26.280  0.00  0.00    -0.387 OA
ATOM     34  H   UNL     1       1.633  -6.692  26.350  0.00  0.00    +0.210 HD
ENDBRANCH  32  33
BRANCH  32  35
ATOM     35  C   UNL     1       1.738  -5.296  24.123  0.00  0.00    +0.189 C 
BRANCH  35  36
ATOM     36  O   UNL     1       2.192  -6.584  23.711  0.00  0.00    -0.392 OA
ATOM     37  H   UNL     1       2.028  -6.648  22.753  0.00  0.00    +0.210 HD
ENDBRANCH  35  36
ENDBRANCH  32  35
ENDBRANCH  29  32
ENDBRANCH  13  29
ENDBRANCH  11  15
ENDBRANCH   1  11
BRANCH   3  38
ATOM     38  O   UNL     1       8.008   1.476  25.627  0.00  0.00    -0.340 OA
BRANCH  38  39
ATOM     39  C   UNL     1       7.346   2.279  24.614  0.00  0.00    +0.183 C 
ATOM     40  C   UNL     1       5.827   1.956  24.510  0.00  0.00    +0.179 C 
ATOM     41  C   UNL     1       5.173   2.748  23.354  0.00  0.00    +0.201 C 
ATOM     42  C   UNL     1       5.578   4.237  23.334  0.00  0.00    +0.279 C 
ATOM     43  O   UNL     1       6.952   4.462  23.601  0.00  0.00    -0.341 OA
ATOM     44  C   UNL     1       7.453   3.820  24.789  0.00  0.00    +0.178 C 
BRANCH  42  45
ATOM     45  O   UNL     1       5.355   4.784  22.040  0.00  0.00    -0.365 OA
ATOM     46  H   UNL     1       5.139   5.718  22.210  0.00  0.00    +0.213 HD
ENDBRANCH  42  45
BRANCH  41  47
ATOM     47  O   UNL     1       3.743   2.638  23.441  0.00  0.00    -0.384 OA
ATOM     48  H   UNL     1       3.532   2.386  24.359  0.00  0.00    +0.210 HD
ENDBRANCH  41  47
BRANCH  40  49
ATOM     49  O   UNL     1       5.570   0.558  24.299  0.00  0.00    -0.386 OA
ATOM     50  H   UNL     1       5.624   0.097  25.153  0.00  0.00    +0.210 HD
ENDBRANCH  40  49
BRANCH  44  51
ATOM     51  C   UNL     1       6.778   4.395  26.055  0.00  0.00    +0.190 C 
BRANCH  51  52
ATOM     52  O   UNL     1       7.461   3.942  27.226  0.00  0.00    -0.392 OA
ATOM     53  H   UNL     1       7.851   4.723  27.660  0.00  0.00    +0.210 HD
ENDBRANCH  51  52
ENDBRANCH  44  51
ENDBRANCH  38  39
ENDBRANCH   3  38
BRANCH   5  54
ATOM     54  C   UNL     1       8.781  -0.842  21.732  0.00  0.00    +0.190 C 
BRANCH  54  55
ATOM     55  O   UNL     1      10.018  -1.530  21.535  0.00  0.00    -0.392 OA
ATOM     56  H   UNL     1      10.592  -1.277  22.281  0.00  0.00    +0.210 HD
ENDBRANCH  54  55
ENDBRANCH   5  54
TORSDOF 23
ENDMDL
MODEL 4
REMARK VINA RESULT:      -6.0      2.598      6.034
REMARK  Name = 
REMARK  24 active torsions:
REMARK  status: ('A' for Active; 'I' for Inactive)
REMARK    1  A    between atoms: C_1  and  C_2
REMARK    2  A    between atoms: N_4  and  C_5
REMARK    3  A    between atoms: C_7  and  O_9
REMARK    4  A    between atoms: C_11  and  O_12
REMARK    5  A    between atoms: C_11  and  C_56
REMARK    6  A    between atoms: O_12  and  C_13
REMARK    7  A    between atoms: C_15  and  O_17
REMARK    8  A    between atoms: C_18  and  C_20
REMARK    9  A    between atoms: C_20  and  O_21
REMARK   10  A    between atoms: C_23  and  O_25
REMARK   11  A    between atoms: O_25  and  C_26
REMARK   12  A    between atoms: C_28  and  C_30
REMARK   13  A    between atoms: C_30  and  O_31
REMARK   14  A    between atoms: C_33  and  O_35
REMARK   15  A    between atoms: C_36  and  O_38
REMARK   16  A    between atoms: C_39  and  O_41
REMARK   17  A    between atoms: C_42  and  O_44
REMARK   18  A    between atoms: C_46  and  C_48
REMARK   19  A    between atoms: C_48  and  O_50
REMARK   20  A    between atoms: C_48  and  C_51
REMARK   21  A    between atoms: C_51  and  O_53
REMARK   22  A    between atoms: C_51  and  C_54
REMARK   23  A    between atoms: C_54  and  O_55
REMARK   24  A    between atoms: C_56  and  O_57
REMARK                            x       y       z     vdW  Elec       q    Type
REMARK                         _______ _______ _______ _____ _____    ______ ____
ROOT
ATOM      1  C   UNL     1       5.361   1.277  25.374  0.00  0.00    +0.186 C 
ATOM      2  C   UNL     1       4.663   2.480  24.692  0.00  0.00    +0.202 C 
ATOM      3  C   UNL     1       5.421   3.839  24.807  0.00  0.00    +0.282 C 
ATOM      4  O   UNL     1       5.970   4.073  26.109  0.00  0.00    -0.341 OA
ATOM      5  C   UNL     1       6.554   2.943  26.789  0.00  0.00    +0.178 C 
ATOM      6  C   UNL     1       5.612   1.721  26.812  0.00  0.00    +0.177 C 
ENDROOT
BRANCH   6   7
ATOM      7  O   UNL     1       6.101   0.628  27.588  0.00  0.00    -0.386 OA
ATOM      8  H   UNL     1       6.301  -0.092  26.955  0.00  0.00    +0.210 HD
ENDBRANCH   6   7
BRANCH   2   9
ATOM      9  O   UNL     1       4.288   2.176  23.349  0.00  0.00    -0.384 OA
ATOM     10  H   UNL     1       4.120   3.038  22.932  0.00  0.00    +0.210 HD
ENDBRANCH   2   9
BRANCH   1  11
ATOM     11  O   UNL     1       6.565   0.936  24.676  0.00  0.00    -0.331 OA
BRANCH  11  15
ATOM     12  C   UNL     1       6.206  -3.306  24.211  0.00  0.00    +0.133 C 
ATOM     13  C   UNL     1       6.854  -2.735  25.488  0.00  0.00    +0.176 C 
ATOM     14  O   UNL     1       6.526  -1.291  25.567  0.00  0.00    -0.332 OA
ATOM     15  C   UNL     1       6.999  -0.457  24.487  0.00  0.00    +0.273 C 
ATOM     16  C   UNL     1       6.653  -1.037  23.100  0.00  0.00    +0.110 C 
ATOM     17  C   UNL     1       6.788  -2.563  22.993  0.00  0.00    +0.143 C 
BRANCH  12  20
ATOM     18  C   UNL     1       2.457  -3.789  24.894  0.00  0.00    +0.109 C 
ATOM     19  C   UNL     1       3.926  -4.152  24.808  0.00  0.00    +0.210 C 
ATOM     20  N   UNL     1       4.732  -3.179  24.243  0.00  0.00    -0.308 N 
ATOM     21  H   UNL     1       4.307  -2.261  24.162  0.00  0.00    +0.149 HD
ATOM     22  O   UNL     1       4.353  -5.229  25.217  0.00  0.00    -0.276 OA
ENDBRANCH  12  20
BRANCH  17  23
ATOM     23  O   UNL     1       8.165  -2.905  22.846  0.00  0.00    -0.390 OA
ATOM     24  H   UNL     1       8.519  -2.493  22.037  0.00  0.00    +0.210 HD
ENDBRANCH  17  23
BRANCH  15  25
ATOM     25  C   UNL     1       8.501  -0.114  24.694  0.00  0.00    +0.365 C 
ATOM     26  O   UNL     1       9.400  -0.360  23.900  0.00  0.00    -0.245 OA
BRANCH  25  27
ATOM     27  O   UNL     1       8.808   0.438  25.884  0.00  0.00    -0.477 OA
ATOM     28  H   UNL     1       8.623   1.392  25.740  0.00  0.00    +0.295 HD
ENDBRANCH  25  27
ENDBRANCH  15  25
BRANCH  13  29
ATOM     29  C   UNL     1       8.384  -3.019  25.684  0.00  0.00    +0.176 C 
BRANCH  29  30
ATOM     30  O   UNL     1       8.789  -2.328  26.887  0.00  0.00    -0.387 OA
ATOM     31  H   UNL     1       9.696  -2.639  27.087  0.00  0.00    +0.210 HD
ENDBRANCH  29  30
BRANCH  29  32
ATOM     32  C   UNL     1       8.920  -4.470  25.774  0.00  0.00    +0.171 C 
BRANCH  32  33
ATOM     33  O   UNL     1       9.437  -4.897  24.512  0.00  0.00    -0.387 OA
ATOM     34  H   UNL     1      10.200  -4.326  24.318  0.00  0.00    +0.210 HD
ENDBRANCH  32  33
BRANCH  32  35
ATOM     35  C   UNL     1       7.760  -5.409  26.206  0.00  0.00    +0.189 C 
BRANCH  35  36
ATOM     36  O   UNL     1       7.872  -5.830  27.564  0.00  0.00    -0.392 OA
ATOM     37  H   UNL     1       7.730  -5.040  28.117  0.00  0.00    +0.210 HD
ENDBRANCH  35  36
ENDBRANCH  32  35
ENDBRANCH  29  32
ENDBRANCH  13  29
ENDBRANCH  11  15
ENDBRANCH   1  11
BRANCH   3  38
ATOM     38  O   UNL     1       6.341   4.078  23.714  0.00  0.00    -0.340 OA
BRANCH  38  39
ATOM     39  C   UNL     1       7.583   4.724  24.101  0.00  0.00    +0.183 C 
ATOM     40  C   UNL     1       8.822   4.064  23.428  0.00  0.00    +0.179 C 
ATOM     41  C   UNL     1      10.133   4.703  23.941  0.00  0.00    +0.201 C 
ATOM     42  C   UNL     1      10.086   6.245  23.967  0.00  0.00    +0.279 C 
ATOM     43  O   UNL     1       8.858   6.774  24.440  0.00  0.00    -0.341 OA
ATOM     44  C   UNL     1       7.683   6.246  23.799  0.00  0.00    +0.178 C 
BRANCH  42  45
ATOM     45  O   UNL     1      11.076   6.748  24.857  0.00  0.00    -0.365 OA
ATOM     46  H   UNL     1      10.583   6.957  25.669  0.00  0.00    +0.213 HD
ENDBRANCH  42  45
BRANCH  41  47
ATOM     47  O   UNL     1      11.234   4.269  23.125  0.00  0.00    -0.384 OA
ATOM     48  H   UNL     1      11.854   3.797  23.712  0.00  0.00    +0.210 HD
ENDBRANCH  41  47
BRANCH  40  49
ATOM     49  O   UNL     1       8.891   2.647  23.661  0.00  0.00    -0.386 OA
ATOM     50  H   UNL     1       8.406   2.440  24.477  0.00  0.00    +0.210 HD
ENDBRANCH  40  49
BRANCH  44  51
ATOM     51  C   UNL     1       7.646   6.631  22.303  0.00  0.00    +0.190 C 
BRANCH  51  52
ATOM     52  O   UNL     1       6.553   5.980  21.652  0.00  0.00    -0.392 OA
ATOM     53  H   UNL     1       6.880   5.638  20.799  0.00  0.00    +0.210 HD
ENDBRANCH  51  52
ENDBRANCH  44  51
ENDBRANCH  38  39
ENDBRANCH   3  38
BRANCH   5  54
ATOM     54  C   UNL     1       6.866   3.383  28.229  0.00  0.00    +0.190 C 
BRANCH  54  55
ATOM     55  O   UNL     1       7.697   2.419  28.878  0.00  0.00    -0.392 OA
ATOM     56  H   UNL     1       7.489   2.477  29.829  0.00  0.00    +0.210 HD
ENDBRANCH  54  55
ENDBRANCH   5  54
TORSDOF 23
ENDMDL
MODEL 5
REMARK VINA RESULT:      -5.9      3.101      9.509
REMARK  Name = 
REMARK  24 active torsions:
REMARK  status: ('A' for Active; 'I' for Inactive)
REMARK    1  A    between atoms: C_1  and  C_2
REMARK    2  A    between atoms: N_4  and  C_5
REMARK    3  A    between atoms: C_7  and  O_9
REMARK    4  A    between atoms: C_11  and  O_12
REMARK    5  A    between atoms: C_11  and  C_56
REMARK    6  A    between atoms: O_12  and  C_13
REMARK    7  A    between atoms: C_15  and  O_17
REMARK    8  A    between atoms: C_18  and  C_20
REMARK    9  A    between atoms: C_20  and  O_21
REMARK   10  A    between atoms: C_23  and  O_25
REMARK   11  A    between atoms: O_25  and  C_26
REMARK   12  A    between atoms: C_28  and  C_30
REMARK   13  A    between atoms: C_30  and  O_31
REMARK   14  A    between atoms: C_33  and  O_35
REMARK   15  A    between atoms: C_36  and  O_38
REMARK   16  A    between atoms: C_39  and  O_41
REMARK   17  A    between atoms: C_42  and  O_44
REMARK   18  A    between atoms: C_46  and  C_48
REMARK   19  A    between atoms: C_48  and  O_50
REMARK   20  A    between atoms: C_48  and  C_51
REMARK   21  A    between atoms: C_51  and  O_53
REMARK   22  A    between atoms: C_51  and  C_54
REMARK   23  A    between atoms: C_54  and  O_55
REMARK   24  A    between atoms: C_56  and  O_57
REMARK                            x       y       z     vdW  Elec       q    Type
REMARK                         _______ _______ _______ _____ _____    ______ ____
ROOT
ATOM      1  C   UNL     1       8.133   0.080  25.891  0.00  0.00    +0.186 C 
ATOM      2  C   UNL     1       8.198  -1.467  25.904  0.00  0.00    +0.202 C 
ATOM      3  C   UNL     1       6.814  -2.189  25.923  0.00  0.00    +0.282 C 
ATOM      4  O   UNL     1       5.869  -1.581  26.812  0.00  0.00    -0.341 OA
ATOM      5  C   UNL     1       5.852  -0.139  26.866  0.00  0.00    +0.178 C 
ATOM      6  C   UNL     1       7.260   0.457  27.084  0.00  0.00    +0.177 C 
ENDROOT
BRANCH   6   7
ATOM      7  O   UNL     1       7.266   1.870  27.274  0.00  0.00    -0.386 OA
ATOM      8  H   UNL     1       6.369   2.111  27.584  0.00  0.00    +0.210 HD
ENDBRANCH   6   7
BRANCH   2   9
ATOM      9  O   UNL     1       9.059  -1.964  24.882  0.00  0.00    -0.384 OA
ATOM     10  H   UNL     1       8.853  -1.431  24.095  0.00  0.00    +0.210 HD
ENDBRANCH   2   9
BRANCH   1  11
ATOM     11  O   UNL     1       7.607   0.548  24.643  0.00  0.00    -0.331 OA
BRANCH  11  15
ATOM     12  C   UNL     1       8.176   4.792  24.726  0.00  0.00    +0.133 C 
ATOM     13  C   UNL     1       6.952   4.205  23.996  0.00  0.00    +0.176 C 
ATOM     14  O   UNL     1       6.792   2.793  24.423  0.00  0.00    -0.332 OA
ATOM     15  C   UNL     1       7.884   1.897  24.126  0.00  0.00    +0.273 C 
ATOM     16  C   UNL     1       9.249   2.466  24.567  0.00  0.00    +0.110 C 
ATOM     17  C   UNL     1       9.421   3.973  24.329  0.00  0.00    +0.143 C 
BRANCH  12  20
ATOM     18  C   UNL     1       7.126   5.574  28.337  0.00  0.00    +0.109 C 
ATOM     19  C   UNL     1       7.365   5.820  26.861  0.00  0.00    +0.210 C 
ATOM     20  N   UNL     1       7.994   4.781  26.195  0.00  0.00    -0.308 N 
ATOM     21  H   UNL     1       8.017   3.899  26.695  0.00  0.00    +0.149 HD
ATOM     22  O   UNL     1       7.019   6.863  26.311  0.00  0.00    -0.276 OA
ENDBRANCH  12  20
BRANCH  17  23
ATOM     23  O   UNL     1       9.716   4.202  22.952  0.00  0.00    -0.390 OA
ATOM     24  H   UNL     1       9.108   3.680  22.398  0.00  0.00    +0.210 HD
ENDBRANCH  17  23
BRANCH  15  25
ATOM     25  C   UNL     1       7.817   1.442  22.641  0.00  0.00    +0.365 C 
ATOM     26  O   UNL     1       8.713   1.577  21.818  0.00  0.00    -0.245 OA
BRANCH  25  27
ATOM     27  O   UNL     1       6.636   0.924  22.250  0.00  0.00    -0.477 OA
ATOM     28  H   UNL     1       6.257   0.580  23.088  0.00  0.00    +0.295 HD
ENDBRANCH  25  27
ENDBRANCH  15  25
BRANCH  13  29
ATOM     29  C   UNL     1       6.919   4.372  22.437  0.00  0.00    +0.176 C 
BRANCH  29  30
ATOM     30  O   UNL     1       5.721   3.714  21.968  0.00  0.00    -0.387 OA
ATOM     31  H   UNL     1       5.881   3.496  21.027  0.00  0.00    +0.210 HD
ENDBRANCH  29  30
BRANCH  29  32
ATOM     32  C   UNL     1       6.967   5.778  21.786  0.00  0.00    +0.171 C 
BRANCH  32  33
ATOM     33  O   UNL     1       8.257   6.370  21.955  0.00  0.00    -0.387 OA
ATOM     34  H   UNL     1       8.778   6.126  21.171  0.00  0.00    +0.210 HD
ENDBRANCH  32  33
BRANCH  32  35
ATOM     35  C   UNL     1       5.890   6.678  22.452  0.00  0.00    +0.189 C 
BRANCH  35  36
ATOM     36  O   UNL     1       4.590   6.476  21.901  0.00  0.00    -0.392 OA
ATOM     37  H   UNL     1       3.949   6.739  22.586  0.00  0.00    +0.210 HD
ENDBRANCH  35  36
ENDBRANCH  32  35
ENDBRANCH  29  32
ENDBRANCH  13  29
ENDBRANCH  11  15
ENDBRANCH   1  11
BRANCH   3  38
ATOM     38  O   UNL     1       6.298  -2.475  24.600  0.00  0.00    -0.340 OA
BRANCH  38  39
ATOM     39  C   UNL     1       5.639  -3.763  24.475  0.00  0.00    +0.183 C 
ATOM     40  C   UNL     1       5.694  -4.310  23.018  0.00  0.00    +0.179 C 
ATOM     41  C   UNL     1       4.895  -5.628  22.895  0.00  0.00    +0.201 C 
ATOM     42  C   UNL     1       5.193  -6.627  24.032  0.00  0.00    +0.279 C 
ATOM     43  O   UNL     1       5.292  -6.026  25.313  0.00  0.00    -0.341 OA
ATOM     44  C   UNL     1       6.183  -4.898  25.387  0.00  0.00    +0.178 C 
BRANCH  42  45
ATOM     45  O   UNL     1       4.133  -7.569  24.144  0.00  0.00    -0.365 OA
ATOM     46  H   UNL     1       3.445  -7.097  24.644  0.00  0.00    +0.213 HD
ENDBRANCH  42  45
BRANCH  41  47
ATOM     47  O   UNL     1       5.173  -6.245  21.627  0.00  0.00    -0.384 OA
ATOM     48  H   UNL     1       4.667  -7.078  21.599  0.00  0.00    +0.210 HD
ENDBRANCH  41  47
BRANCH  40  49
ATOM     49  O   UNL     1       5.176  -3.378  22.055  0.00  0.00    -0.386 OA
ATOM     50  H   UNL     1       5.683  -3.464  21.231  0.00  0.00    +0.210 HD
ENDBRANCH  40  49
BRANCH  44  51
ATOM     51  C   UNL     1       7.643  -5.327  25.117  0.00  0.00    +0.190 C 
BRANCH  51  52
ATOM     52  O   UNL     1       8.256  -5.780  26.326  0.00  0.00    -0.392 OA
ATOM     53  H   UNL     1       8.459  -6.728  26.216  0.00  0.00    +0.210 HD
ENDBRANCH  51  52
ENDBRANCH  44  51
ENDBRANCH  38  39
ENDBRANCH   3  38
BRANCH   5  54
ATOM     54  C   UNL     1       4.933   0.266  28.030  0.00  0.00    +0.190 C 
BRANCH  54  55
ATOM     55  O   UNL     1       5.705   0.578  29.192  0.00  0.00    -0.392 OA
ATOM     56  H   UNL     1       5.123   0.413  29.957  0.00  0.00    +0.210 HD
ENDBRANCH  54  55
ENDBRANCH   5  54
TORSDOF 23
ENDMDL
MODEL 6
REMARK VINA RESULT:      -5.9      2.613      8.860
REMARK  Name = 
REMARK  24 active torsions:
REMARK  status: ('A' for Active; 'I' for Inactive)
REMARK    1  A    between atoms: C_1  and  C_2
REMARK    2  A    between atoms: N_4  and  C_5
REMARK    3  A    between atoms: C_7  and  O_9
REMARK    4  A    between atoms: C_11  and  O_12
REMARK    5  A    between atoms: C_11  and  C_56
REMARK    6  A    between atoms: O_12  and  C_13
REMARK    7  A    between atoms: C_15  and  O_17
REMARK    8  A    between atoms: C_18  and  C_20
REMARK    9  A    between atoms: C_20  and  O_21
REMARK   10  A    between atoms: C_23  and  O_25
REMARK   11  A    between atoms: O_25  and  C_26
REMARK   12  A    between atoms: C_28  and  C_30
REMARK   13  A    between atoms: C_30  and  O_31
REMARK   14  A    between atoms: C_33  and  O_35
REMARK   15  A    between atoms: C_36  and  O_38
REMARK   16  A    between atoms: C_39  and  O_41
REMARK   17  A    between atoms: C_42  and  O_44
REMARK   18  A    between atoms: C_46  and  C_48
REMARK   19  A    between atoms: C_48  and  O_50
REMARK   20  A    between atoms: C_48  and  C_51
REMARK   21  A    between atoms: C_51  and  O_53
REMARK   22  A    between atoms: C_51  and  C_54
REMARK   23  A    between atoms: C_54  and  O_55
REMARK   24  A    between atoms: C_56  and  O_57
REMARK                            x       y       z     vdW  Elec       q    Type
REMARK                         _______ _______ _______ _____ _____    ______ ____
ROOT
ATOM      1  C   UNL     1       5.357  -2.815  23.442  0.00  0.00    +0.186 C 
ATOM      2  C   UNL     1       4.190  -3.596  24.095  0.00  0.00    +0.202 C 
ATOM      3  C   UNL     1       4.560  -5.012  24.636  0.00  0.00    +0.282 C 
ATOM      4  O   UNL     1       5.410  -5.753  23.752  0.00  0.00    -0.341 OA
ATOM      5  C   UNL     1       6.453  -5.021  23.076  0.00  0.00    +0.178 C 
ATOM      6  C   UNL     1       5.922  -3.751  22.378  0.00  0.00    +0.177 C 
ENDROOT
BRANCH   6   7
ATOM      7  O   UNL     1       6.899  -3.072  21.591  0.00  0.00    -0.386 OA
ATOM      8  H   UNL     1       7.657  -2.895  22.185  0.00  0.00    +0.210 HD
ENDBRANCH   6   7
BRANCH   2   9
ATOM      9  O   UNL     1       3.505  -2.803  25.063  0.00  0.00    -0.384 OA
ATOM     10  H   UNL     1       2.685  -2.519  24.623  0.00  0.00    +0.210 HD
ENDBRANCH   2   9
BRANCH   1  11
ATOM     11  O   UNL     1       6.325  -2.443  24.431  0.00  0.00    -0.331 OA
BRANCH  11  15
ATOM     12  C   UNL     1       6.776   1.797  24.030  0.00  0.00    +0.133 C 
ATOM     13  C   UNL     1       7.431   0.863  22.994  0.00  0.00    +0.176 C 
ATOM     14  O   UNL     1       6.830  -0.485  23.140  0.00  0.00    -0.332 OA
ATOM     15  C   UNL     1       7.006  -1.139  24.415  0.00  0.00    +0.273 C 
ATOM     16  C   UNL     1       6.635  -0.226  25.602  0.00  0.00    +0.110 C 
ATOM     17  C   UNL     1       7.061   1.240  25.439  0.00  0.00    +0.143 C 
BRANCH  12  20
ATOM     18  C   UNL     1       3.255   3.067  23.170  0.00  0.00    +0.109 C 
ATOM     19  C   UNL     1       4.726   3.144  23.523  0.00  0.00    +0.210 C 
ATOM     20  N   UNL     1       5.318   1.924  23.807  0.00  0.00    -0.308 N 
ATOM     21  H   UNL     1       4.781   1.110  23.529  0.00  0.00    +0.149 HD
ATOM     22  O   UNL     1       5.334   4.212  23.548  0.00  0.00    -0.276 OA
ENDBRANCH  12  20
BRANCH  17  23
ATOM     23  O   UNL     1       8.454   1.360  25.720  0.00  0.00    -0.390 OA
ATOM     24  H   UNL     1       8.775   2.227  25.413  0.00  0.00    +0.210 HD
ENDBRANCH  17  23
BRANCH  15  25
ATOM     25  C   UNL     1       8.422  -1.775  24.501  0.00  0.00    +0.365 C 
ATOM     26  O   UNL     1       8.905  -2.543  23.679  0.00  0.00    -0.245 OA
BRANCH  25  27
ATOM     27  O   UNL     1       9.117  -1.487  25.620  0.00  0.00    -0.477 OA
ATOM     28  H   UNL     1       8.488  -1.720  26.337  0.00  0.00    +0.295 HD
ENDBRANCH  25  27
ENDBRANCH  15  25
BRANCH  13  29
ATOM     29  C   UNL     1       8.999   0.827  22.975  0.00  0.00    +0.176 C 
BRANCH  29  30
ATOM     30  O   UNL     1       9.388  -0.017  21.869  0.00  0.00    -0.387 OA
ATOM     31  H   UNL     1       8.930   0.341  21.080  0.00  0.00    +0.210 HD
ENDBRANCH  29  30
BRANCH  29  32
ATOM     32  C   UNL     1       9.824   2.136  22.878  0.00  0.00    +0.171 C 
BRANCH  32  33
ATOM     33  O   UNL     1      10.254   2.364  21.534  0.00  0.00    -0.387 OA
ATOM     34  H   UNL     1       9.676   3.057  21.173  0.00  0.00    +0.210 HD
ENDBRANCH  32  33
BRANCH  32  35
ATOM     35  C   UNL     1      11.063   2.020  23.809  0.00  0.00    +0.189 C 
BRANCH  35  36
ATOM     36  O   UNL     1      11.090   0.793  24.536  0.00  0.00    -0.392 OA
ATOM     37  H   UNL     1      10.370   0.837  25.190  0.00  0.00    +0.210 HD
ENDBRANCH  35  36
ENDBRANCH  32  35
ENDBRANCH  29  32
ENDBRANCH  13  29
ENDBRANCH  11  15
ENDBRANCH   1  11
BRANCH   3  38
ATOM     38  O   UNL     1       4.993  -5.003  26.019  0.00  0.00    -0.340 OA
BRANCH  38  39
ATOM     39  C   UNL     1       4.312  -5.962  26.870  0.00  0.00    +0.183 C 
ATOM     40  C   UNL     1       4.972  -6.071  28.276  0.00  0.00    +0.179 C 
ATOM     41  C   UNL     1       4.292  -7.173  29.120  0.00  0.00    +0.201 C 
ATOM     42  C   UNL     1       2.751  -7.113  29.070  0.00  0.00    +0.279 C 
ATOM     43  O   UNL     1       2.229  -6.846  27.779  0.00  0.00    -0.341 OA
ATOM     44  C   UNL     1       2.800  -5.702  27.118  0.00  0.00    +0.178 C 
BRANCH  42  45
ATOM     45  O   UNL     1       2.202  -8.371  29.442  0.00  0.00    -0.365 OA
ATOM     46  H   UNL     1       2.260  -8.906  28.631  0.00  0.00    +0.213 HD
ENDBRANCH  42  45
BRANCH  41  47
ATOM     47  O   UNL     1       4.734  -7.079  30.485  0.00  0.00    -0.384 OA
ATOM     48  H   UNL     1       4.268  -6.321  30.883  0.00  0.00    +0.210 HD
ENDBRANCH  41  47
BRANCH  40  49
ATOM     49  O   UNL     1       6.378  -6.358  28.209  0.00  0.00    -0.386 OA
ATOM     50  H   UNL     1       6.842  -5.575  27.866  0.00  0.00    +0.210 HD
ENDBRANCH  40  49
BRANCH  44  51
ATOM     51  C   UNL     1       2.465  -4.398  27.878  0.00  0.00    +0.190 C 
BRANCH  51  52
ATOM     52  O   UNL     1       3.562  -3.486  27.800  0.00  0.00    -0.392 OA
ATOM     53  H   UNL     1       3.291  -2.750  27.220  0.00  0.00    +0.210 HD
ENDBRANCH  51  52
ENDBRANCH  44  51
ENDBRANCH  38  39
ENDBRANCH   3  38
BRANCH   5  54
ATOM     54  C   UNL     1       7.075  -5.964  22.033  0.00  0.00    +0.190 C 
BRANCH  54  55
ATOM     55  O   UNL     1       6.335  -5.917  20.812  0.00  0.00    -0.392 OA
ATOM     56  H   UNL     1       6.289  -6.835  20.487  0.00  0.00    +0.210 HD
ENDBRANCH  54  55
ENDBRANCH   5  54
TORSDOF 23
ENDMDL
MODEL 7
REMARK VINA RESULT:      -5.9      1.848      2.631
REMARK  Name = 
REMARK  24 active torsions:
REMARK  status: ('A' for Active; 'I' for Inactive)
REMARK    1  A    between atoms: C_1  and  C_2
REMARK    2  A    between atoms: N_4  and  C_5
REMARK    3  A    between atoms: C_7  and  O_9
REMARK    4  A    between atoms: C_11  and  O_12
REMARK    5  A    between atoms: C_11  and  C_56
REMARK    6  A    between atoms: O_12  and  C_13
REMARK    7  A    between atoms: C_15  and  O_17
REMARK    8  A    between atoms: C_18  and  C_20
REMARK    9  A    between atoms: C_20  and  O_21
REMARK   10  A    between atoms: C_23  and  O_25
REMARK   11  A    between atoms: O_25  and  C_26
REMARK   12  A    between atoms: C_28  and  C_30
REMARK   13  A    between atoms: C_30  and  O_31
REMARK   14  A    between atoms: C_33  and  O_35
REMARK   15  A    between atoms: C_36  and  O_38
REMARK   16  A    between atoms: C_39  and  O_41
REMARK   17  A    between atoms: C_42  and  O_44
REMARK   18  A    between atoms: C_46  and  C_48
REMARK   19  A    between atoms: C_48  and  O_50
REMARK   20  A    between atoms: C_48  and  C_51
REMARK   21  A    between atoms: C_51  and  O_53
REMARK   22  A    between atoms: C_51  and  C_54
REMARK   23  A    between atoms: C_54  and  O_55
REMARK   24  A    between atoms: C_56  and  O_57
REMARK                            x       y       z     vdW  Elec       q    Type
REMARK                         _______ _______ _______ _____ _____    ______ ____
ROOT
ATOM      1  C   UNL     1       7.493  -4.219  25.081  0.00  0.00    +0.186 C 
ATOM      2  C   UNL     1       7.897  -3.614  26.448  0.00  0.00    +0.202 C 
ATOM      3  C   UNL     1       8.168  -2.077  26.439  0.00  0.00    +0.282 C 
ATOM      4  O   UNL     1       8.920  -1.641  25.300  0.00  0.00    -0.341 OA
ATOM      5  C   UNL     1       8.606  -2.254  24.032  0.00  0.00    +0.178 C 
ATOM      6  C   UNL     1       8.594  -3.796  24.113  0.00  0.00    +0.177 C 
ENDROOT
BRANCH   6   7
ATOM      7  O   UNL     1       8.417  -4.439  22.853  0.00  0.00    -0.386 OA
ATOM      8  H   UNL     1       8.500  -3.740  22.172  0.00  0.00    +0.210 HD
ENDBRANCH   6   7
BRANCH   2   9
ATOM      9  O   UNL     1       6.993  -4.003  27.481  0.00  0.00    -0.384 OA
ATOM     10  H   UNL     1       6.109  -3.786  27.138  0.00  0.00    +0.210 HD
ENDBRANCH   2   9
BRANCH   1  11
ATOM     11  O   UNL     1       6.196  -3.753  24.692  0.00  0.00    -0.331 OA
BRANCH  11  15
ATOM     12  C   UNL     1       3.343  -5.671  27.248  0.00  0.00    +0.133 C 
ATOM     13  C   UNL     1       4.107  -6.506  26.201  0.00  0.00    +0.176 C 
ATOM     14  O   UNL     1       5.261  -5.707  25.724  0.00  0.00    -0.332 OA
ATOM     15  C   UNL     1       4.959  -4.455  25.072  0.00  0.00    +0.273 C 
ATOM     16  C   UNL     1       3.975  -3.589  25.886  0.00  0.00    +0.110 C 
ATOM     17  C   UNL     1       2.849  -4.375  26.572  0.00  0.00    +0.143 C 
BRANCH  12  20
ATOM     18  C   UNL     1       5.446  -5.848  30.457  0.00  0.00    +0.109 C 
ATOM     19  C   UNL     1       4.435  -6.285  29.416  0.00  0.00    +0.210 C 
ATOM     20  N   UNL     1       4.191  -5.355  28.419  0.00  0.00    -0.308 N 
ATOM     21  H   UNL     1       4.864  -4.599  28.361  0.00  0.00    +0.149 HD
ATOM     22  O   UNL     1       3.886  -7.383  29.464  0.00  0.00    -0.276 OA
ENDBRANCH  12  20
BRANCH  17  23
ATOM     23  O   UNL     1       1.846  -4.699  25.611  0.00  0.00    -0.390 OA
ATOM     24  H   UNL     1       2.179  -5.391  25.013  0.00  0.00    +0.210 HD
ENDBRANCH  17  23
BRANCH  15  25
ATOM     25  C   UNL     1       4.539  -4.706  23.596  0.00  0.00    +0.365 C 
ATOM     26  O   UNL     1       3.445  -4.440  23.116  0.00  0.00    -0.245 OA
BRANCH  25  27
ATOM     27  O   UNL     1       5.459  -5.331  22.834  0.00  0.00    -0.477 OA
ATOM     28  H   UNL     1       6.265  -4.788  22.971  0.00  0.00    +0.295 HD
ENDBRANCH  25  27
ENDBRANCH  15  25
BRANCH  13  29
ATOM     29  C   UNL     1       3.257  -7.103  25.026  0.00  0.00    +0.176 C 
BRANCH  29  30
ATOM     30  O   UNL     1       4.178  -7.786  24.146  0.00  0.00    -0.387 OA
ATOM     31  H   UNL     1       4.570  -8.512  24.673  0.00  0.00    +0.210 HD
ENDBRANCH  29  30
BRANCH  29  32
ATOM     32  C   UNL     1       2.076  -8.066  25.306  0.00  0.00    +0.171 C 
BRANCH  32  33
ATOM     33  O   UNL     1       2.507  -9.428  25.243  0.00  0.00    -0.387 OA
ATOM     34  H   UNL     1       3.262  -9.450  24.629  0.00  0.00    +0.210 HD
ENDBRANCH  32  33
BRANCH  32  35
ATOM     35  C   UNL     1       0.965  -7.823  24.247  0.00  0.00    +0.189 C 
BRANCH  35  36
ATOM     36  O   UNL     1       1.252  -6.714  23.397  0.00  0.00    -0.392 OA
ATOM     37  H   UNL     1       1.316  -5.929  23.970  0.00  0.00    +0.210 HD
ENDBRANCH  35  36
ENDBRANCH  32  35
ENDBRANCH  29  32
ENDBRANCH  13  29
ENDBRANCH  11  15
ENDBRANCH   1  11
BRANCH   3  38
ATOM     38  O   UNL     1       6.989  -1.285  26.722  0.00  0.00    -0.340 OA
BRANCH  38  39
ATOM     39  C   UNL     1       6.985   0.031  26.107  0.00  0.00    +0.183 C 
ATOM     40  C   UNL     1       5.719   0.266  25.232  0.00  0.00    +0.179 C 
ATOM     41  C   UNL     1       5.795   1.630  24.509  0.00  0.00    +0.201 C 
ATOM     42  C   UNL     1       6.233   2.785  25.434  0.00  0.00    +0.279 C 
ATOM     43  O   UNL     1       7.286   2.442  26.320  0.00  0.00    -0.341 OA
ATOM     44  C   UNL     1       7.071   1.240  27.082  0.00  0.00    +0.178 C 
BRANCH  42  45
ATOM     45  O   UNL     1       6.735   3.866  24.659  0.00  0.00    -0.365 OA
ATOM     46  H   UNL     1       6.200   3.847  23.846  0.00  0.00    +0.213 HD
ENDBRANCH  42  45
BRANCH  41  47
ATOM     47  O   UNL     1       4.519   1.939  23.925  0.00  0.00    -0.384 OA
ATOM     48  H   UNL     1       4.403   1.344  23.161  0.00  0.00    +0.210 HD
ENDBRANCH  41  47
BRANCH  40  49
ATOM     49  O   UNL     1       5.531  -0.759  24.243  0.00  0.00    -0.386 OA
ATOM     50  H   UNL     1       4.711  -1.242  24.443  0.00  0.00    +0.210 HD
ENDBRANCH  40  49
BRANCH  44  51
ATOM     51  C   UNL     1       5.875   1.402  28.047  0.00  0.00    +0.190 C 
BRANCH  51  52
ATOM     52  O   UNL     1       5.722   0.226  28.844  0.00  0.00    -0.392 OA
ATOM     53  H   UNL     1       6.167   0.388  29.697  0.00  0.00    +0.210 HD
ENDBRANCH  51  52
ENDBRANCH  44  51
ENDBRANCH  38  39
ENDBRANCH   3  38
BRANCH   5  54
ATOM     54  C   UNL     1       9.674  -1.797  23.024  0.00  0.00    +0.190 C 
BRANCH  54  55
ATOM     55  O   UNL     1       9.124  -1.735  21.707  0.00  0.00    -0.392 OA
ATOM     56  H   UNL     1       8.956  -0.792  21.526  0.00  0.00    +0.210 HD
ENDBRANCH  54  55
ENDBRANCH   5  54
TORSDOF 23
ENDMDL
MODEL 8
REMARK VINA RESULT:      -5.8      3.674      9.326
REMARK  Name = 
REMARK  24 active torsions:
REMARK  status: ('A' for Active; 'I' for Inactive)
REMARK    1  A    between atoms: C_1  and  C_2
REMARK    2  A    between atoms: N_4  and  C_5
REMARK    3  A    between atoms: C_7  and  O_9
REMARK    4  A    between atoms: C_11  and  O_12
REMARK    5  A    between atoms: C_11  and  C_56
REMARK    6  A    between atoms: O_12  and  C_13
REMARK    7  A    between atoms: C_15  and  O_17
REMARK    8  A    between atoms: C_18  and  C_20
REMARK    9  A    between atoms: C_20  and  O_21
REMARK   10  A    between atoms: C_23  and  O_25
REMARK   11  A    between atoms: O_25  and  C_26
REMARK   12  A    between atoms: C_28  and  C_30
REMARK   13  A    between atoms: C_30  and  O_31
REMARK   14  A    between atoms: C_33  and  O_35
REMARK   15  A    between atoms: C_36  and  O_38
REMARK   16  A    between atoms: C_39  and  O_41
REMARK   17  A    between atoms: C_42  and  O_44
REMARK   18  A    between atoms: C_46  and  C_48
REMARK   19  A    between atoms: C_48  and  O_50
REMARK   20  A    between atoms: C_48  and  C_51
REMARK   21  A    between atoms: C_51  and  O_53
REMARK   22  A    between atoms: C_51  and  C_54
REMARK   23  A    between atoms: C_54  and  O_55
REMARK   24  A    between atoms: C_56  and  O_57
REMARK                            x       y       z     vdW  Elec       q    Type
REMARK                         _______ _______ _______ _____ _____    ______ ____
ROOT
ATOM      1  C   UNL     1       5.239   1.224  26.550  0.00  0.00    +0.186 C 
ATOM      2  C   UNL     1       6.334   0.189  26.909  0.00  0.00    +0.202 C 
ATOM      3  C   UNL     1       5.924  -1.304  26.713  0.00  0.00    +0.282 C 
ATOM      4  O   UNL     1       4.597  -1.592  27.169  0.00  0.00    -0.341 OA
ATOM      5  C   UNL     1       3.582  -0.599  26.909  0.00  0.00    +0.178 C 
ATOM      6  C   UNL     1       4.014   0.813  27.361  0.00  0.00    +0.177 C 
ENDROOT
BRANCH   6   7
ATOM      7  O   UNL     1       2.989   1.796  27.241  0.00  0.00    -0.386 OA
ATOM      8  H   UNL     1       2.735   2.044  28.153  0.00  0.00    +0.210 HD
ENDBRANCH   6   7
BRANCH   2   9
ATOM      9  O   UNL     1       7.576   0.501  26.282  0.00  0.00    -0.384 OA
ATOM     10  H   UNL     1       7.775  -0.266  25.717  0.00  0.00    +0.210 HD
ENDBRANCH   2   9
BRANCH   1  11
ATOM     11  O   UNL     1       5.000   1.230  25.137  0.00  0.00    -0.331 OA
BRANCH  11  15
ATOM     12  C   UNL     1       8.276   2.962  22.990  0.00  0.00    +0.133 C 
ATOM     13  C   UNL     1       7.579   3.777  24.098  0.00  0.00    +0.176 C 
ATOM     14  O   UNL     1       6.758   2.846  24.910  0.00  0.00    -0.332 OA
ATOM     15  C   UNL     1       5.699   2.146  24.222  0.00  0.00    +0.273 C 
ATOM     16  C   UNL     1       6.185   1.476  22.919  0.00  0.00    +0.110 C 
ATOM     17  C   UNL     1       7.192   2.306  22.111  0.00  0.00    +0.143 C 
BRANCH  12  20
ATOM     18  C   UNL     1      11.266   1.080  24.495  0.00  0.00    +0.109 C 
ATOM     19  C   UNL     1      10.525   2.185  23.770  0.00  0.00    +0.210 C 
ATOM     20  N   UNL     1       9.180   1.935  23.554  0.00  0.00    -0.308 N 
ATOM     21  H   UNL     1       8.792   1.168  24.092  0.00  0.00    +0.149 HD
ATOM     22  O   UNL     1      11.086   3.217  23.411  0.00  0.00    -0.276 OA
ENDBRANCH  12  20
BRANCH  17  23
ATOM     23  O   UNL     1       6.495   3.320  21.388  0.00  0.00    -0.390 OA
ATOM     24  H   UNL     1       6.909   4.185  21.560  0.00  0.00    +0.210 HD
ENDBRANCH  17  23
BRANCH  15  25
ATOM     25  C   UNL     1       4.462   3.072  24.056  0.00  0.00    +0.365 C 
ATOM     26  O   UNL     1       3.955   3.742  24.946  0.00  0.00    -0.245 OA
BRANCH  25  27
ATOM     27  O   UNL     1       3.888   3.054  22.837  0.00  0.00    -0.477 OA
ATOM     28  H   UNL     1       2.959   3.308  23.026  0.00  0.00    +0.295 HD
ENDBRANCH  25  27
ENDBRANCH  15  25
BRANCH  13  29
ATOM     29  C   UNL     1       6.778   5.045  23.638  0.00  0.00    +0.176 C 
BRANCH  29  30
ATOM     30  O   UNL     1       6.107   5.566  24.807  0.00  0.00    -0.387 OA
ATOM     31  H   UNL     1       5.281   5.982  24.483  0.00  0.00    +0.210 HD
ENDBRANCH  29  30
BRANCH  29  32
ATOM     32  C   UNL     1       7.495   6.229  22.941  0.00  0.00    +0.171 C 
BRANCH  32  33
ATOM     33  O   UNL     1       7.723   5.941  21.560  0.00  0.00    -0.387 OA
ATOM     34  H   UNL     1       6.872   6.065  21.107  0.00  0.00    +0.210 HD
ENDBRANCH  32  33
BRANCH  32  35
ATOM     35  C   UNL     1       8.853   6.484  23.651  0.00  0.00    +0.189 C 
BRANCH  35  36
ATOM     36  O   UNL     1       9.965   6.019  22.889  0.00  0.00    -0.392 OA
ATOM     37  H   UNL     1       9.651   5.900  21.975  0.00  0.00    +0.210 HD
ENDBRANCH  35  36
ENDBRANCH  32  35
ENDBRANCH  29  32
ENDBRANCH  13  29
ENDBRANCH  11  15
ENDBRANCH   1  11
BRANCH   3  38
ATOM     38  O   UNL     1       6.231  -1.815  25.392  0.00  0.00    -0.340 OA
BRANCH  38  39
ATOM     39  C   UNL     1       7.078  -2.994  25.384  0.00  0.00    +0.183 C 
ATOM     40  C   UNL     1       6.890  -3.841  24.091  0.00  0.00    +0.179 C 
ATOM     41  C   UNL     1       7.724  -5.142  24.159  0.00  0.00    +0.201 C 
ATOM     42  C   UNL     1       9.171  -4.911  24.643  0.00  0.00    +0.279 C 
ATOM     43  O   UNL     1       9.275  -3.996  25.722  0.00  0.00    -0.341 OA
ATOM     44  C   UNL     1       8.605  -2.738  25.519  0.00  0.00    +0.178 C 
BRANCH  42  45
ATOM     45  O   UNL     1       9.721  -6.128  25.132  0.00  0.00    -0.365 OA
ATOM     46  H   UNL     1       9.112  -6.397  25.842  0.00  0.00    +0.213 HD
ENDBRANCH  42  45
BRANCH  41  47
ATOM     47  O   UNL     1       7.744  -5.771  22.867  0.00  0.00    -0.384 OA
ATOM     48  H   UNL     1       7.541  -5.079  22.210  0.00  0.00    +0.210 HD
ENDBRANCH  41  47
BRANCH  40  49
ATOM     49  O   UNL     1       5.518  -4.198  23.855  0.00  0.00    -0.386 OA
ATOM     50  H   UNL     1       5.472  -4.763  23.065  0.00  0.00    +0.210 HD
ENDBRANCH  40  49
BRANCH  44  51
ATOM     51  C   UNL     1       9.252  -1.947  24.359  0.00  0.00    +0.190 C 
BRANCH  51  52
ATOM     52  O   UNL     1       8.421  -0.844  23.991  0.00  0.00    -0.392 OA
ATOM     53  H   UNL     1       7.497  -1.099  24.169  0.00  0.00    +0.210 HD
ENDBRANCH  51  52
ENDBRANCH  44  51
ENDBRANCH  38  39
ENDBRANCH   3  38
BRANCH   5  54
ATOM     54  C   UNL     1       2.318  -1.023  27.674  0.00  0.00    +0.190 C 
BRANCH  54  55
ATOM     55  O   UNL     1       1.162  -0.394  27.118  0.00  0.00    -0.392 OA
ATOM     56  H   UNL     1       1.024   0.424  27.631  0.00  0.00    +0.210 HD
ENDBRANCH  54  55
ENDBRANCH   5  54
TORSDOF 23
ENDMDL
MODEL 9
REMARK VINA RESULT:      -5.8      2.993      9.439
REMARK  Name = 
REMARK  24 active torsions:
REMARK  status: ('A' for Active; 'I' for Inactive)
REMARK    1  A    between atoms: C_1  and  C_2
REMARK    2  A    between atoms: N_4  and  C_5
REMARK    3  A    between atoms: C_7  and  O_9
REMARK    4  A    between atoms: C_11  and  O_12
REMARK    5  A    between atoms: C_11  and  C_56
REMARK    6  A    between atoms: O_12  and  C_13
REMARK    7  A    between atoms: C_15  and  O_17
REMARK    8  A    between atoms: C_18  and  C_20
REMARK    9  A    between atoms: C_20  and  O_21
REMARK   10  A    between atoms: C_23  and  O_25
REMARK   11  A    between atoms: O_25  and  C_26
REMARK   12  A    between atoms: C_28  and  C_30
REMARK   13  A    between atoms: C_30  and  O_31
REMARK   14  A    between atoms: C_33  and  O_35
REMARK   15  A    between atoms: C_36  and  O_38
REMARK   16  A    between atoms: C_39  and  O_41
REMARK   17  A    between atoms: C_42  and  O_44
REMARK   18  A    between atoms: C_46  and  C_48
REMARK   19  A    between atoms: C_48  and  O_50
REMARK   20  A    between atoms: C_48  and  C_51
REMARK   21  A    between atoms: C_51  and  O_53
REMARK   22  A    between atoms: C_51  and  C_54
REMARK   23  A    between atoms: C_54  and  O_55
REMARK   24  A    between atoms: C_56  and  O_57
REMARK                            x       y       z     vdW  Elec       q    Type
REMARK                         _______ _______ _______ _____ _____    ______ ____
ROOT
ATOM      1  C   UNL     1       5.566   0.563  26.527  0.00  0.00    +0.186 C 
ATOM      2  C   UNL     1       6.549  -0.631  26.608  0.00  0.00    +0.202 C 
ATOM      3  C   UNL     1       5.915  -2.031  26.341  0.00  0.00    +0.282 C 
ATOM      4  O   UNL     1       4.642  -2.207  26.974  0.00  0.00    -0.341 OA
ATOM      5  C   UNL     1       3.746  -1.076  26.975  0.00  0.00    +0.178 C 
ATOM      6  C   UNL     1       4.429   0.212  27.481  0.00  0.00    +0.177 C 
ENDROOT
BRANCH   6   7
ATOM      7  O   UNL     1       3.541   1.320  27.620  0.00  0.00    -0.386 OA
ATOM      8  H   UNL     1       4.087   2.126  27.520  0.00  0.00    +0.210 HD
ENDBRANCH   6   7
BRANCH   2   9
ATOM      9  O   UNL     1       7.718  -0.402  25.822  0.00  0.00    -0.384 OA
ATOM     10  H   UNL     1       7.802   0.566  25.770  0.00  0.00    +0.210 HD
ENDBRANCH   2   9
BRANCH   1  11
ATOM     11  O   UNL     1       5.125   0.758  25.178  0.00  0.00    -0.331 OA
BRANCH  11  15
ATOM     12  C   UNL     1       8.250   2.706  22.990  0.00  0.00    +0.133 C 
ATOM     13  C   UNL     1       7.561   3.448  24.152  0.00  0.00    +0.176 C 
ATOM     14  O   UNL     1       6.807   2.453  24.955  0.00  0.00    -0.332 OA
ATOM     15  C   UNL     1       5.754   1.736  24.276  0.00  0.00    +0.273 C 
ATOM     16  C   UNL     1       6.219   1.138  22.932  0.00  0.00    +0.110 C 
ATOM     17  C   UNL     1       7.162   2.039  22.123  0.00  0.00    +0.143 C 
BRANCH  12  20
ATOM     18  C   UNL     1      11.330   0.907  24.414  0.00  0.00    +0.109 C 
ATOM     19  C   UNL     1      10.527   2.023  23.778  0.00  0.00    +0.210 C 
ATOM     20  N   UNL     1       9.214   1.696  23.481  0.00  0.00    -0.308 N 
ATOM     21  H   UNL     1       8.871   0.849  23.920  0.00  0.00    +0.149 HD
ATOM     22  O   UNL     1      11.015   3.128  23.552  0.00  0.00    -0.276 OA
ENDBRANCH  12  20
BRANCH  17  23
ATOM     23  O   UNL     1       6.400   3.049  21.465  0.00  0.00    -0.390 OA
ATOM     24  H   UNL     1       5.451   2.894  21.621  0.00  0.00    +0.210 HD
ENDBRANCH  17  23
BRANCH  15  25
ATOM     25  C   UNL     1       4.475   2.616  24.190  0.00  0.00    +0.365 C 
ATOM     26  O   UNL     1       3.953   3.201  25.130  0.00  0.00    -0.245 OA
BRANCH  25  27
ATOM     27  O   UNL     1       3.885   2.657  22.979  0.00  0.00    -0.477 OA
ATOM     28  H   UNL     1       4.495   2.131  22.418  0.00  0.00    +0.295 HD
ENDBRANCH  25  27
ENDBRANCH  15  25
BRANCH  13  29
ATOM     29  C   UNL     1       6.694   4.698  23.770  0.00  0.00    +0.176 C 
BRANCH  29  30
ATOM     30  O   UNL     1       6.112   5.197  24.995  0.00  0.00    -0.387 OA
ATOM     31  H   UNL     1       6.830   5.671  25.464  0.00  0.00    +0.210 HD
ENDBRANCH  29  30
BRANCH  29  32
ATOM     32  C   UNL     1       7.320   5.903  23.024  0.00  0.00    +0.171 C 
BRANCH  32  33
ATOM     33  O   UNL     1       7.503   5.601  21.639  0.00  0.00    -0.387 OA
ATOM     34  H   UNL     1       6.701   5.908  21.181  0.00  0.00    +0.210 HD
ENDBRANCH  32  33
BRANCH  32  35
ATOM     35  C   UNL     1       8.694   6.236  23.669  0.00  0.00    +0.189 C 
BRANCH  35  36
ATOM     36  O   UNL     1       9.793   5.892  22.828  0.00  0.00    -0.392 OA
ATOM     37  H   UNL     1       9.776   4.923  22.725  0.00  0.00    +0.210 HD
ENDBRANCH  35  36
ENDBRANCH  32  35
ENDBRANCH  29  32
ENDBRANCH  13  29
ENDBRANCH  11  15
ENDBRANCH   1  11
BRANCH   3  38
ATOM     38  O   UNL     1       5.952  -2.422  24.946  0.00  0.00    -0.340 OA
BRANCH  38  39
ATOM     39  C   UNL     1       5.391  -3.733  24.672  0.00  0.00    +0.183 C 
ATOM     40  C   UNL     1       5.615  -4.169  23.194  0.00  0.00    +0.179 C 
ATOM     41  C   UNL     1       4.917  -5.519  22.907  0.00  0.00    +0.201 C 
ATOM     42  C   UNL     1       5.170  -6.579  23.999  0.00  0.00    +0.279 C 
ATOM     43  O   UNL     1       5.111  -6.067  25.320  0.00  0.00    -0.341 OA
ATOM     44  C   UNL     1       5.918  -4.899  25.555  0.00  0.00    +0.178 C 
BRANCH  42  45
ATOM     45  O   UNL     1       4.167  -7.585  23.943  0.00  0.00    -0.365 OA
ATOM     46  H   UNL     1       4.333  -8.042  23.100  0.00  0.00    +0.213 HD
ENDBRANCH  42  45
BRANCH  41  47
ATOM     47  O   UNL     1       5.350  -6.025  21.633  0.00  0.00    -0.384 OA
ATOM     48  H   UNL     1       5.763  -5.282  21.157  0.00  0.00    +0.210 HD
ENDBRANCH  41  47
BRANCH  40  49
ATOM     49  O   UNL     1       5.131  -3.201  22.250  0.00  0.00    -0.386 OA
ATOM     50  H   UNL     1       5.826  -3.030  21.592  0.00  0.00    +0.210 HD
ENDBRANCH  40  49
BRANCH  44  51
ATOM     51  C   UNL     1       7.421  -5.223  25.401  0.00  0.00    +0.190 C 
BRANCH  51  52
ATOM     52  O   UNL     1       7.914  -5.853  26.585  0.00  0.00    -0.392 OA
ATOM     53  H   UNL     1       7.198  -5.835  27.248  0.00  0.00    +0.210 HD
ENDBRANCH  51  52
ENDBRANCH  44  51
ENDBRANCH  38  39
ENDBRANCH   3  38
BRANCH   5  54
ATOM     54  C   UNL     1       2.562  -1.429  27.889  0.00  0.00    +0.190 C 
BRANCH  54  55
ATOM     55  O   UNL     1       2.835  -1.037  29.236  0.00  0.00    -0.392 OA
ATOM     56  H   UNL     1       2.743  -1.842  29.778  0.00  0.00    +0.210 HD
ENDBRANCH  54  55
ENDBRANCH   5  54
TORSDOF 23
ENDMDL
