MODEL 1
REMARK VINA RESULT:      -6.4      0.000      0.000
REMARK  Name = 
REMARK  4 active torsions:
REMARK  status: ('A' for Active; 'I' for Inactive)
REMARK    1  A    between atoms: O_1  and  C_2
REMARK    2  A    between atoms: C_2  and  C_4
REMARK    3  A    between atoms: C_7  and  C_8
REMARK    4  A    between atoms: C_8  and  C_9
REMARK                            x       y       z     vdW  Elec       q    Type
REMARK                         _______ _______ _______ _____ _____    ______ ____
ROOT
ATOM      1  C   UNL     1       8.853  -4.224  24.442  0.00  0.00    +0.211 A 
ATOM      2  O   UNL     1       9.859  -3.344  24.128  0.00  0.00    -0.453 OA
ATOM      3  C   UNL     1       9.393  -2.537  23.127  0.00  0.00    +0.110 A 
ATOM      4  C   UNL     1       8.079  -2.849  22.846  0.00  0.00    +0.046 A 
ATOM      5  C   UNL     1       7.735  -3.936  23.686  0.00  0.00    +0.057 A 
ENDROOT
BRANCH   1   6
ATOM      6  C   UNL     1       9.104  -5.245  25.429  0.00  0.00    +0.372 C 
ATOM      7  O   UNL     1       8.274  -5.750  26.171  0.00  0.00    -0.242 OA
BRANCH   6   8
ATOM      8  O   UNL     1      10.415  -5.602  25.445  0.00  0.00    -0.475 OA
ATOM      9  H   UNL     1      10.724  -5.675  26.371  0.00  0.00    +0.296 HD
ENDBRANCH   6   8
ENDBRANCH   1   6
BRANCH   3  10
ATOM     10  C   UNL     1      10.341  -1.522  22.576  0.00  0.00    +0.111 C 
BRANCH  10  11
ATOM     11  C   UNL     1       9.791  -0.106  22.575  0.00  0.00    -0.022 A 
ATOM     12  C   UNL     1       9.955   0.786  23.648  0.00  0.00    +0.045 A 
ATOM     13 CL   UNL     1      10.799   0.354  25.094  0.00  0.00    -0.083 Cl
ATOM     14  C   UNL     1       9.445   2.091  23.578  0.00  0.00    +0.020 A 
ATOM     15  C   UNL     1       8.769   2.527  22.440  0.00  0.00    +0.001 A 
ATOM     16  C   UNL     1       8.607   1.662  21.363  0.00  0.00    +0.000 A 
ATOM     17  C   UNL     1       9.117   0.364  21.430  0.00  0.00    +0.005 A 
ENDBRANCH  10  11
ENDBRANCH   3  10
TORSDOF 4
ENDMDL
MODEL 2
REMARK VINA RESULT:      -6.0      2.507      3.039
REMARK  Name = 
REMARK  4 active torsions:
REMARK  status: ('A' for Active; 'I' for Inactive)
REMARK    1  A    between atoms: O_1  and  C_2
REMARK    2  A    between atoms: C_2  and  C_4
REMARK    3  A    between atoms: C_7  and  C_8
REMARK    4  A    between atoms: C_8  and  C_9
REMARK                            x       y       z     vdW  Elec       q    Type
REMARK                         _______ _______ _______ _____ _____    ______ ____
ROOT
ATOM      1  C   UNL     1       6.460  -4.191  21.933  0.00  0.00    +0.211 A 
ATOM      2  O   UNL     1       7.758  -4.019  22.347  0.00  0.00    -0.453 OA
ATOM      3  C   UNL     1       7.856  -2.756  22.861  0.00  0.00    +0.110 A 
ATOM      4  C   UNL     1       6.620  -2.144  22.841  0.00  0.00    +0.046 A 
ATOM      5  C   UNL     1       5.726  -3.063  22.240  0.00  0.00    +0.057 A 
ENDROOT
BRANCH   1   6
ATOM      6  C   UNL     1       6.093  -5.423  21.280  0.00  0.00    +0.372 C 
ATOM      7  O   UNL     1       5.985  -5.595  20.075  0.00  0.00    -0.242 OA
BRANCH   6   8
ATOM      8  O   UNL     1       5.873  -6.412  22.186  0.00  0.00    -0.475 OA
ATOM      9  H   UNL     1       5.035  -6.241  22.661  0.00  0.00    +0.296 HD
ENDBRANCH   6   8
ENDBRANCH   1   6
BRANCH   3  10
ATOM     10  C   UNL     1       9.205  -2.317  23.331  0.00  0.00    +0.111 C 
BRANCH  10  11
ATOM     11  C   UNL     1       9.428  -0.817  23.237  0.00  0.00    -0.022 A 
ATOM     12  C   UNL     1       9.445   0.032  24.357  0.00  0.00    +0.045 A 
ATOM     13 CL   UNL     1       9.198  -0.549  25.967  0.00  0.00    -0.083 Cl
ATOM     14  C   UNL     1       9.682   1.406  24.209  0.00  0.00    +0.020 A 
ATOM     15  C   UNL     1       9.909   1.954  22.948  0.00  0.00    +0.001 A 
ATOM     16  C   UNL     1       9.909   1.128  21.829  0.00  0.00    +0.000 A 
ATOM     17  C   UNL     1       9.678  -0.241  21.975  0.00  0.00    +0.005 A 
ENDBRANCH  10  11
ENDBRANCH   3  10
TORSDOF 4
ENDMDL
MODEL 3
REMARK VINA RESULT:      -5.8      2.008      2.498
REMARK  Name = 
REMARK  4 active torsions:
REMARK  status: ('A' for Active; 'I' for Inactive)
REMARK    1  A    between atoms: O_1  and  C_2
REMARK    2  A    between atoms: C_2  and  C_4
REMARK    3  A    between atoms: C_7  and  C_8
REMARK    4  A    between atoms: C_8  and  C_9
REMARK                            x       y       z     vdW  Elec       q    Type
REMARK                         _______ _______ _______ _____ _____    ______ ____
ROOT
ATOM      1  C   UNL     1       7.614  -3.451  22.682  0.00  0.00    +0.211 A 
ATOM      2  O   UNL     1       8.235  -2.459  21.964  0.00  0.00    -0.453 OA
ATOM      3  C   UNL     1       9.291  -2.018  22.713  0.00  0.00    +0.110 A 
ATOM      4  C   UNL     1       9.390  -2.763  23.869  0.00  0.00    +0.046 A 
ATOM      5  C   UNL     1       8.310  -3.679  23.852  0.00  0.00    +0.057 A 
ENDROOT
BRANCH   1   6
ATOM      6  C   UNL     1       6.414  -4.049  22.151  0.00  0.00    +0.372 C 
ATOM      7  O   UNL     1       5.447  -3.450  21.703  0.00  0.00    -0.242 OA
BRANCH   6   8
ATOM      8  O   UNL     1       6.477  -5.406  22.204  0.00  0.00    -0.475 OA
ATOM      9  H   UNL     1       5.645  -5.759  22.581  0.00  0.00    +0.296 HD
ENDBRANCH   6   8
ENDBRANCH   1   6
BRANCH   3  10
ATOM     10  C   UNL     1      10.095  -0.889  22.154  0.00  0.00    +0.111 C 
BRANCH  10  11
ATOM     11  C   UNL     1       9.563   0.485  22.525  0.00  0.00    -0.022 A 
ATOM     12  C   UNL     1       9.891   1.142  23.723  0.00  0.00    +0.045 A 
ATOM     13 CL   UNL     1      10.934   0.440  24.911  0.00  0.00    -0.083 Cl
ATOM     14  C   UNL     1       9.388   2.421  23.999  0.00  0.00    +0.020 A 
ATOM     15  C   UNL     1       8.555   3.066  23.086  0.00  0.00    +0.001 A 
ATOM     16  C   UNL     1       8.229   2.438  21.889  0.00  0.00    +0.000 A 
ATOM     17  C   UNL     1       8.733   1.165  21.612  0.00  0.00    +0.005 A 
ENDBRANCH  10  11
ENDBRANCH   3  10
TORSDOF 4
ENDMDL
MODEL 4
REMARK VINA RESULT:      -5.8      3.103      5.894
REMARK  Name = 
REMARK  4 active torsions:
REMARK  status: ('A' for Active; 'I' for Inactive)
REMARK    1  A    between atoms: O_1  and  C_2
REMARK    2  A    between atoms: C_2  and  C_4
REMARK    3  A    between atoms: C_7  and  C_8
REMARK    4  A    between atoms: C_8  and  C_9
REMARK                            x       y       z     vdW  Elec       q    Type
REMARK                         _______ _______ _______ _____ _____    ______ ____
ROOT
ATOM      1  C   UNL     1      10.035   1.225  23.643  0.00  0.00    +0.211 A 
ATOM      2  O   UNL     1      10.224  -0.026  23.109  0.00  0.00    -0.453 OA
ATOM      3  C   UNL     1       9.811  -0.933  24.046  0.00  0.00    +0.110 A 
ATOM      4  C   UNL     1       9.297  -0.273  25.143  0.00  0.00    +0.046 A 
ATOM      5  C   UNL     1       9.447   1.111  24.887  0.00  0.00    +0.057 A 
ENDROOT
BRANCH   1   6
ATOM      6  C   UNL     1      10.458   2.378  22.887  0.00  0.00    +0.372 C 
ATOM      7  O   UNL     1      11.032   3.361  23.332  0.00  0.00    -0.242 OA
BRANCH   6   8
ATOM      8  O   UNL     1      10.138   2.247  21.572  0.00  0.00    -0.475 OA
ATOM      9  H   UNL     1       9.632   1.420  21.439  0.00  0.00    +0.296 HD
ENDBRANCH   6   8
ENDBRANCH   1   6
BRANCH   3  10
ATOM     10  C   UNL     1       9.972  -2.379  23.707  0.00  0.00    +0.111 C 
BRANCH  10  11
ATOM     11  C   UNL     1       8.658  -3.104  23.470  0.00  0.00    -0.022 A 
ATOM     12  C   UNL     1       8.318  -4.313  24.099  0.00  0.00    +0.045 A 
ATOM     13 CL   UNL     1       9.378  -5.112  25.208  0.00  0.00    -0.083 Cl
ATOM     14  C   UNL     1       7.079  -4.922  23.858  0.00  0.00    +0.020 A 
ATOM     15  C   UNL     1       6.158  -4.334  22.992  0.00  0.00    +0.001 A 
ATOM     16  C   UNL     1       6.470  -3.131  22.370  0.00  0.00    +0.000 A 
ATOM     17  C   UNL     1       7.703  -2.521  22.612  0.00  0.00    +0.005 A 
ENDBRANCH  10  11
ENDBRANCH   3  10
TORSDOF 4
ENDMDL
MODEL 5
REMARK VINA RESULT:      -5.8      1.234      1.401
REMARK  Name = 
REMARK  4 active torsions:
REMARK  status: ('A' for Active; 'I' for Inactive)
REMARK    1  A    between atoms: O_1  and  C_2
REMARK    2  A    between atoms: C_2  and  C_4
REMARK    3  A    between atoms: C_7  and  C_8
REMARK    4  A    between atoms: C_8  and  C_9
REMARK                            x       y       z     vdW  Elec       q    Type
REMARK                         _______ _______ _______ _____ _____    ______ ____
ROOT
ATOM      1  C   UNL     1       7.754  -4.579  25.113  0.00  0.00    +0.211 A 
ATOM      2  O   UNL     1       8.879  -3.793  25.084  0.00  0.00    -0.453 OA
ATOM      3  C   UNL     1       8.925  -3.196  23.855  0.00  0.00    +0.110 A 
ATOM      4  C   UNL     1       7.806  -3.539  23.125  0.00  0.00    +0.046 A 
ATOM      5  C   UNL     1       7.058  -4.432  23.930  0.00  0.00    +0.057 A 
ENDROOT
BRANCH   1   6
ATOM      6  C   UNL     1       7.497  -5.387  26.280  0.00  0.00    +0.372 C 
ATOM      7  O   UNL     1       6.514  -6.089  26.468  0.00  0.00    -0.242 OA
BRANCH   6   8
ATOM      8  O   UNL     1       8.507  -5.280  27.183  0.00  0.00    -0.475 OA
ATOM      9  H   UNL     1       9.309  -5.717  26.831  0.00  0.00    +0.296 HD
ENDBRANCH   6   8
ENDBRANCH   1   6
BRANCH   3  10
ATOM     10  C   UNL     1      10.104  -2.324  23.567  0.00  0.00    +0.111 C 
BRANCH  10  11
ATOM     11  C   UNL     1       9.740  -0.880  23.267  0.00  0.00    -0.022 A 
ATOM     12  C   UNL     1       9.392   0.051  24.260  0.00  0.00    +0.045 A 
ATOM     13 CL   UNL     1       9.332  -0.361  25.938  0.00  0.00    -0.083 Cl
ATOM     14  C   UNL     1       9.090   1.378  23.922  0.00  0.00    +0.020 A 
ATOM     15  C   UNL     1       9.133   1.798  22.594  0.00  0.00    +0.001 A 
ATOM     16  C   UNL     1       9.488   0.895  21.598  0.00  0.00    +0.000 A 
ATOM     17  C   UNL     1       9.793  -0.426  21.933  0.00  0.00    +0.005 A 
ENDBRANCH  10  11
ENDBRANCH   3  10
TORSDOF 4
ENDMDL
MODEL 6
REMARK VINA RESULT:      -5.8      3.031      6.218
REMARK  Name = 
REMARK  4 active torsions:
REMARK  status: ('A' for Active; 'I' for Inactive)
REMARK    1  A    between atoms: O_1  and  C_2
REMARK    2  A    between atoms: C_2  and  C_4
REMARK    3  A    between atoms: C_7  and  C_8
REMARK    4  A    between atoms: C_8  and  C_9
REMARK                            x       y       z     vdW  Elec       q    Type
REMARK                         _______ _______ _______ _____ _____    ______ ____
ROOT
ATOM      1  C   UNL     1       9.984   1.097  23.623  0.00  0.00    +0.211 A 
ATOM      2  O   UNL     1      10.244  -0.148  23.105  0.00  0.00    -0.453 OA
ATOM      3  C   UNL     1       9.817  -1.067  24.024  0.00  0.00    +0.110 A 
ATOM      4  C   UNL     1       9.227  -0.422  25.092  0.00  0.00    +0.046 A 
ATOM      5  C   UNL     1       9.341   0.966  24.837  0.00  0.00    +0.057 A 
ENDROOT
BRANCH   1   6
ATOM      6  C   UNL     1      10.404   2.262  22.883  0.00  0.00    +0.372 C 
ATOM      7  O   UNL     1      11.003   3.226  23.336  0.00  0.00    -0.242 OA
BRANCH   6   8
ATOM      8  O   UNL     1      10.048   2.167  21.575  0.00  0.00    -0.475 OA
ATOM      9  H   UNL     1      10.316   1.293  21.225  0.00  0.00    +0.296 HD
ENDBRANCH   6   8
ENDBRANCH   1   6
BRANCH   3  10
ATOM     10  C   UNL     1      10.046  -2.507  23.701  0.00  0.00    +0.111 C 
BRANCH  10  11
ATOM     11  C   UNL     1       8.978  -3.436  24.252  0.00  0.00    -0.022 A 
ATOM     12  C   UNL     1       7.723  -3.615  23.647  0.00  0.00    +0.045 A 
ATOM     13 CL   UNL     1       7.259  -2.778  22.206  0.00  0.00    -0.083 Cl
ATOM     14  C   UNL     1       6.787  -4.506  24.190  0.00  0.00    +0.020 A 
ATOM     15  C   UNL     1       7.087  -5.236  25.339  0.00  0.00    +0.001 A 
ATOM     16  C   UNL     1       8.329  -5.082  25.945  0.00  0.00    +0.000 A 
ATOM     17  C   UNL     1       9.263  -4.197  25.404  0.00  0.00    +0.005 A 
ENDBRANCH  10  11
ENDBRANCH   3  10
TORSDOF 4
ENDMDL
MODEL 7
REMARK VINA RESULT:      -5.7      3.223      6.170
REMARK  Name = 
REMARK  4 active torsions:
REMARK  status: ('A' for Active; 'I' for Inactive)
REMARK    1  A    between atoms: O_1  and  C_2
REMARK    2  A    between atoms: C_2  and  C_4
REMARK    3  A    between atoms: C_7  and  C_8
REMARK    4  A    between atoms: C_8  and  C_9
REMARK                            x       y       z     vdW  Elec       q    Type
REMARK                         _______ _______ _______ _____ _____    ______ ____
ROOT
ATOM      1  C   UNL     1       9.096   0.368  22.469  0.00  0.00    +0.211 A 
ATOM      2  O   UNL     1       7.984  -0.283  22.943  0.00  0.00    -0.453 OA
ATOM      3  C   UNL     1       8.395  -1.502  23.408  0.00  0.00    +0.110 A 
ATOM      4  C   UNL     1       9.767  -1.607  23.296  0.00  0.00    +0.046 A 
ATOM      5  C   UNL     1      10.214  -0.410  22.688  0.00  0.00    +0.057 A 
ENDROOT
BRANCH   1   6
ATOM      6  C   UNL     1       8.936   1.661  21.849  0.00  0.00    +0.372 C 
ATOM      7  O   UNL     1       7.875   2.217  21.604  0.00  0.00    -0.242 OA
BRANCH   6   8
ATOM      8  O   UNL     1      10.141   2.218  21.557  0.00  0.00    -0.475 OA
ATOM      9  H   UNL     1      10.007   3.107  21.171  0.00  0.00    +0.296 HD
ENDBRANCH   6   8
ENDBRANCH   1   6
BRANCH   3  10
ATOM     10  C   UNL     1       7.340  -2.421  23.930  0.00  0.00    +0.111 C 
BRANCH  10  11
ATOM     11  C   UNL     1       7.123  -3.656  23.072  0.00  0.00    -0.022 A 
ATOM     12  C   UNL     1       7.726  -4.896  23.339  0.00  0.00    +0.045 A 
ATOM     13 CL   UNL     1       8.795  -5.141  24.676  0.00  0.00    -0.083 Cl
ATOM     14  C   UNL     1       7.467  -6.008  22.524  0.00  0.00    +0.020 A 
ATOM     15  C   UNL     1       6.602  -5.902  21.436  0.00  0.00    +0.001 A 
ATOM     16  C   UNL     1       5.986  -4.686  21.164  0.00  0.00    +0.000 A 
ATOM     17  C   UNL     1       6.240  -3.579  21.977  0.00  0.00    +0.005 A 
ENDBRANCH  10  11
ENDBRANCH   3  10
TORSDOF 4
ENDMDL
MODEL 8
REMARK VINA RESULT:      -5.7      3.109      4.783
REMARK  Name = 
REMARK  4 active torsions:
REMARK  status: ('A' for Active; 'I' for Inactive)
REMARK    1  A    between atoms: O_1  and  C_2
REMARK    2  A    between atoms: C_2  and  C_4
REMARK    3  A    between atoms: C_7  and  C_8
REMARK    4  A    between atoms: C_8  and  C_9
REMARK                            x       y       z     vdW  Elec       q    Type
REMARK                         _______ _______ _______ _____ _____    ______ ____
ROOT
ATOM      1  C   UNL     1       9.914  -0.432  23.529  0.00  0.00    +0.211 A 
ATOM      2  O   UNL     1       9.672   0.736  22.850  0.00  0.00    -0.453 OA
ATOM      3  C   UNL     1       9.359   1.688  23.781  0.00  0.00    +0.110 A 
ATOM      4  C   UNL     1       9.465   1.157  25.050  0.00  0.00    +0.046 A 
ATOM      5  C   UNL     1       9.815  -0.206  24.887  0.00  0.00    +0.057 A 
ENDROOT
BRANCH   1   6
ATOM      6  C   UNL     1      10.200  -1.630  22.777  0.00  0.00    +0.372 C 
ATOM      7  O   UNL     1      10.507  -2.717  23.243  0.00  0.00    -0.242 OA
BRANCH   6   8
ATOM      8  O   UNL     1      10.086  -1.409  21.441  0.00  0.00    -0.475 OA
ATOM      9  H   UNL     1      10.977  -1.324  21.045  0.00  0.00    +0.296 HD
ENDBRANCH   6   8
ENDBRANCH   1   6
BRANCH   3  10
ATOM     10  C   UNL     1       9.000   3.045  23.270  0.00  0.00    +0.111 C 
BRANCH  10  11
ATOM     11  C   UNL     1      10.057   4.102  23.541  0.00  0.00    -0.022 A 
ATOM     12  C   UNL     1       9.784   5.317  24.191  0.00  0.00    +0.045 A 
ATOM     13 CL   UNL     1       8.200   5.741  24.741  0.00  0.00    -0.083 Cl
ATOM     14  C   UNL     1      10.808   6.244  24.436  0.00  0.00    +0.020 A 
ATOM     15  C   UNL     1      12.117   5.973  24.043  0.00  0.00    +0.001 A 
ATOM     16  C   UNL     1      12.410   4.770  23.410  0.00  0.00    +0.000 A 
ATOM     17  C   UNL     1      11.392   3.845  23.169  0.00  0.00    +0.005 A 
ENDBRANCH  10  11
ENDBRANCH   3  10
TORSDOF 4
ENDMDL
MODEL 9
REMARK VINA RESULT:      -5.4      1.911      2.607
REMARK  Name = 
REMARK  4 active torsions:
REMARK  status: ('A' for Active; 'I' for Inactive)
REMARK    1  A    between atoms: O_1  and  C_2
REMARK    2  A    between atoms: C_2  and  C_4
REMARK    3  A    between atoms: C_7  and  C_8
REMARK    4  A    between atoms: C_8  and  C_9
REMARK                            x       y       z     vdW  Elec       q    Type
REMARK                         _______ _______ _______ _____ _____    ______ ____
ROOT
ATOM      1  C   UNL     1       8.803  -2.969  24.892  0.00  0.00    +0.211 A 
ATOM      2  O   UNL     1       9.661  -2.079  24.295  0.00  0.00    -0.453 OA
ATOM      3  C   UNL     1       9.571  -0.903  24.987  0.00  0.00    +0.110 A 
ATOM      4  C   UNL     1       8.716  -1.054  26.059  0.00  0.00    +0.046 A 
ATOM      5  C   UNL     1       8.219  -2.377  25.994  0.00  0.00    +0.057 A 
ENDROOT
BRANCH   1   6
ATOM      6  C   UNL     1       8.644  -4.281  24.313  0.00  0.00    +0.372 C 
ATOM      7  O   UNL     1       9.328  -5.264  24.557  0.00  0.00    -0.242 OA
BRANCH   6   8
ATOM      8  O   UNL     1       7.608  -4.307  23.434  0.00  0.00    -0.475 OA
ATOM      9  H   UNL     1       7.736  -5.040  22.798  0.00  0.00    +0.296 HD
ENDBRANCH   6   8
ENDBRANCH   1   6
BRANCH   3  10
ATOM     10  C   UNL     1      10.385   0.245  24.483  0.00  0.00    +0.111 C 
BRANCH  10  11
ATOM     11  C   UNL     1       9.564   1.324  23.799  0.00  0.00    -0.022 A 
ATOM     12  C   UNL     1       9.165   1.254  22.453  0.00  0.00    +0.045 A 
ATOM     13 CL   UNL     1       9.583  -0.075  21.429  0.00  0.00    -0.083 Cl
ATOM     14  C   UNL     1       8.385   2.271  21.884  0.00  0.00    +0.020 A 
ATOM     15  C   UNL     1       7.989   3.369  22.645  0.00  0.00    +0.001 A 
ATOM     16  C   UNL     1       8.363   3.451  23.982  0.00  0.00    +0.000 A 
ATOM     17  C   UNL     1       9.135   2.437  24.551  0.00  0.00    +0.005 A 
ENDBRANCH  10  11
ENDBRANCH   3  10
TORSDOF 4
ENDMDL
