MODEL 1
REMARK VINA RESULT:      -5.8      0.000      0.000
REMARK  Name = 
REMARK  8 active torsions:
REMARK  status: ('A' for Active; 'I' for Inactive)
REMARK    1  A    between atoms: C_1  and  C_2
REMARK    2  A    between atoms: C_2  and  N_3
REMARK    3  A    between atoms: C_2  and  C_4
REMARK    4  A    between atoms: C_2  and  C_13
REMARK    5  A    between atoms: C_4  and  C_5
REMARK    6  A    between atoms: C_8  and  O_9
REMARK    7  A    between atoms: C_10  and  O_11
REMARK    8  A    between atoms: C_13  and  O_14
REMARK                            x       y       z     vdW  Elec       q    Type
REMARK                         _______ _______ _______ _____ _____    ______ ____
ROOT
ATOM      1  C   UNL     1       9.923  -2.880  24.036  0.00  0.00    +0.068 C 
ENDROOT
BRANCH   1   2
ATOM      2  C   UNL     1       9.864  -1.512  23.383  0.00  0.00    -0.041 A 
ATOM      3  C   UNL     1      10.289  -0.359  24.050  0.00  0.00    +0.053 A 
ATOM      4  C   UNL     1      10.279   0.869  23.395  0.00  0.00    +0.158 A 
ATOM      5  C   UNL     1       9.877   0.973  22.070  0.00  0.00    +0.158 A 
ATOM      6  C   UNL     1       9.467  -0.158  21.379  0.00  0.00    +0.049 A 
ATOM      7  C   UNL     1       9.456  -1.396  22.036  0.00  0.00    +0.007 A 
BRANCH   4   8
ATOM      8  O   UNL     1      10.693   1.979  24.076  0.00  0.00    -0.503 OA
ATOM      9  H   UNL     1      11.627   1.794  24.297  0.00  0.00    +0.292 HD
ENDBRANCH   4   8
BRANCH   5  10
ATOM     10  O   UNL     1       9.922   2.208  21.488  0.00  0.00    -0.503 OA
ATOM     11  H   UNL     1      10.436   2.136  20.665  0.00  0.00    +0.292 HD
ENDBRANCH   5  10
ENDBRANCH   1   2
BRANCH   1  13
ATOM     12  C   UNL     1       7.411  -3.419  24.110  0.00  0.00    +0.040 C 
ATOM     13  C   UNL     1       8.719  -3.339  24.906  0.00  0.00    +0.116 C 
BRANCH  13  14
ATOM     14  N   UNL     1       8.497  -2.511  26.139  0.00  0.00    -0.316 NA
ATOM     15  H   UNL     1       7.492  -2.343  26.241  0.00  0.00    +0.119 HD
ATOM     16  H   UNL     1       8.897  -1.582  25.991  0.00  0.00    +0.119 HD
ENDBRANCH  13  14
BRANCH  13  17
ATOM     17  C   UNL     1       9.061  -4.778  25.393  0.00  0.00    +0.325 C 
ATOM     18  O   UNL     1       8.333  -5.494  26.060  0.00  0.00    -0.249 OA
BRANCH  17  19
ATOM     19  O   UNL     1      10.295  -5.160  24.968  0.00  0.00    -0.479 OA
ATOM     20  H   UNL     1      10.126  -5.756  24.193  0.00  0.00    +0.295 HD
ENDBRANCH  17  19
ENDBRANCH  13  17
ENDBRANCH   1  13
TORSDOF 7
ENDMDL
MODEL 2
REMARK VINA RESULT:      -5.5      1.835      5.872
REMARK  Name = 
REMARK  8 active torsions:
REMARK  status: ('A' for Active; 'I' for Inactive)
REMARK    1  A    between atoms: C_1  and  C_2
REMARK    2  A    between atoms: C_2  and  N_3
REMARK    3  A    between atoms: C_2  and  C_4
REMARK    4  A    between atoms: C_2  and  C_13
REMARK    5  A    between atoms: C_4  and  C_5
REMARK    6  A    between atoms: C_8  and  O_9
REMARK    7  A    between atoms: C_10  and  O_11
REMARK    8  A    between atoms: C_13  and  O_14
REMARK                            x       y       z     vdW  Elec       q    Type
REMARK                         _______ _______ _______ _____ _____    ______ ____
ROOT
ATOM      1  C   UNL     1       9.438  -1.222  24.136  0.00  0.00    +0.068 C 
ENDROOT
BRANCH   1   2
ATOM      2  C   UNL     1       9.031  -2.475  24.888  0.00  0.00    -0.041 A 
ATOM      3  C   UNL     1       9.650  -3.707  24.655  0.00  0.00    +0.053 A 
ATOM      4  C   UNL     1       9.294  -4.821  25.409  0.00  0.00    +0.158 A 
ATOM      5  C   UNL     1       8.346  -4.730  26.419  0.00  0.00    +0.158 A 
ATOM      6  C   UNL     1       7.728  -3.517  26.684  0.00  0.00    +0.049 A 
ATOM      7  C   UNL     1       8.068  -2.394  25.917  0.00  0.00    +0.007 A 
BRANCH   4   8
ATOM      8  O   UNL     1       9.910  -6.013  25.152  0.00  0.00    -0.503 OA
ATOM      9  H   UNL     1       9.923  -6.471  26.016  0.00  0.00    +0.292 HD
ENDBRANCH   4   8
BRANCH   5  10
ATOM     10  O   UNL     1       8.070  -5.861  27.134  0.00  0.00    -0.503 OA
ATOM     11  H   UNL     1       7.836  -5.596  28.041  0.00  0.00    +0.292 HD
ENDBRANCH   5  10
ENDBRANCH   1   2
BRANCH   1  13
ATOM     12  C   UNL     1       7.753  -1.823  22.291  0.00  0.00    +0.040 C 
ATOM     13  C   UNL     1       9.065  -1.106  22.632  0.00  0.00    +0.116 C 
BRANCH  13  14
ATOM     14  N   UNL     1      10.139  -1.570  21.692  0.00  0.00    -0.316 NA
ATOM     15  H   UNL     1      10.885  -2.010  22.240  0.00  0.00    +0.119 HD
ATOM     16  H   UNL     1      10.585  -0.753  21.268  0.00  0.00    +0.119 HD
ENDBRANCH  13  14
BRANCH  13  17
ATOM     17  C   UNL     1       8.856   0.412  22.354  0.00  0.00    +0.325 C 
ATOM     18  O   UNL     1       8.472   1.237  23.166  0.00  0.00    -0.249 OA
BRANCH  17  19
ATOM     19  O   UNL     1       9.172   0.724  21.069  0.00  0.00    -0.479 OA
ATOM     20  H   UNL     1       9.987   0.192  20.869  0.00  0.00    +0.295 HD
ENDBRANCH  17  19
ENDBRANCH  13  17
ENDBRANCH   1  13
TORSDOF 7
ENDMDL
MODEL 3
REMARK VINA RESULT:      -5.4      1.110      2.091
REMARK  Name = 
REMARK  8 active torsions:
REMARK  status: ('A' for Active; 'I' for Inactive)
REMARK    1  A    between atoms: C_1  and  C_2
REMARK    2  A    between atoms: C_2  and  N_3
REMARK    3  A    between atoms: C_2  and  C_4
REMARK    4  A    between atoms: C_2  and  C_13
REMARK    5  A    between atoms: C_4  and  C_5
REMARK    6  A    between atoms: C_8  and  O_9
REMARK    7  A    between atoms: C_10  and  O_11
REMARK    8  A    between atoms: C_13  and  O_14
REMARK                            x       y       z     vdW  Elec       q    Type
REMARK                         _______ _______ _______ _____ _____    ______ ____
ROOT
ATOM      1  C   UNL     1      10.044  -2.244  23.557  0.00  0.00    +0.068 C 
ENDROOT
BRANCH   1   2
ATOM      2  C   UNL     1      10.132  -0.738  23.400  0.00  0.00    -0.041 A 
ATOM      3  C   UNL     1       9.566  -0.077  22.305  0.00  0.00    +0.053 A 
ATOM      4  C   UNL     1       9.612   1.312  22.228  0.00  0.00    +0.158 A 
ATOM      5  C   UNL     1      10.189   2.068  23.240  0.00  0.00    +0.158 A 
ATOM      6  C   UNL     1      10.742   1.439  24.346  0.00  0.00    +0.049 A 
ATOM      7  C   UNL     1      10.717   0.040  24.423  0.00  0.00    +0.007 A 
BRANCH   4   8
ATOM      8  O   UNL     1       9.059   1.928  21.142  0.00  0.00    -0.503 OA
ATOM      9  H   UNL     1       8.542   1.224  20.701  0.00  0.00    +0.292 HD
ENDBRANCH   4   8
BRANCH   5  10
ATOM     10  O   UNL     1      10.171   3.427  23.106  0.00  0.00    -0.503 OA
ATOM     11  H   UNL     1      10.805   3.671  22.409  0.00  0.00    +0.292 HD
ENDBRANCH   5  10
ENDBRANCH   1   2
BRANCH   1  13
ATOM     12  C   UNL     1       7.838  -3.223  22.671  0.00  0.00    +0.040 C 
ATOM     13  C   UNL     1       8.668  -2.873  23.912  0.00  0.00    +0.116 C 
BRANCH  13  14
ATOM     14  N   UNL     1       7.833  -2.045  24.846  0.00  0.00    -0.316 NA
ATOM     15  H   UNL     1       8.299  -2.014  25.759  0.00  0.00    +0.119 HD
ATOM     16  H   UNL     1       6.953  -2.533  25.026  0.00  0.00    +0.119 HD
ENDBRANCH  13  14
BRANCH  13  17
ATOM     17  C   UNL     1       8.981  -4.204  24.658  0.00  0.00    +0.325 C 
ATOM     18  O   UNL     1      10.088  -4.696  24.800  0.00  0.00    -0.249 OA
BRANCH  17  19
ATOM     19  O   UNL     1       7.848  -4.765  25.158  0.00  0.00    -0.479 OA
ATOM     20  H   UNL     1       8.010  -4.846  26.134  0.00  0.00    +0.295 HD
ENDBRANCH  17  19
ENDBRANCH  13  17
ENDBRANCH   1  13
TORSDOF 7
ENDMDL
MODEL 4
REMARK VINA RESULT:      -5.3      1.744      5.853
REMARK  Name = 
REMARK  8 active torsions:
REMARK  status: ('A' for Active; 'I' for Inactive)
REMARK    1  A    between atoms: C_1  and  C_2
REMARK    2  A    between atoms: C_2  and  N_3
REMARK    3  A    between atoms: C_2  and  C_4
REMARK    4  A    between atoms: C_2  and  C_13
REMARK    5  A    between atoms: C_4  and  C_5
REMARK    6  A    between atoms: C_8  and  O_9
REMARK    7  A    between atoms: C_10  and  O_11
REMARK    8  A    between atoms: C_13  and  O_14
REMARK                            x       y       z     vdW  Elec       q    Type
REMARK                         _______ _______ _______ _____ _____    ______ ____
ROOT
ATOM      1  C   UNL     1       9.987  -0.633  23.981  0.00  0.00    +0.068 C 
ENDROOT
BRANCH   1   2
ATOM      2  C   UNL     1       9.463  -1.873  24.681  0.00  0.00    -0.041 A 
ATOM      3  C   UNL     1       9.822  -3.159  24.264  0.00  0.00    +0.053 A 
ATOM      4  C   UNL     1       9.372  -4.271  24.970  0.00  0.00    +0.158 A 
ATOM      5  C   UNL     1       8.588  -4.131  26.107  0.00  0.00    +0.158 A 
ATOM      6  C   UNL     1       8.232  -2.866  26.552  0.00  0.00    +0.049 A 
ATOM      7  C   UNL     1       8.665  -1.741  25.838  0.00  0.00    +0.007 A 
BRANCH   4   8
ATOM      8  O   UNL     1       9.732  -5.515  24.534  0.00  0.00    -0.503 OA
ATOM      9  H   UNL     1       8.930  -5.858  24.091  0.00  0.00    +0.292 HD
ENDBRANCH   4   8
BRANCH   5  10
ATOM     10  O   UNL     1       8.209  -5.269  26.762  0.00  0.00    -0.503 OA
ATOM     11  H   UNL     1       7.861  -5.895  26.103  0.00  0.00    +0.292 HD
ENDBRANCH   5  10
ENDBRANCH   1   2
BRANCH   1  13
ATOM     12  C   UNL     1       7.771  -0.228  22.742  0.00  0.00    +0.040 C 
ATOM     13  C   UNL     1       9.302  -0.181  22.661  0.00  0.00    +0.116 C 
BRANCH  13  14
ATOM     14  N   UNL     1       9.755  -0.932  21.442  0.00  0.00    -0.316 NA
ATOM     15  H   UNL     1      10.521  -1.557  21.711  0.00  0.00    +0.119 HD
ATOM     16  H   UNL     1      10.182  -0.273  20.787  0.00  0.00    +0.119 HD
ENDBRANCH  13  14
BRANCH  13  17
ATOM     17  C   UNL     1       9.715   1.305  22.446  0.00  0.00    +0.325 C 
ATOM     18  O   UNL     1      10.270   2.014  23.269  0.00  0.00    -0.249 OA
BRANCH  17  19
ATOM     19  O   UNL     1       9.387   1.730  21.198  0.00  0.00    -0.479 OA
ATOM     20  H   UNL     1       9.884   2.582  21.078  0.00  0.00    +0.295 HD
ENDBRANCH  17  19
ENDBRANCH  13  17
ENDBRANCH   1  13
TORSDOF 7
ENDMDL
MODEL 5
REMARK VINA RESULT:      -5.3      2.222      3.016
REMARK  Name = 
REMARK  8 active torsions:
REMARK  status: ('A' for Active; 'I' for Inactive)
REMARK    1  A    between atoms: C_1  and  C_2
REMARK    2  A    between atoms: C_2  and  N_3
REMARK    3  A    between atoms: C_2  and  C_4
REMARK    4  A    between atoms: C_2  and  C_13
REMARK    5  A    between atoms: C_4  and  C_5
REMARK    6  A    between atoms: C_8  and  O_9
REMARK    7  A    between atoms: C_10  and  O_11
REMARK    8  A    between atoms: C_13  and  O_14
REMARK                            x       y       z     vdW  Elec       q    Type
REMARK                         _______ _______ _______ _____ _____    ______ ____
ROOT
ATOM      1  C   UNL     1       8.704  -2.448  22.346  0.00  0.00    +0.068 C 
ENDROOT
BRANCH   1   2
ATOM      2  C   UNL     1       9.364  -1.135  22.723  0.00  0.00    -0.041 A 
ATOM      3  C   UNL     1       9.373  -0.040  21.853  0.00  0.00    +0.053 A 
ATOM      4  C   UNL     1       9.933   1.168  22.259  0.00  0.00    +0.158 A 
ATOM      5  C   UNL     1      10.464   1.321  23.532  0.00  0.00    +0.158 A 
ATOM      6  C   UNL     1      10.452   0.256  24.421  0.00  0.00    +0.049 A 
ATOM      7  C   UNL     1       9.907  -0.969  24.015  0.00  0.00    +0.007 A 
BRANCH   4   8
ATOM      8  O   UNL     1       9.935   2.218  21.384  0.00  0.00    -0.503 OA
ATOM      9  H   UNL     1      10.035   1.800  20.505  0.00  0.00    +0.292 HD
ENDBRANCH   4   8
BRANCH   5  10
ATOM     10  O   UNL     1      10.970   2.546  23.866  0.00  0.00    -0.503 OA
ATOM     11  H   UNL     1      10.255   3.201  23.786  0.00  0.00    +0.292 HD
ENDBRANCH   5  10
ENDBRANCH   1   2
BRANCH   1  13
ATOM     12  C   UNL     1       6.433  -1.625  23.226  0.00  0.00    +0.040 C 
ATOM     13  C   UNL     1       7.364  -2.829  23.034  0.00  0.00    +0.116 C 
BRANCH  13  14
ATOM     14  N   UNL     1       7.525  -3.541  24.346  0.00  0.00    -0.316 NA
ATOM     15  H   UNL     1       6.770  -4.228  24.439  0.00  0.00    +0.119 HD
ATOM     16  H   UNL     1       7.360  -2.878  25.107  0.00  0.00    +0.119 HD
ENDBRANCH  13  14
BRANCH  13  17
ATOM     17  C   UNL     1       6.651  -3.825  22.073  0.00  0.00    +0.325 C 
ATOM     18  O   UNL     1       7.065  -4.928  21.759  0.00  0.00    -0.249 OA
BRANCH  17  19
ATOM     19  O   UNL     1       5.476  -3.314  21.620  0.00  0.00    -0.479 OA
ATOM     20  H   UNL     1       5.566  -3.302  20.631  0.00  0.00    +0.295 HD
ENDBRANCH  17  19
ENDBRANCH  13  17
ENDBRANCH   1  13
TORSDOF 7
ENDMDL
MODEL 6
REMARK VINA RESULT:      -5.2      2.059      5.781
REMARK  Name = 
REMARK  8 active torsions:
REMARK  status: ('A' for Active; 'I' for Inactive)
REMARK    1  A    between atoms: C_1  and  C_2
REMARK    2  A    between atoms: C_2  and  N_3
REMARK    3  A    between atoms: C_2  and  C_4
REMARK    4  A    between atoms: C_2  and  C_13
REMARK    5  A    between atoms: C_4  and  C_5
REMARK    6  A    between atoms: C_8  and  O_9
REMARK    7  A    between atoms: C_10  and  O_11
REMARK    8  A    between atoms: C_13  and  O_14
REMARK                            x       y       z     vdW  Elec       q    Type
REMARK                         _______ _______ _______ _____ _____    ______ ____
ROOT
ATOM      1  C   UNL     1      10.034  -0.425  22.580  0.00  0.00    +0.068 C 
ENDROOT
BRANCH   1   2
ATOM      2  C   UNL     1       9.264  -1.684  22.931  0.00  0.00    -0.041 A 
ATOM      3  C   UNL     1       8.155  -2.100  22.187  0.00  0.00    +0.053 A 
ATOM      4  C   UNL     1       7.512  -3.294  22.501  0.00  0.00    +0.158 A 
ATOM      5  C   UNL     1       7.969  -4.105  23.530  0.00  0.00    +0.158 A 
ATOM      6  C   UNL     1       9.077  -3.726  24.274  0.00  0.00    +0.049 A 
ATOM      7  C   UNL     1       9.719  -2.516  23.977  0.00  0.00    +0.007 A 
BRANCH   4   8
ATOM      8  O   UNL     1       6.427  -3.669  21.761  0.00  0.00    -0.503 OA
ATOM      9  H   UNL     1       6.427  -3.053  21.001  0.00  0.00    +0.292 HD
ENDBRANCH   4   8
BRANCH   5  10
ATOM     10  O   UNL     1       7.302  -5.276  23.759  0.00  0.00    -0.503 OA
ATOM     11  H   UNL     1       7.663  -5.676  24.569  0.00  0.00    +0.292 HD
ENDBRANCH   5  10
ENDBRANCH   1   2
BRANCH   1  13
ATOM     12  C   UNL     1      10.952   0.769  24.663  0.00  0.00    +0.040 C 
ATOM     13  C   UNL     1       9.921   0.801  23.528  0.00  0.00    +0.116 C 
BRANCH  13  14
ATOM     14  N   UNL     1       8.553   1.008  24.111  0.00  0.00    -0.316 NA
ATOM     15  H   UNL     1       7.991   1.543  23.442  0.00  0.00    +0.119 HD
ATOM     16  H   UNL     1       8.628   1.620  24.927  0.00  0.00    +0.119 HD
ENDBRANCH  13  14
BRANCH  13  17
ATOM     17  C   UNL     1      10.225   2.053  22.654  0.00  0.00    +0.325 C 
ATOM     18  O   UNL     1      10.847   3.038  23.015  0.00  0.00    -0.249 OA
BRANCH  17  19
ATOM     19  O   UNL     1       9.711   1.915  21.403  0.00  0.00    -0.479 OA
ATOM     20  H   UNL     1       8.791   2.284  21.462  0.00  0.00    +0.295 HD
ENDBRANCH  17  19
ENDBRANCH  13  17
ENDBRANCH   1  13
TORSDOF 7
ENDMDL
MODEL 7
REMARK VINA RESULT:      -5.1      1.729      2.467
REMARK  Name = 
REMARK  8 active torsions:
REMARK  status: ('A' for Active; 'I' for Inactive)
REMARK    1  A    between atoms: C_1  and  C_2
REMARK    2  A    between atoms: C_2  and  N_3
REMARK    3  A    between atoms: C_2  and  C_4
REMARK    4  A    between atoms: C_2  and  C_13
REMARK    5  A    between atoms: C_4  and  C_5
REMARK    6  A    between atoms: C_8  and  O_9
REMARK    7  A    between atoms: C_10  and  O_11
REMARK    8  A    between atoms: C_13  and  O_14
REMARK                            x       y       z     vdW  Elec       q    Type
REMARK                         _______ _______ _______ _____ _____    ______ ____
ROOT
ATOM      1  C   UNL     1       8.177  -1.666  24.726  0.00  0.00    +0.068 C 
ENDROOT
BRANCH   1   2
ATOM      2  C   UNL     1       8.859  -0.572  23.926  0.00  0.00    -0.041 A 
ATOM      3  C   UNL     1       8.456  -0.252  22.626  0.00  0.00    +0.053 A 
ATOM      4  C   UNL     1       9.064   0.800  21.946  0.00  0.00    +0.158 A 
ATOM      5  C   UNL     1      10.054   1.565  22.547  0.00  0.00    +0.158 A 
ATOM      6  C   UNL     1      10.461   1.281  23.843  0.00  0.00    +0.049 A 
ATOM      7  C   UNL     1       9.867   0.212  24.528  0.00  0.00    +0.007 A 
BRANCH   4   8
ATOM      8  O   UNL     1       8.655   1.083  20.674  0.00  0.00    -0.503 OA
ATOM      9  H   UNL     1       8.306   1.995  20.729  0.00  0.00    +0.292 HD
ENDBRANCH   4   8
BRANCH   5  10
ATOM     10  O   UNL     1      10.583   2.598  21.827  0.00  0.00    -0.503 OA
ATOM     11  H   UNL     1       9.884   3.261  21.690  0.00  0.00    +0.292 HD
ENDBRANCH   5  10
ENDBRANCH   1   2
BRANCH   1  13
ATOM     12  C   UNL     1       8.785  -3.808  26.010  0.00  0.00    +0.040 C 
ATOM     13  C   UNL     1       8.747  -3.109  24.646  0.00  0.00    +0.116 C 
BRANCH  13  14
ATOM     14  N   UNL     1      10.103  -3.202  24.007  0.00  0.00    -0.316 NA
ATOM     15  H   UNL     1       9.988  -3.531  23.043  0.00  0.00    +0.119 HD
ATOM     16  H   UNL     1      10.637  -3.944  24.467  0.00  0.00    +0.119 HD
ENDBRANCH  13  14
BRANCH  13  17
ATOM     17  C   UNL     1       7.772  -3.910  23.735  0.00  0.00    +0.325 C 
ATOM     18  O   UNL     1       6.715  -3.496  23.288  0.00  0.00    -0.249 OA
BRANCH  17  19
ATOM     19  O   UNL     1       8.251  -5.155  23.477  0.00  0.00    -0.479 OA
ATOM     20  H   UNL     1       8.131  -5.279  22.499  0.00  0.00    +0.295 HD
ENDBRANCH  17  19
ENDBRANCH  13  17
ENDBRANCH   1  13
TORSDOF 7
ENDMDL
MODEL 8
REMARK VINA RESULT:      -5.1      1.797      2.107
REMARK  Name = 
REMARK  8 active torsions:
REMARK  status: ('A' for Active; 'I' for Inactive)
REMARK    1  A    between atoms: C_1  and  C_2
REMARK    2  A    between atoms: C_2  and  N_3
REMARK    3  A    between atoms: C_2  and  C_4
REMARK    4  A    between atoms: C_2  and  C_13
REMARK    5  A    between atoms: C_4  and  C_5
REMARK    6  A    between atoms: C_8  and  O_9
REMARK    7  A    between atoms: C_10  and  O_11
REMARK    8  A    between atoms: C_13  and  O_14
REMARK                            x       y       z     vdW  Elec       q    Type
REMARK                         _______ _______ _______ _____ _____    ______ ____
ROOT
ATOM      1  C   UNL     1       7.867  -2.900  23.030  0.00  0.00    +0.068 C 
ENDROOT
BRANCH   1   2
ATOM      2  C   UNL     1       8.092  -1.470  22.576  0.00  0.00    -0.041 A 
ATOM      3  C   UNL     1       7.244  -0.431  22.971  0.00  0.00    +0.053 A 
ATOM      4  C   UNL     1       7.519   0.878  22.585  0.00  0.00    +0.158 A 
ATOM      5  C   UNL     1       8.645   1.183  21.832  0.00  0.00    +0.158 A 
ATOM      6  C   UNL     1       9.512   0.174  21.441  0.00  0.00    +0.049 A 
ATOM      7  C   UNL     1       9.233  -1.150  21.809  0.00  0.00    +0.007 A 
BRANCH   4   8
ATOM      8  O   UNL     1       6.668   1.871  22.979  0.00  0.00    -0.503 OA
ATOM      9  H   UNL     1       6.159   1.476  23.715  0.00  0.00    +0.292 HD
ENDBRANCH   4   8
BRANCH   5  10
ATOM     10  O   UNL     1       8.862   2.495  21.516  0.00  0.00    -0.503 OA
ATOM     11  H   UNL     1       8.254   3.038  22.048  0.00  0.00    +0.292 HD
ENDBRANCH   5  10
ENDBRANCH   1   2
BRANCH   1  13
ATOM     12  C   UNL     1       8.264  -2.748  25.565  0.00  0.00    +0.040 C 
ATOM     13  C   UNL     1       8.673  -3.425  24.251  0.00  0.00    +0.116 C 
BRANCH  13  14
ATOM     14  N   UNL     1      10.163  -3.335  24.092  0.00  0.00    -0.316 NA
ATOM     15  H   UNL     1      10.388  -3.386  23.094  0.00  0.00    +0.119 HD
ATOM     16  H   UNL     1      10.591  -4.174  24.493  0.00  0.00    +0.119 HD
ENDBRANCH  13  14
BRANCH  13  17
ATOM     17  C   UNL     1       8.330  -4.939  24.377  0.00  0.00    +0.325 C 
ATOM     18  O   UNL     1       7.209  -5.418  24.350  0.00  0.00    -0.249 OA
BRANCH  17  19
ATOM     19  O   UNL     1       9.456  -5.688  24.513  0.00  0.00    -0.479 OA
ATOM     20  H   UNL     1      10.155  -5.194  24.009  0.00  0.00    +0.295 HD
ENDBRANCH  17  19
ENDBRANCH  13  17
ENDBRANCH   1  13
TORSDOF 7
ENDMDL
MODEL 9
REMARK VINA RESULT:      -5.1      2.139      5.957
REMARK  Name = 
REMARK  8 active torsions:
REMARK  status: ('A' for Active; 'I' for Inactive)
REMARK    1  A    between atoms: C_1  and  C_2
REMARK    2  A    between atoms: C_2  and  N_3
REMARK    3  A    between atoms: C_2  and  C_4
REMARK    4  A    between atoms: C_2  and  C_13
REMARK    5  A    between atoms: C_4  and  C_5
REMARK    6  A    between atoms: C_8  and  O_9
REMARK    7  A    between atoms: C_10  and  O_11
REMARK    8  A    between atoms: C_13  and  O_14
REMARK                            x       y       z     vdW  Elec       q    Type
REMARK                         _______ _______ _______ _____ _____    ______ ____
ROOT
ATOM      1  C   UNL     1       8.152  -2.659  22.890  0.00  0.00    +0.068 C 
ENDROOT
BRANCH   1   2
ATOM      2  C   UNL     1       8.086  -3.467  24.172  0.00  0.00    -0.041 A 
ATOM      3  C   UNL     1       6.873  -3.725  24.818  0.00  0.00    +0.053 A 
ATOM      4  C   UNL     1       6.846  -4.524  25.958  0.00  0.00    +0.158 A 
ATOM      5  C   UNL     1       8.005  -5.100  26.458  0.00  0.00    +0.158 A 
ATOM      6  C   UNL     1       9.220  -4.876  25.827  0.00  0.00    +0.049 A 
ATOM      7  C   UNL     1       9.260  -4.058  24.689  0.00  0.00    +0.007 A 
BRANCH   4   8
ATOM      8  O   UNL     1       5.646  -4.750  26.572  0.00  0.00    -0.503 OA
ATOM      9  H   UNL     1       5.149  -5.301  25.935  0.00  0.00    +0.292 HD
ENDBRANCH   4   8
BRANCH   5  10
ATOM     10  O   UNL     1       7.893  -5.895  27.563  0.00  0.00    -0.503 OA
ATOM     11  H   UNL     1       8.789  -6.082  27.894  0.00  0.00    +0.292 HD
ENDBRANCH   5  10
ENDBRANCH   1   2
BRANCH   1  13
ATOM     12  C   UNL     1       8.856  -0.637  24.312  0.00  0.00    +0.040 C 
ATOM     13  C   UNL     1       8.233  -1.110  22.993  0.00  0.00    +0.116 C 
BRANCH  13  14
ATOM     14  N   UNL     1       6.921  -0.409  22.787  0.00  0.00    -0.316 NA
ATOM     15  H   UNL     1       6.176  -0.990  23.182  0.00  0.00    +0.119 HD
ATOM     16  H   UNL     1       6.716  -0.376  21.786  0.00  0.00    +0.119 HD
ENDBRANCH  13  14
BRANCH  13  17
ATOM     17  C   UNL     1       9.169  -0.648  21.838  0.00  0.00    +0.325 C 
ATOM     18  O   UNL     1       9.117   0.429  21.269  0.00  0.00    -0.249 OA
BRANCH  17  19
ATOM     19  O   UNL     1      10.086  -1.606  21.536  0.00  0.00    -0.479 OA
ATOM     20  H   UNL     1       9.565  -2.332  21.104  0.00  0.00    +0.295 HD
ENDBRANCH  17  19
ENDBRANCH  13  17
ENDBRANCH   1  13
TORSDOF 7
ENDMDL
