MODEL 1
REMARK VINA RESULT:      -7.1      0.000      0.000
REMARK  Name = 
REMARK  6 active torsions:
REMARK  status: ('A' for Active; 'I' for Inactive)
REMARK    1  A    between atoms: C_2  and  O_3
REMARK    2  A    between atoms: N_5  and  C_6
REMARK    3  A    between atoms: C_9  and  O_10
REMARK    4  A    between atoms: O_10  and  C_11
REMARK    5  A    between atoms: C_20  and  S_22
REMARK    6  A    between atoms: S_22  and  N_23
REMARK                            x       y       z     vdW  Elec       q    Type
REMARK                         _______ _______ _______ _____ _____    ______ ____
ROOT
ATOM      1  C   UNL     1      10.314  -0.750  22.929  0.00  0.00    +0.166 C 
ATOM      2  C   UNL     1       9.475  -1.629  23.812  0.00  0.00    +0.018 A 
ATOM      3  C   UNL     1       9.722  -2.996  24.164  0.00  0.00    +0.044 A 
ATOM      4  C   UNL     1       8.742  -3.517  24.992  0.00  0.00    +0.144 A 
ATOM      5  S   UNL     1       7.520  -2.362  25.326  0.00  0.00    -0.048 S 
ATOM      6  C   UNL     1       8.313  -1.184  24.403  0.00  0.00    +0.153 A 
ATOM      7  S   UNL     1       7.662   0.456  24.357  0.00  0.00    +0.081 S 
ATOM      8  O   UNL     1       6.278   0.351  23.957  0.00  0.00    -0.149 OA
ATOM      9  O   UNL     1       8.084   1.021  25.619  0.00  0.00    -0.149 OA
ATOM     10  N   UNL     1       8.575   1.200  23.087  0.00  0.00    -0.200 N 
ATOM     11  C   UNL     1      10.030   0.784  23.042  0.00  0.00    +0.167 C 
ENDROOT
BRANCH  10  12
ATOM     12  C   UNL     1       8.351   2.636  23.062  0.00  0.00    +0.052 A 
ATOM     13  C   UNL     1       9.239   3.477  23.733  0.00  0.00    +0.028 A 
ATOM     14  C   UNL     1       9.092   4.872  23.657  0.00  0.00    +0.047 A 
ATOM     15  C   UNL     1       8.071   5.431  22.888  0.00  0.00    +0.120 A 
ATOM     16  C   UNL     1       7.220   4.590  22.173  0.00  0.00    +0.047 A 
ATOM     17  C   UNL     1       7.361   3.204  22.253  0.00  0.00    +0.028 A 
BRANCH  15  18
ATOM     18  O   UNL     1       7.852   6.765  22.692  0.00  0.00    -0.495 OA
ATOM     19  C   UNL     1       6.798   7.108  21.801  0.00  0.00    +0.277 C 
ENDBRANCH  15  18
ENDBRANCH  10  12
BRANCH   4  20
ATOM     20  S   UNL     1       8.520  -5.123  25.728  0.00  0.00    +0.062 S 
ATOM     21  O   UNL     1       7.319  -5.669  25.141  0.00  0.00    -0.153 OA
ATOM     22  O   UNL     1       8.671  -4.895  27.149  0.00  0.00    -0.153 OA
BRANCH  20  23
ATOM     23  N   UNL     1       9.820  -6.061  25.237  0.00  0.00    -0.203 NA
ATOM     24  H   UNL     1      10.583  -6.054  25.913  0.00  0.00    +0.144 HD
ATOM     25  H   UNL     1       9.535  -6.983  24.912  0.00  0.00    +0.144 HD
ENDBRANCH  20  23
ENDBRANCH   4  20
BRANCH   1  26
ATOM     26  O   UNL     1      10.183  -1.188  21.578  0.00  0.00    -0.385 OA
ATOM     27  H   UNL     1       9.824  -0.447  21.060  0.00  0.00    +0.210 HD
ENDBRANCH   1  26
TORSDOF 5
ENDMDL
MODEL 2
REMARK VINA RESULT:      -7.0      3.663      5.752
REMARK  Name = 
REMARK  6 active torsions:
REMARK  status: ('A' for Active; 'I' for Inactive)
REMARK    1  A    between atoms: C_2  and  O_3
REMARK    2  A    between atoms: N_5  and  C_6
REMARK    3  A    between atoms: C_9  and  O_10
REMARK    4  A    between atoms: O_10  and  C_11
REMARK    5  A    between atoms: C_20  and  S_22
REMARK    6  A    between atoms: S_22  and  N_23
REMARK                            x       y       z     vdW  Elec       q    Type
REMARK                         _______ _______ _______ _____ _____    ______ ____
ROOT
ATOM      1  C   UNL     1       7.126  -4.917  26.663  0.00  0.00    +0.166 C 
ATOM      2  C   UNL     1       6.011  -5.253  25.714  0.00  0.00    +0.018 A 
ATOM      3  C   UNL     1       4.961  -6.207  25.910  0.00  0.00    +0.044 A 
ATOM      4  C   UNL     1       4.099  -6.278  24.828  0.00  0.00    +0.144 A 
ATOM      5  S   UNL     1       4.572  -5.209  23.574  0.00  0.00    -0.048 S 
ATOM      6  C   UNL     1       5.884  -4.645  24.485  0.00  0.00    +0.153 A 
ATOM      7  S   UNL     1       6.870  -3.326  23.848  0.00  0.00    +0.081 S 
ATOM      8  O   UNL     1       7.306  -3.722  22.528  0.00  0.00    -0.149 OA
ATOM      9  O   UNL     1       6.065  -2.152  24.099  0.00  0.00    -0.149 OA
ATOM     10  N   UNL     1       8.228  -3.303  24.922  0.00  0.00    -0.200 N 
ATOM     11  C   UNL     1       7.880  -3.578  26.370  0.00  0.00    +0.167 C 
ENDROOT
BRANCH  10  12
ATOM     12  C   UNL     1       9.039  -2.117  24.705  0.00  0.00    +0.052 A 
ATOM     13  C   UNL     1       9.780  -2.002  23.528  0.00  0.00    +0.028 A 
ATOM     14  C   UNL     1      10.508  -0.832  23.259  0.00  0.00    +0.047 A 
ATOM     15  C   UNL     1      10.477   0.239  24.153  0.00  0.00    +0.120 A 
ATOM     16  C   UNL     1       9.692   0.143  25.300  0.00  0.00    +0.047 A 
ATOM     17  C   UNL     1       8.973  -1.021  25.573  0.00  0.00    +0.028 A 
BRANCH  15  18
ATOM     18  O   UNL     1      11.096   1.444  23.984  0.00  0.00    -0.495 OA
ATOM     19  C   UNL     1      10.249   2.562  23.748  0.00  0.00    +0.277 C 
ENDBRANCH  15  18
ENDBRANCH  10  12
BRANCH   4  20
ATOM     20  S   UNL     1       2.651  -7.264  24.509  0.00  0.00    +0.062 S 
ATOM     21  O   UNL     1       1.555  -6.587  25.160  0.00  0.00    -0.153 OA
ATOM     22  O   UNL     1       3.053  -8.615  24.838  0.00  0.00    -0.153 OA
BRANCH  20  23
ATOM     23  N   UNL     1       2.391  -7.215  22.853  0.00  0.00    -0.203 NA
ATOM     24  H   UNL     1       2.577  -6.294  22.457  0.00  0.00    +0.144 HD
ATOM     25  H   UNL     1       2.829  -7.995  22.366  0.00  0.00    +0.144 HD
ENDBRANCH  20  23
ENDBRANCH   4  20
BRANCH   1  26
ATOM     26  O   UNL     1       8.041  -6.010  26.712  0.00  0.00    -0.385 OA
ATOM     27  H   UNL     1       8.372  -6.077  27.624  0.00  0.00    +0.210 HD
ENDBRANCH   1  26
TORSDOF 5
ENDMDL
MODEL 3
REMARK VINA RESULT:      -6.8      2.932      4.224
REMARK  Name = 
REMARK  6 active torsions:
REMARK  status: ('A' for Active; 'I' for Inactive)
REMARK    1  A    between atoms: C_2  and  O_3
REMARK    2  A    between atoms: N_5  and  C_6
REMARK    3  A    between atoms: C_9  and  O_10
REMARK    4  A    between atoms: O_10  and  C_11
REMARK    5  A    between atoms: C_20  and  S_22
REMARK    6  A    between atoms: S_22  and  N_23
REMARK                            x       y       z     vdW  Elec       q    Type
REMARK                         _______ _______ _______ _____ _____    ______ ____
ROOT
ATOM      1  C   UNL     1       9.073  -4.582  25.025  0.00  0.00    +0.166 C 
ATOM      2  C   UNL     1       7.950  -4.499  26.018  0.00  0.00    +0.018 A 
ATOM      3  C   UNL     1       7.458  -5.545  26.864  0.00  0.00    +0.044 A 
ATOM      4  C   UNL     1       6.400  -5.134  27.657  0.00  0.00    +0.144 A 
ATOM      5  S   UNL     1       5.992  -3.495  27.364  0.00  0.00    -0.048 S 
ATOM      6  C   UNL     1       7.232  -3.341  26.221  0.00  0.00    +0.153 A 
ATOM      7  S   UNL     1       7.542  -1.761  25.495  0.00  0.00    +0.081 S 
ATOM      8  O   UNL     1       6.289  -1.296  24.945  0.00  0.00    -0.149 OA
ATOM      9  O   UNL     1       8.269  -1.054  26.525  0.00  0.00    -0.149 OA
ATOM     10  N   UNL     1       8.635  -2.135  24.206  0.00  0.00    -0.200 N 
ATOM     11  C   UNL     1       9.648  -3.210  24.541  0.00  0.00    +0.167 C 
ENDROOT
BRANCH  10  12
ATOM     12  C   UNL     1       9.201  -0.922  23.639  0.00  0.00    +0.052 A 
ATOM     13  C   UNL     1       8.645  -0.389  22.475  0.00  0.00    +0.028 A 
ATOM     14  C   UNL     1       9.121   0.824  21.952  0.00  0.00    +0.047 A 
ATOM     15  C   UNL     1      10.136   1.523  22.606  0.00  0.00    +0.120 A 
ATOM     16  C   UNL     1      10.650   1.018  23.798  0.00  0.00    +0.047 A 
ATOM     17  C   UNL     1      10.184  -0.192  24.315  0.00  0.00    +0.028 A 
BRANCH  15  18
ATOM     18  O   UNL     1      10.649   2.732  22.231  0.00  0.00    -0.495 OA
ATOM     19  C   UNL     1      11.164   3.551  23.273  0.00  0.00    +0.277 C 
ENDBRANCH  15  18
ENDBRANCH  10  12
BRANCH   4  20
ATOM     20  S   UNL     1       5.408  -5.981  28.869  0.00  0.00    +0.062 S 
ATOM     21  O   UNL     1       4.053  -5.524  28.667  0.00  0.00    -0.153 OA
ATOM     22  O   UNL     1       6.124  -5.802  30.114  0.00  0.00    -0.153 OA
BRANCH  20  23
ATOM     23  N   UNL     1       5.475  -7.613  28.491  0.00  0.00    -0.203 NA
ATOM     24  H   UNL     1       4.995  -7.830  27.618  0.00  0.00    +0.144 HD
ATOM     25  H   UNL     1       6.415  -7.996  28.579  0.00  0.00    +0.144 HD
ENDBRANCH  20  23
ENDBRANCH   4  20
BRANCH   1  26
ATOM     26  O   UNL     1       8.654  -5.373  23.913  0.00  0.00    -0.385 OA
ATOM     27  H   UNL     1       8.261  -6.190  24.264  0.00  0.00    +0.210 HD
ENDBRANCH   1  26
TORSDOF 5
ENDMDL
MODEL 4
REMARK VINA RESULT:      -6.8      3.043      4.528
REMARK  Name = 
REMARK  6 active torsions:
REMARK  status: ('A' for Active; 'I' for Inactive)
REMARK    1  A    between atoms: C_2  and  O_3
REMARK    2  A    between atoms: N_5  and  C_6
REMARK    3  A    between atoms: C_9  and  O_10
REMARK    4  A    between atoms: O_10  and  C_11
REMARK    5  A    between atoms: C_20  and  S_22
REMARK    6  A    between atoms: S_22  and  N_23
REMARK                            x       y       z     vdW  Elec       q    Type
REMARK                         _______ _______ _______ _____ _____    ______ ____
ROOT
ATOM      1  C   UNL     1       8.667  -4.557  25.297  0.00  0.00    +0.166 C 
ATOM      2  C   UNL     1       7.192  -4.741  25.084  0.00  0.00    +0.018 A 
ATOM      3  C   UNL     1       6.382  -5.841  25.516  0.00  0.00    +0.044 A 
ATOM      4  C   UNL     1       5.055  -5.702  25.145  0.00  0.00    +0.144 A 
ATOM      5  S   UNL     1       4.796  -4.256  24.261  0.00  0.00    -0.048 S 
ATOM      6  C   UNL     1       6.426  -3.818  24.406  0.00  0.00    +0.153 A 
ATOM      7  S   UNL     1       6.955  -2.251  23.789  0.00  0.00    +0.081 S 
ATOM      8  O   UNL     1       6.535  -2.177  22.408  0.00  0.00    -0.149 OA
ATOM      9  O   UNL     1       6.513  -1.322  24.804  0.00  0.00    -0.149 OA
ATOM     10  N   UNL     1       8.681  -2.368  23.861  0.00  0.00    -0.200 N 
ATOM     11  C   UNL     1       9.203  -3.103  25.078  0.00  0.00    +0.167 C 
ENDROOT
BRANCH  10  12
ATOM     12  C   UNL     1       9.298  -1.074  23.621  0.00  0.00    +0.052 A 
ATOM     13  C   UNL     1       9.210  -0.501  22.351  0.00  0.00    +0.028 A 
ATOM     14  C   UNL     1       9.727   0.782  22.114  0.00  0.00    +0.047 A 
ATOM     15  C   UNL     1      10.311   1.509  23.152  0.00  0.00    +0.120 A 
ATOM     16  C   UNL     1      10.347   0.958  24.432  0.00  0.00    +0.047 A 
ATOM     17  C   UNL     1       9.840  -0.320  24.668  0.00  0.00    +0.028 A 
BRANCH  15  18
ATOM     18  O   UNL     1      10.803   2.780  23.065  0.00  0.00    -0.495 OA
ATOM     19  C   UNL     1      10.022   3.803  23.671  0.00  0.00    +0.277 C 
ENDBRANCH  15  18
ENDBRANCH  10  12
BRANCH   4  20
ATOM     20  S   UNL     1       3.624  -6.732  25.393  0.00  0.00    +0.062 S 
ATOM     21  O   UNL     1       3.835  -7.911  24.587  0.00  0.00    -0.153 OA
ATOM     22  O   UNL     1       2.499  -5.840  25.209  0.00  0.00    -0.153 OA
BRANCH  20  23
ATOM     23  N   UNL     1       3.634  -7.189  27.007  0.00  0.00    -0.203 NA
ATOM     24  H   UNL     1       3.819  -6.405  27.632  0.00  0.00    +0.144 HD
ATOM     25  H   UNL     1       2.831  -7.764  27.254  0.00  0.00    +0.144 HD
ENDBRANCH  20  23
ENDBRANCH   4  20
BRANCH   1  26
ATOM     26  O   UNL     1       9.375  -5.484  24.476  0.00  0.00    -0.385 OA
ATOM     27  H   UNL     1      10.117  -5.834  24.998  0.00  0.00    +0.210 HD
ENDBRANCH   1  26
TORSDOF 5
ENDMDL
MODEL 5
REMARK VINA RESULT:      -6.7      2.800      3.647
REMARK  Name = 
REMARK  6 active torsions:
REMARK  status: ('A' for Active; 'I' for Inactive)
REMARK    1  A    between atoms: C_2  and  O_3
REMARK    2  A    between atoms: N_5  and  C_6
REMARK    3  A    between atoms: C_9  and  O_10
REMARK    4  A    between atoms: O_10  and  C_11
REMARK    5  A    between atoms: C_20  and  S_22
REMARK    6  A    between atoms: S_22  and  N_23
REMARK                            x       y       z     vdW  Elec       q    Type
REMARK                         _______ _______ _______ _____ _____    ______ ____
ROOT
ATOM      1  C   UNL     1       7.559  -1.687  25.893  0.00  0.00    +0.166 C 
ATOM      2  C   UNL     1       6.944  -2.447  24.753  0.00  0.00    +0.018 A 
ATOM      3  C   UNL     1       6.194  -3.666  24.825  0.00  0.00    +0.044 A 
ATOM      4  C   UNL     1       5.778  -4.108  23.581  0.00  0.00    +0.144 A 
ATOM      5  S   UNL     1       6.309  -3.062  22.330  0.00  0.00    -0.048 S 
ATOM      6  C   UNL     1       7.052  -2.027  23.446  0.00  0.00    +0.153 A 
ATOM      7  S   UNL     1       7.783  -0.525  22.873  0.00  0.00    +0.081 S 
ATOM      8  O   UNL     1       8.709  -0.880  21.821  0.00  0.00    -0.149 OA
ATOM      9  O   UNL     1       6.647   0.346  22.672  0.00  0.00    -0.149 OA
ATOM     10  N   UNL     1       8.666   0.029  24.256  0.00  0.00    -0.200 N 
ATOM     11  C   UNL     1       7.965  -0.210  25.577  0.00  0.00    +0.167 C 
ENDROOT
BRANCH  10  12
ATOM     12  C   UNL     1       9.141   1.387  24.056  0.00  0.00    +0.052 A 
ATOM     13  C   UNL     1       8.460   2.445  24.660  0.00  0.00    +0.028 A 
ATOM     14  C   UNL     1       8.944   3.758  24.548  0.00  0.00    +0.047 A 
ATOM     15  C   UNL     1      10.127   4.016  23.855  0.00  0.00    +0.120 A 
ATOM     16  C   UNL     1      10.835   2.952  23.300  0.00  0.00    +0.047 A 
ATOM     17  C   UNL     1      10.352   1.647  23.404  0.00  0.00    +0.028 A 
BRANCH  15  18
ATOM     18  O   UNL     1      10.729   5.234  23.718  0.00  0.00    -0.495 OA
ATOM     19  C   UNL     1      12.084   5.225  23.286  0.00  0.00    +0.277 C 
ENDBRANCH  15  18
ENDBRANCH  10  12
BRANCH   4  20
ATOM     20  S   UNL     1       4.841  -5.530  23.063  0.00  0.00    +0.062 S 
ATOM     21  O   UNL     1       3.508  -5.051  22.783  0.00  0.00    -0.153 OA
ATOM     22  O   UNL     1       5.124  -6.536  24.065  0.00  0.00    -0.153 OA
BRANCH  20  23
ATOM     23  N   UNL     1       5.523  -6.059  21.625  0.00  0.00    -0.203 NA
ATOM     24  H   UNL     1       6.160  -5.373  21.222  0.00  0.00    +0.144 HD
ATOM     25  H   UNL     1       5.889  -7.007  21.693  0.00  0.00    +0.144 HD
ENDBRANCH  20  23
ENDBRANCH   4  20
BRANCH   1  26
ATOM     26  O   UNL     1       8.676  -2.420  26.394  0.00  0.00    -0.385 OA
ATOM     27  H   UNL     1       8.712  -3.266  25.915  0.00  0.00    +0.210 HD
ENDBRANCH   1  26
TORSDOF 5
ENDMDL
MODEL 6
REMARK VINA RESULT:      -6.6      3.063      8.026
REMARK  Name = 
REMARK  6 active torsions:
REMARK  status: ('A' for Active; 'I' for Inactive)
REMARK    1  A    between atoms: C_2  and  O_3
REMARK    2  A    between atoms: N_5  and  C_6
REMARK    3  A    between atoms: C_9  and  O_10
REMARK    4  A    between atoms: O_10  and  C_11
REMARK    5  A    between atoms: C_20  and  S_22
REMARK    6  A    between atoms: S_22  and  N_23
REMARK                            x       y       z     vdW  Elec       q    Type
REMARK                         _______ _______ _______ _____ _____    ______ ____
ROOT
ATOM      1  C   UNL     1       8.997  -1.369  21.905  0.00  0.00    +0.166 C 
ATOM      2  C   UNL     1       8.810  -0.167  22.785  0.00  0.00    +0.018 A 
ATOM      3  C   UNL     1       9.304   1.159  22.563  0.00  0.00    +0.044 A 
ATOM      4  C   UNL     1       8.959   2.033  23.580  0.00  0.00    +0.144 A 
ATOM      5  S   UNL     1       8.057   1.246  24.807  0.00  0.00    -0.048 S 
ATOM      6  C   UNL     1       8.107  -0.225  23.968  0.00  0.00    +0.153 A 
ATOM      7  S   UNL     1       7.218  -1.610  24.606  0.00  0.00    +0.081 S 
ATOM      8  O   UNL     1       7.647  -1.796  25.974  0.00  0.00    -0.149 OA
ATOM      9  O   UNL     1       5.849  -1.332  24.234  0.00  0.00    -0.149 OA
ATOM     10  N   UNL     1       7.796  -2.922  23.636  0.00  0.00    -0.200 N 
ATOM     11  C   UNL     1       8.028  -2.566  22.183  0.00  0.00    +0.167 C 
ENDROOT
BRANCH  10  12
ATOM     12  C   UNL     1       6.996  -4.116  23.850  0.00  0.00    +0.052 A 
ATOM     13  C   UNL     1       6.864  -4.628  25.141  0.00  0.00    +0.028 A 
ATOM     14  C   UNL     1       6.031  -5.732  25.386  0.00  0.00    +0.047 A 
ATOM     15  C   UNL     1       5.307  -6.312  24.344  0.00  0.00    +0.120 A 
ATOM     16  C   UNL     1       5.396  -5.765  23.066  0.00  0.00    +0.047 A 
ATOM     17  C   UNL     1       6.228  -4.672  22.820  0.00  0.00    +0.028 A 
BRANCH  15  18
ATOM     18  O   UNL     1       4.428  -7.352  24.459  0.00  0.00    -0.495 OA
ATOM     19  C   UNL     1       3.464  -7.253  25.500  0.00  0.00    +0.277 C 
ENDBRANCH  15  18
ENDBRANCH  10  12
BRANCH   4  20
ATOM     20  S   UNL     1       9.292   3.762  23.843  0.00  0.00    +0.062 S 
ATOM     21  O   UNL     1      10.698   3.944  23.572  0.00  0.00    -0.153 OA
ATOM     22  O   UNL     1       8.690   4.056  25.125  0.00  0.00    -0.153 OA
BRANCH  20  23
ATOM     23  N   UNL     1       8.419   4.602  22.682  0.00  0.00    -0.203 NA
ATOM     24  H   UNL     1       8.356   5.598  22.888  0.00  0.00    +0.144 HD
ATOM     25  H   UNL     1       8.709   4.370  21.734  0.00  0.00    +0.144 HD
ENDBRANCH  20  23
ENDBRANCH   4  20
BRANCH   1  26
ATOM     26  O   UNL     1      10.357  -1.794  21.982  0.00  0.00    -0.385 OA
ATOM     27  H   UNL     1      10.450  -2.345  22.778  0.00  0.00    +0.210 HD
ENDBRANCH   1  26
TORSDOF 5
ENDMDL
MODEL 7
REMARK VINA RESULT:      -6.4      3.611      4.748
REMARK  Name = 
REMARK  6 active torsions:
REMARK  status: ('A' for Active; 'I' for Inactive)
REMARK    1  A    between atoms: C_2  and  O_3
REMARK    2  A    between atoms: N_5  and  C_6
REMARK    3  A    between atoms: C_9  and  O_10
REMARK    4  A    between atoms: O_10  and  C_11
REMARK    5  A    between atoms: C_20  and  S_22
REMARK    6  A    between atoms: S_22  and  N_23
REMARK                            x       y       z     vdW  Elec       q    Type
REMARK                         _______ _______ _______ _____ _____    ______ ____
ROOT
ATOM      1  C   UNL     1       6.529  -4.569  22.032  0.00  0.00    +0.166 C 
ATOM      2  C   UNL     1       5.698  -4.819  23.257  0.00  0.00    +0.018 A 
ATOM      3  C   UNL     1       4.959  -6.003  23.579  0.00  0.00    +0.044 A 
ATOM      4  C   UNL     1       4.289  -5.900  24.786  0.00  0.00    +0.144 A 
ATOM      5  S   UNL     1       4.538  -4.369  25.516  0.00  0.00    -0.048 S 
ATOM      6  C   UNL     1       5.548  -3.875  24.249  0.00  0.00    +0.153 A 
ATOM      7  S   UNL     1       6.357  -2.309  24.353  0.00  0.00    +0.081 S 
ATOM      8  O   UNL     1       5.332  -1.319  24.594  0.00  0.00    -0.149 OA
ATOM      9  O   UNL     1       7.453  -2.556  25.263  0.00  0.00    -0.149 OA
ATOM     10  N   UNL     1       6.999  -2.098  22.759  0.00  0.00    -0.200 N 
ATOM     11  C   UNL     1       7.529  -3.370  22.130  0.00  0.00    +0.167 C 
ENDROOT
BRANCH  10  12
ATOM     12  C   UNL     1       7.914  -0.970  22.715  0.00  0.00    +0.052 A 
ATOM     13  C   UNL     1       9.219  -1.166  22.260  0.00  0.00    +0.028 A 
ATOM     14  C   UNL     1      10.097  -0.078  22.132  0.00  0.00    +0.047 A 
ATOM     15  C   UNL     1       9.666   1.214  22.433  0.00  0.00    +0.120 A 
ATOM     16  C   UNL     1       8.347   1.415  22.834  0.00  0.00    +0.047 A 
ATOM     17  C   UNL     1       7.475   0.334  22.968  0.00  0.00    +0.028 A 
BRANCH  15  18
ATOM     18  O   UNL     1      10.403   2.357  22.302  0.00  0.00    -0.495 OA
ATOM     19  C   UNL     1      10.485   3.191  23.452  0.00  0.00    +0.277 C 
ENDBRANCH  15  18
ENDBRANCH  10  12
BRANCH   4  20
ATOM     20  S   UNL     1       3.233  -7.025  25.675  0.00  0.00    +0.062 S 
ATOM     21  O   UNL     1       3.217  -8.248  24.907  0.00  0.00    -0.153 OA
ATOM     22  O   UNL     1       2.041  -6.256  25.960  0.00  0.00    -0.153 OA
BRANCH  20  23
ATOM     23  N   UNL     1       3.985  -7.335  27.142  0.00  0.00    -0.203 NA
ATOM     24  H   UNL     1       5.001  -7.360  27.060  0.00  0.00    +0.144 HD
ATOM     25  H   UNL     1       3.622  -6.755  27.896  0.00  0.00    +0.144 HD
ENDBRANCH  20  23
ENDBRANCH   4  20
BRANCH   1  26
ATOM     26  O   UNL     1       5.665  -4.413  20.907  0.00  0.00    -0.385 OA
ATOM     27  H   UNL     1       5.664  -3.471  20.664  0.00  0.00    +0.210 HD
ENDBRANCH   1  26
TORSDOF 5
ENDMDL
MODEL 8
REMARK VINA RESULT:      -6.4      2.712      7.949
REMARK  Name = 
REMARK  6 active torsions:
REMARK  status: ('A' for Active; 'I' for Inactive)
REMARK    1  A    between atoms: C_2  and  O_3
REMARK    2  A    between atoms: N_5  and  C_6
REMARK    3  A    between atoms: C_9  and  O_10
REMARK    4  A    between atoms: O_10  and  C_11
REMARK    5  A    between atoms: C_20  and  S_22
REMARK    6  A    between atoms: S_22  and  N_23
REMARK                            x       y       z     vdW  Elec       q    Type
REMARK                         _______ _______ _______ _____ _____    ______ ____
ROOT
ATOM      1  C   UNL     1      10.360   0.625  23.982  0.00  0.00    +0.166 C 
ATOM      2  C   UNL     1       9.484   1.836  23.838  0.00  0.00    +0.018 A 
ATOM      3  C   UNL     1       9.900   3.202  23.730  0.00  0.00    +0.044 A 
ATOM      4  C   UNL     1       8.833   4.076  23.620  0.00  0.00    +0.144 A 
ATOM      5  S   UNL     1       7.332   3.248  23.668  0.00  0.00    -0.048 S 
ATOM      6  C   UNL     1       8.110   1.749  23.801  0.00  0.00    +0.153 A 
ATOM      7  S   UNL     1       7.141   0.273  23.785  0.00  0.00    +0.081 S 
ATOM      8  O   UNL     1       6.139   0.413  24.817  0.00  0.00    -0.149 OA
ATOM      9  O   UNL     1       6.822   0.094  22.387  0.00  0.00    -0.149 OA
ATOM     10  N   UNL     1       8.282  -0.944  24.251  0.00  0.00    -0.200 N 
ATOM     11  C   UNL     1       9.670  -0.746  23.679  0.00  0.00    +0.167 C 
ENDROOT
BRANCH  10  12
ATOM     12  C   UNL     1       7.728  -2.273  24.057  0.00  0.00    +0.052 A 
ATOM     13  C   UNL     1       6.805  -2.769  24.979  0.00  0.00    +0.028 A 
ATOM     14  C   UNL     1       6.195  -4.017  24.773  0.00  0.00    +0.047 A 
ATOM     15  C   UNL     1       6.485  -4.762  23.629  0.00  0.00    +0.120 A 
ATOM     16  C   UNL     1       7.364  -4.240  22.683  0.00  0.00    +0.047 A 
ATOM     17  C   UNL     1       7.977  -3.004  22.890  0.00  0.00    +0.028 A 
BRANCH  15  18
ATOM     18  O   UNL     1       5.924  -5.960  23.287  0.00  0.00    -0.495 OA
ATOM     19  C   UNL     1       4.902  -6.448  24.147  0.00  0.00    +0.277 C 
ENDBRANCH  15  18
ENDBRANCH  10  12
BRANCH   4  20
ATOM     20  S   UNL     1       8.741   5.848  23.466  0.00  0.00    +0.062 S 
ATOM     21  O   UNL     1      10.106   6.318  23.444  0.00  0.00    -0.153 OA
ATOM     22  O   UNL     1       7.783   6.251  24.473  0.00  0.00    -0.153 OA
BRANCH  20  23
ATOM     23  N   UNL     1       8.051   6.166  21.971  0.00  0.00    -0.203 NA
ATOM     24  H   UNL     1       8.474   6.970  21.510  0.00  0.00    +0.144 HD
ATOM     25  H   UNL     1       7.963   5.330  21.396  0.00  0.00    +0.144 HD
ENDBRANCH  20  23
ENDBRANCH   4  20
BRANCH   1  26
ATOM     26  O   UNL     1      10.937   0.620  25.288  0.00  0.00    -0.385 OA
ATOM     27  H   UNL     1      11.367   1.482  25.423  0.00  0.00    +0.210 HD
ENDBRANCH   1  26
TORSDOF 5
ENDMDL
MODEL 9
REMARK VINA RESULT:      -6.4      4.058      8.614
REMARK  Name = 
REMARK  6 active torsions:
REMARK  status: ('A' for Active; 'I' for Inactive)
REMARK    1  A    between atoms: C_2  and  O_3
REMARK    2  A    between atoms: N_5  and  C_6
REMARK    3  A    between atoms: C_9  and  O_10
REMARK    4  A    between atoms: O_10  and  C_11
REMARK    5  A    between atoms: C_20  and  S_22
REMARK    6  A    between atoms: S_22  and  N_23
REMARK                            x       y       z     vdW  Elec       q    Type
REMARK                         _______ _______ _______ _____ _____    ______ ____
ROOT
ATOM      1  C   UNL     1       5.763  -0.910  25.758  0.00  0.00    +0.166 C 
ATOM      2  C   UNL     1       6.768  -0.441  24.746  0.00  0.00    +0.018 A 
ATOM      3  C   UNL     1       7.510   0.785  24.760  0.00  0.00    +0.044 A 
ATOM      4  C   UNL     1       8.349   0.911  23.667  0.00  0.00    +0.144 A 
ATOM      5  S   UNL     1       8.224  -0.438  22.617  0.00  0.00    -0.048 S 
ATOM      6  C   UNL     1       7.092  -1.184  23.633  0.00  0.00    +0.153 A 
ATOM      7  S   UNL     1       6.526  -2.810  23.242  0.00  0.00    +0.081 S 
ATOM      8  O   UNL     1       6.035  -2.773  21.883  0.00  0.00    -0.149 OA
ATOM      9  O   UNL     1       7.615  -3.658  23.671  0.00  0.00    -0.149 OA
ATOM     10  N   UNL     1       5.196  -3.029  24.330  0.00  0.00    -0.200 N 
ATOM     11  C   UNL     1       5.414  -2.434  25.705  0.00  0.00    +0.167 C 
ENDROOT
BRANCH  10  12
ATOM     12  C   UNL     1       4.749  -4.412  24.329  0.00  0.00    +0.052 A 
ATOM     13  C   UNL     1       5.133  -5.254  25.373  0.00  0.00    +0.028 A 
ATOM     14  C   UNL     1       4.649  -6.571  25.438  0.00  0.00    +0.047 A 
ATOM     15  C   UNL     1       3.759  -7.042  24.473  0.00  0.00    +0.120 A 
ATOM     16  C   UNL     1       3.333  -6.182  23.463  0.00  0.00    +0.047 A 
ATOM     17  C   UNL     1       3.818  -4.876  23.393  0.00  0.00    +0.028 A 
BRANCH  15  18
ATOM     18  O   UNL     1       3.178  -8.279  24.451  0.00  0.00    -0.495 OA
ATOM     19  C   UNL     1       1.861  -8.349  23.921  0.00  0.00    +0.277 C 
ENDBRANCH  15  18
ENDBRANCH  10  12
BRANCH   4  20
ATOM     20  S   UNL     1       9.478   2.192  23.161  0.00  0.00    +0.062 S 
ATOM     21  O   UNL     1      10.710   1.943  23.872  0.00  0.00    -0.153 OA
ATOM     22  O   UNL     1       8.721   3.417  23.298  0.00  0.00    -0.153 OA
BRANCH  20  23
ATOM     23  N   UNL     1       9.760   1.965  21.523  0.00  0.00    -0.203 NA
ATOM     24  H   UNL     1       9.040   2.391  20.942  0.00  0.00    +0.144 HD
ATOM     25  H   UNL     1      10.719   2.184  21.259  0.00  0.00    +0.144 HD
ENDBRANCH  20  23
ENDBRANCH   4  20
BRANCH   1  26
ATOM     26  O   UNL     1       4.581  -0.119  25.641  0.00  0.00    -0.385 OA
ATOM     27  H   UNL     1       4.078  -0.216  26.468  0.00  0.00    +0.210 HD
ENDBRANCH   1  26
TORSDOF 5
ENDMDL
