MODEL 1
REMARK VINA RESULT:      -8.4      0.000      0.000
REMARK  Name = 
REMARK  7 active torsions:
REMARK  status: ('A' for Active; 'I' for Inactive)
REMARK    1  A    between atoms: O_1  and  C_2
REMARK    2  A    between atoms: C_3  and  C_4
REMARK    3  A    between atoms: C_4  and  C_6
REMARK    4  A    between atoms: C_4  and  C_9
REMARK    5  A    between atoms: C_13  and  N_14
REMARK    6  A    between atoms: N_14  and  S_15
REMARK    7  A    between atoms: S_15  and  C_18
REMARK                            x       y       z     vdW  Elec       q    Type
REMARK                         _______ _______ _______ _____ _____    ______ ____
ROOT
ATOM      1  C   UNL     1       6.252  -3.915  22.776  0.00  0.00    +0.063 C 
ENDROOT
BRANCH   1  14
ATOM      2  C   UNL     1       6.901  -1.600  23.763  0.00  0.00    +0.134 A 
ATOM      3  C   UNL     1       7.943  -0.607  23.947  0.00  0.00    +0.033 A 
ATOM      4  C   UNL     1       7.573   0.831  24.214  0.00  0.00    +0.042 C 
ATOM      5  C   UNL     1       7.005   1.592  23.017  0.00  0.00    +0.005 C 
ATOM      6  C   UNL     1       7.771   1.642  21.684  0.00  0.00    +0.000 C 
ATOM      7  C   UNL     1       9.061   0.848  21.459  0.00  0.00    +0.000 C 
ATOM      8  C   UNL     1      10.158   1.088  22.504  0.00  0.00    +0.008 C 
ATOM      9  C   UNL     1      10.373  -0.038  23.539  0.00  0.00    +0.075 C 
ATOM     10  C   UNL     1       9.216  -0.983  23.738  0.00  0.00    +0.116 A 
ATOM     11  O   UNL     1       9.557  -2.340  23.576  0.00  0.00    -0.427 OA
ATOM     12  C   UNL     1       8.582  -3.288  23.706  0.00  0.00    +0.344 A 
ATOM     13  O   UNL     1       8.857  -4.445  23.998  0.00  0.00    -0.245 OA
ATOM     14  C   UNL     1       7.188  -2.866  23.399  0.00  0.00    +0.086 A 
BRANCH   2  15
ATOM     15  O   UNL     1       5.631  -1.089  23.860  0.00  0.00    -0.506 OA
ATOM     16  H   UNL     1       5.075  -1.514  23.187  0.00  0.00    +0.292 HD
ENDBRANCH   2  15
ENDBRANCH   1  14
BRANCH   1  17
ATOM     17  C   UNL     1       5.371  -4.701  23.767  0.00  0.00    -0.038 A 
ATOM     18  C   UNL     1       5.895  -5.448  24.839  0.00  0.00    +0.028 A 
ATOM     19  C   UNL     1       5.043  -6.015  25.789  0.00  0.00    +0.048 A 
ATOM     20  C   UNL     1       3.664  -5.980  25.610  0.00  0.00    +0.024 A 
ATOM     21  C   UNL     1       3.127  -5.313  24.510  0.00  0.00    +0.002 A 
ATOM     22  C   UNL     1       3.972  -4.659  23.611  0.00  0.00    +0.004 A 
BRANCH  19  23
ATOM     23  N   UNL     1       5.578  -6.575  26.981  0.00  0.00    -0.216 N 
ATOM     24  H   UNL     1       5.001  -7.268  27.457  0.00  0.00    +0.174 HD
BRANCH  23  25
ATOM     25  S   UNL     1       6.464  -5.617  28.044  0.00  0.00    +0.072 S 
ATOM     26  O   UNL     1       7.784  -5.378  27.504  0.00  0.00    -0.150 OA
ATOM     27  O   UNL     1       6.285  -6.191  29.360  0.00  0.00    -0.150 OA
BRANCH  25  28
ATOM     28  C   UNL     1       5.561  -4.086  28.012  0.00  0.00    +0.108 A 
ATOM     29  C   UNL     1       6.039  -3.023  27.243  0.00  0.00    +0.029 A 
ATOM     30  C   UNL     1       5.311  -1.835  27.194  0.00  0.00    +0.002 A 
ATOM     31  C   UNL     1       4.126  -1.710  27.921  0.00  0.00    +0.000 A 
ATOM     32  C   UNL     1       3.673  -2.763  28.718  0.00  0.00    +0.002 A 
ATOM     33  C   UNL     1       4.392  -3.956  28.768  0.00  0.00    +0.029 A 
ENDBRANCH  25  28
ENDBRANCH  23  25
ENDBRANCH  19  23
ENDBRANCH   1  17
BRANCH   1  34
ATOM     34  C   UNL     1       6.920  -4.894  21.794  0.00  0.00    +0.001 C 
ATOM     35  C   UNL     1       6.237  -5.676  20.682  0.00  0.00    +0.005 C 
ATOM     36  C   UNL     1       6.689  -6.386  21.923  0.00  0.00    +0.005 C 
ENDBRANCH   1  34
TORSDOF 7
ENDMDL
MODEL 2
REMARK VINA RESULT:      -8.1      2.184      3.777
REMARK  Name = 
REMARK  7 active torsions:
REMARK  status: ('A' for Active; 'I' for Inactive)
REMARK    1  A    between atoms: O_1  and  C_2
REMARK    2  A    between atoms: C_3  and  C_4
REMARK    3  A    between atoms: C_4  and  C_6
REMARK    4  A    between atoms: C_4  and  C_9
REMARK    5  A    between atoms: C_13  and  N_14
REMARK    6  A    between atoms: N_14  and  S_15
REMARK    7  A    between atoms: S_15  and  C_18
REMARK                            x       y       z     vdW  Elec       q    Type
REMARK                         _______ _______ _______ _____ _____    ______ ____
ROOT
ATOM      1  C   UNL     1       7.738  -3.198  23.998  0.00  0.00    +0.063 C 
ENDROOT
BRANCH   1  14
ATOM      2  C   UNL     1       7.979  -0.998  22.636  0.00  0.00    +0.134 A 
ATOM      3  C   UNL     1       7.766   0.437  22.598  0.00  0.00    +0.033 A 
ATOM      4  C   UNL     1       8.588   1.295  21.669  0.00  0.00    +0.042 C 
ATOM      5  C   UNL     1      10.049   1.483  22.076  0.00  0.00    +0.005 C 
ATOM      6  C   UNL     1      10.413   1.994  23.480  0.00  0.00    +0.000 C 
ATOM      7  C   UNL     1       9.352   2.223  24.560  0.00  0.00    +0.000 C 
ATOM      8  C   UNL     1       8.192   3.137  24.144  0.00  0.00    +0.008 C 
ATOM      9  C   UNL     1       6.848   2.439  23.839  0.00  0.00    +0.075 C 
ATOM     10  C   UNL     1       6.927   0.974  23.499  0.00  0.00    +0.116 A 
ATOM     11  O   UNL     1       6.101   0.160  24.299  0.00  0.00    -0.427 OA
ATOM     12  C   UNL     1       6.109  -1.191  24.100  0.00  0.00    +0.344 A 
ATOM     13  O   UNL     1       5.157  -1.888  24.431  0.00  0.00    -0.245 OA
ATOM     14  C   UNL     1       7.355  -1.781  23.538  0.00  0.00    +0.086 A 
BRANCH   2  15
ATOM     15  O   UNL     1       8.956  -1.432  21.774  0.00  0.00    -0.506 OA
ATOM     16  H   UNL     1       9.549  -2.031  22.256  0.00  0.00    +0.292 HD
ENDBRANCH   2  15
ENDBRANCH   1  14
BRANCH   1  17
ATOM     17  C   UNL     1       7.009  -4.354  23.285  0.00  0.00    -0.038 A 
ATOM     18  C   UNL     1       6.244  -5.319  23.965  0.00  0.00    +0.028 A 
ATOM     19  C   UNL     1       5.486  -6.252  23.253  0.00  0.00    +0.048 A 
ATOM     20  C   UNL     1       5.596  -6.339  21.868  0.00  0.00    +0.024 A 
ATOM     21  C   UNL     1       6.413  -5.443  21.182  0.00  0.00    +0.002 A 
ATOM     22  C   UNL     1       7.093  -4.444  21.882  0.00  0.00    +0.004 A 
BRANCH  19  23
ATOM     23  N   UNL     1       4.548  -7.076  23.932  0.00  0.00    -0.216 N 
ATOM     24  H   UNL     1       4.266  -7.933  23.457  0.00  0.00    +0.174 HD
BRANCH  23  25
ATOM     25  S   UNL     1       3.305  -6.383  24.829  0.00  0.00    +0.072 S 
ATOM     26  O   UNL     1       2.373  -7.406  25.248  0.00  0.00    -0.150 OA
ATOM     27  O   UNL     1       2.862  -5.222  24.086  0.00  0.00    -0.150 OA
BRANCH  25  28
ATOM     28  C   UNL     1       4.165  -5.788  26.266  0.00  0.00    +0.108 A 
ATOM     29  C   UNL     1       4.927  -6.677  27.028  0.00  0.00    +0.029 A 
ATOM     30  C   UNL     1       5.627  -6.201  28.135  0.00  0.00    +0.002 A 
ATOM     31  C   UNL     1       5.549  -4.852  28.485  0.00  0.00    +0.000 A 
ATOM     32  C   UNL     1       4.756  -3.975  27.742  0.00  0.00    +0.002 A 
ATOM     33  C   UNL     1       4.057  -4.442  26.630  0.00  0.00    +0.029 A 
ENDBRANCH  25  28
ENDBRANCH  23  25
ENDBRANCH  19  23
ENDBRANCH   1  17
BRANCH   1  34
ATOM     34  C   UNL     1       7.702  -3.429  25.520  0.00  0.00    +0.001 C 
ATOM     35  C   UNL     1       8.563  -2.736  26.566  0.00  0.00    +0.005 C 
ATOM     36  C   UNL     1       8.831  -4.168  26.210  0.00  0.00    +0.005 C 
ENDBRANCH   1  34
TORSDOF 7
ENDMDL
MODEL 3
REMARK VINA RESULT:      -7.8      2.295      3.523
REMARK  Name = 
REMARK  7 active torsions:
REMARK  status: ('A' for Active; 'I' for Inactive)
REMARK    1  A    between atoms: O_1  and  C_2
REMARK    2  A    between atoms: C_3  and  C_4
REMARK    3  A    between atoms: C_4  and  C_6
REMARK    4  A    between atoms: C_4  and  C_9
REMARK    5  A    between atoms: C_13  and  N_14
REMARK    6  A    between atoms: N_14  and  S_15
REMARK    7  A    between atoms: S_15  and  C_18
REMARK                            x       y       z     vdW  Elec       q    Type
REMARK                         _______ _______ _______ _____ _____    ______ ____
ROOT
ATOM      1  C   UNL     1       8.743  -3.329  24.199  0.00  0.00    +0.063 C 
ENDROOT
BRANCH   1  14
ATOM      2  C   UNL     1       8.756  -0.800  24.796  0.00  0.00    +0.134 A 
ATOM      3  C   UNL     1       8.906   0.562  24.315  0.00  0.00    +0.033 A 
ATOM      4  C   UNL     1       8.309   1.706  25.096  0.00  0.00    +0.042 C 
ATOM      5  C   UNL     1       6.786   1.811  25.038  0.00  0.00    +0.005 C 
ATOM      6  C   UNL     1       6.054   1.856  23.686  0.00  0.00    +0.000 C 
ATOM      7  C   UNL     1       6.794   1.682  22.356  0.00  0.00    +0.000 C 
ATOM      8  C   UNL     1       7.979   2.634  22.146  0.00  0.00    +0.008 C 
ATOM      9  C   UNL     1       9.386   2.018  22.305  0.00  0.00    +0.075 C 
ATOM     10  C   UNL     1       9.463   0.745  23.107  0.00  0.00    +0.116 A 
ATOM     11  O   UNL     1      10.094  -0.316  22.428  0.00  0.00    -0.427 OA
ATOM     12  C   UNL     1      10.199  -1.529  23.046  0.00  0.00    +0.344 A 
ATOM     13  O   UNL     1      11.066  -2.333  22.725  0.00  0.00    -0.245 OA
ATOM     14  C   UNL     1       9.165  -1.856  24.066  0.00  0.00    +0.086 A 
BRANCH   2  15
ATOM     15  O   UNL     1       8.051  -0.893  25.971  0.00  0.00    -0.506 OA
ATOM     16  H   UNL     1       8.682  -0.971  26.704  0.00  0.00    +0.292 HD
ENDBRANCH   2  15
ENDBRANCH   1  14
BRANCH   1  17
ATOM     17  C   UNL     1       7.453  -3.727  23.455  0.00  0.00    -0.038 A 
ATOM     18  C   UNL     1       6.918  -5.029  23.482  0.00  0.00    +0.028 A 
ATOM     19  C   UNL     1       5.670  -5.292  22.913  0.00  0.00    +0.048 A 
ATOM     20  C   UNL     1       5.009  -4.312  22.179  0.00  0.00    +0.024 A 
ATOM     21  C   UNL     1       5.563  -3.038  22.072  0.00  0.00    +0.002 A 
ATOM     22  C   UNL     1       6.761  -2.742  22.725  0.00  0.00    +0.004 A 
BRANCH  19  23
ATOM     23  N   UNL     1       5.036  -6.545  23.134  0.00  0.00    -0.216 N 
ATOM     24  H   UNL     1       4.909  -7.142  22.317  0.00  0.00    +0.174 HD
BRANCH  23  25
ATOM     25  S   UNL     1       3.777  -6.673  24.243  0.00  0.00    +0.072 S 
ATOM     26  O   UNL     1       3.576  -8.060  24.599  0.00  0.00    -0.150 OA
ATOM     27  O   UNL     1       2.692  -5.865  23.727  0.00  0.00    -0.150 OA
BRANCH  25  28
ATOM     28  C   UNL     1       4.436  -5.824  25.659  0.00  0.00    +0.108 A 
ATOM     29  C   UNL     1       5.179  -6.536  26.603  0.00  0.00    +0.029 A 
ATOM     30  C   UNL     1       5.722  -5.861  27.694  0.00  0.00    +0.002 A 
ATOM     31  C   UNL     1       5.508  -4.490  27.846  0.00  0.00    +0.000 A 
ATOM     32  C   UNL     1       4.733  -3.789  26.919  0.00  0.00    +0.002 A 
ATOM     33  C   UNL     1       4.191  -4.456  25.822  0.00  0.00    +0.029 A 
ENDBRANCH  25  28
ENDBRANCH  23  25
ENDBRANCH  19  23
ENDBRANCH   1  17
BRANCH   1  34
ATOM     34  C   UNL     1       8.694  -3.872  25.639  0.00  0.00    +0.001 C 
ATOM     35  C   UNL     1       9.832  -4.535  26.401  0.00  0.00    +0.005 C 
ATOM     36  C   UNL     1       8.692  -5.366  25.895  0.00  0.00    +0.005 C 
ENDBRANCH   1  34
TORSDOF 7
ENDMDL
MODEL 4
REMARK VINA RESULT:      -7.7      2.063      4.293
REMARK  Name = 
REMARK  7 active torsions:
REMARK  status: ('A' for Active; 'I' for Inactive)
REMARK    1  A    between atoms: O_1  and  C_2
REMARK    2  A    between atoms: C_3  and  C_4
REMARK    3  A    between atoms: C_4  and  C_6
REMARK    4  A    between atoms: C_4  and  C_9
REMARK    5  A    between atoms: C_13  and  N_14
REMARK    6  A    between atoms: N_14  and  S_15
REMARK    7  A    between atoms: S_15  and  C_18
REMARK                            x       y       z     vdW  Elec       q    Type
REMARK                         _______ _______ _______ _____ _____    ______ ____
ROOT
ATOM      1  C   UNL     1       8.260  -1.338  25.764  0.00  0.00    +0.063 C 
ENDROOT
BRANCH   1  14
ATOM      2  C   UNL     1       9.145   0.084  23.776  0.00  0.00    +0.134 A 
ATOM      3  C   UNL     1       8.853   1.108  22.790  0.00  0.00    +0.033 A 
ATOM      4  C   UNL     1       9.978   1.897  22.169  0.00  0.00    +0.042 C 
ATOM      5  C   UNL     1      10.645   2.918  23.090  0.00  0.00    +0.005 C 
ATOM      6  C   UNL     1       9.807   3.976  23.827  0.00  0.00    +0.000 C 
ATOM      7  C   UNL     1       8.277   3.984  23.767  0.00  0.00    +0.000 C 
ATOM      8  C   UNL     1       7.685   3.990  22.352  0.00  0.00    +0.008 C 
ATOM      9  C   UNL     1       7.084   2.656  21.857  0.00  0.00    +0.075 C 
ATOM     10  C   UNL     1       7.565   1.414  22.562  0.00  0.00    +0.116 A 
ATOM     11  O   UNL     1       6.525   0.616  23.078  0.00  0.00    -0.427 OA
ATOM     12  C   UNL     1       6.841  -0.524  23.761  0.00  0.00    +0.344 A 
ATOM     13  O   UNL     1       6.043  -1.448  23.858  0.00  0.00    -0.245 OA
ATOM     14  C   UNL     1       8.163  -0.554  24.444  0.00  0.00    +0.086 A 
BRANCH   2  15
ATOM     15  O   UNL     1      10.484  -0.057  24.043  0.00  0.00    -0.506 OA
ATOM     16  H   UNL     1      10.590  -0.697  24.764  0.00  0.00    +0.292 HD
ENDBRANCH   2  15
ENDBRANCH   1  14
BRANCH   1  17
ATOM     17  C   UNL     1       8.340  -2.871  25.628  0.00  0.00    -0.038 A 
ATOM     18  C   UNL     1       8.130  -3.753  26.705  0.00  0.00    +0.028 A 
ATOM     19  C   UNL     1       8.067  -5.131  26.489  0.00  0.00    +0.048 A 
ATOM     20  C   UNL     1       8.363  -5.663  25.237  0.00  0.00    +0.024 A 
ATOM     21  C   UNL     1       8.654  -4.809  24.175  0.00  0.00    +0.002 A 
ATOM     22  C   UNL     1       8.618  -3.425  24.364  0.00  0.00    +0.004 A 
BRANCH  19  23
ATOM     23  N   UNL     1       7.637  -5.997  27.531  0.00  0.00    -0.216 N 
ATOM     24  H   UNL     1       8.034  -6.936  27.536  0.00  0.00    +0.174 HD
BRANCH  23  25
ATOM     25  S   UNL     1       6.041  -5.957  28.061  0.00  0.00    +0.072 S 
ATOM     26  O   UNL     1       5.855  -4.850  28.972  0.00  0.00    -0.150 OA
ATOM     27  O   UNL     1       5.702  -7.310  28.445  0.00  0.00    -0.150 OA
BRANCH  25  28
ATOM     28  C   UNL     1       5.156  -5.600  26.561  0.00  0.00    +0.108 A 
ATOM     29  C   UNL     1       4.694  -4.303  26.328  0.00  0.00    +0.029 A 
ATOM     30  C   UNL     1       4.029  -4.019  25.136  0.00  0.00    +0.002 A 
ATOM     31  C   UNL     1       3.816  -5.029  24.197  0.00  0.00    +0.000 A 
ATOM     32  C   UNL     1       4.248  -6.332  24.451  0.00  0.00    +0.002 A 
ATOM     33  C   UNL     1       4.917  -6.623  25.638  0.00  0.00    +0.029 A 
ENDBRANCH  25  28
ENDBRANCH  23  25
ENDBRANCH  19  23
ENDBRANCH   1  17
BRANCH   1  34
ATOM     34  C   UNL     1       7.211  -0.970  26.828  0.00  0.00    +0.001 C 
ATOM     35  C   UNL     1       6.435   0.335  26.928  0.00  0.00    +0.005 C 
ATOM     36  C   UNL     1       7.535   0.045  27.905  0.00  0.00    +0.005 C 
ENDBRANCH   1  34
TORSDOF 7
ENDMDL
MODEL 5
REMARK VINA RESULT:      -7.7      3.022      7.315
REMARK  Name = 
REMARK  7 active torsions:
REMARK  status: ('A' for Active; 'I' for Inactive)
REMARK    1  A    between atoms: O_1  and  C_2
REMARK    2  A    between atoms: C_3  and  C_4
REMARK    3  A    between atoms: C_4  and  C_6
REMARK    4  A    between atoms: C_4  and  C_9
REMARK    5  A    between atoms: C_13  and  N_14
REMARK    6  A    between atoms: N_14  and  S_15
REMARK    7  A    between atoms: S_15  and  C_18
REMARK                            x       y       z     vdW  Elec       q    Type
REMARK                         _______ _______ _______ _____ _____    ______ ____
ROOT
ATOM      1  C   UNL     1       7.989  -2.121  25.221  0.00  0.00    +0.063 C 
ENDROOT
BRANCH   1  14
ATOM      2  C   UNL     1       6.576  -4.080  24.260  0.00  0.00    +0.134 A 
ATOM      3  C   UNL     1       5.788  -5.265  24.546  0.00  0.00    +0.033 A 
ATOM      4  C   UNL     1       4.768  -5.750  23.546  0.00  0.00    +0.042 C 
ATOM      5  C   UNL     1       3.509  -4.892  23.429  0.00  0.00    +0.005 C 
ATOM      6  C   UNL     1       2.677  -4.545  24.676  0.00  0.00    +0.000 C 
ATOM      7  C   UNL     1       3.127  -4.937  26.086  0.00  0.00    +0.000 C 
ATOM      8  C   UNL     1       3.438  -6.428  26.275  0.00  0.00    +0.008 C 
ATOM      9  C   UNL     1       4.933  -6.809  26.357  0.00  0.00    +0.075 C 
ATOM     10  C   UNL     1       5.901  -5.816  25.766  0.00  0.00    +0.116 A 
ATOM     11  O   UNL     1       6.914  -5.412  26.657  0.00  0.00    -0.427 OA
ATOM     12  C   UNL     1       7.835  -4.494  26.240  0.00  0.00    +0.344 A 
ATOM     13  O   UNL     1       8.939  -4.418  26.765  0.00  0.00    -0.245 OA
ATOM     14  C   UNL     1       7.405  -3.544  25.178  0.00  0.00    +0.086 A 
BRANCH   2  15
ATOM     15  O   UNL     1       6.288  -3.508  23.045  0.00  0.00    -0.506 OA
ATOM     16  H   UNL     1       6.590  -2.586  23.058  0.00  0.00    +0.292 HD
ENDBRANCH   2  15
ENDBRANCH   1  14
BRANCH   1  17
ATOM     17  C   UNL     1       6.981  -0.991  25.507  0.00  0.00    -0.038 A 
ATOM     18  C   UNL     1       6.722   0.058  24.606  0.00  0.00    +0.028 A 
ATOM     19  C   UNL     1       5.692   0.967  24.856  0.00  0.00    +0.048 A 
ATOM     20  C   UNL     1       5.009   0.943  26.068  0.00  0.00    +0.024 A 
ATOM     21  C   UNL     1       5.307  -0.040  27.009  0.00  0.00    +0.002 A 
ATOM     22  C   UNL     1       6.266  -1.013  26.721  0.00  0.00    +0.004 A 
BRANCH  19  23
ATOM     23  N   UNL     1       5.290   1.884  23.846  0.00  0.00    -0.216 N 
ATOM     24  H   UNL     1       4.966   1.480  22.968  0.00  0.00    +0.174 HD
BRANCH  23  25
ATOM     25  S   UNL     1       6.122   3.332  23.637  0.00  0.00    +0.072 S 
ATOM     26  O   UNL     1       6.297   3.986  24.914  0.00  0.00    -0.150 OA
ATOM     27  O   UNL     1       5.490   4.010  22.526  0.00  0.00    -0.150 OA
BRANCH  25  28
ATOM     28  C   UNL     1       7.712   2.772  23.073  0.00  0.00    +0.108 A 
ATOM     29  C   UNL     1       8.858   3.120  23.793  0.00  0.00    +0.029 A 
ATOM     30  C   UNL     1      10.100   2.652  23.366  0.00  0.00    +0.002 A 
ATOM     31  C   UNL     1      10.193   1.859  22.222  0.00  0.00    +0.000 A 
ATOM     32  C   UNL     1       9.049   1.545  21.485  0.00  0.00    +0.002 A 
ATOM     33  C   UNL     1       7.803   2.004  21.907  0.00  0.00    +0.029 A 
ENDBRANCH  25  28
ENDBRANCH  23  25
ENDBRANCH  19  23
ENDBRANCH   1  17
BRANCH   1  34
ATOM     34  C   UNL     1       8.868  -1.734  24.018  0.00  0.00    +0.001 C 
ATOM     35  C   UNL     1      10.194  -2.366  23.619  0.00  0.00    +0.005 C 
ATOM     36  C   UNL     1      10.175  -0.997  24.231  0.00  0.00    +0.005 C 
ENDBRANCH   1  34
TORSDOF 7
ENDMDL
MODEL 6
REMARK VINA RESULT:      -7.6      3.442      7.791
REMARK  Name = 
REMARK  7 active torsions:
REMARK  status: ('A' for Active; 'I' for Inactive)
REMARK    1  A    between atoms: O_1  and  C_2
REMARK    2  A    between atoms: C_3  and  C_4
REMARK    3  A    between atoms: C_4  and  C_6
REMARK    4  A    between atoms: C_4  and  C_9
REMARK    5  A    between atoms: C_13  and  N_14
REMARK    6  A    between atoms: N_14  and  S_15
REMARK    7  A    between atoms: S_15  and  C_18
REMARK                            x       y       z     vdW  Elec       q    Type
REMARK                         _______ _______ _______ _____ _____    ______ ____
ROOT
ATOM      1  C   UNL     1       7.439  -2.672  23.935  0.00  0.00    +0.063 C 
ENDROOT
BRANCH   1  14
ATOM      2  C   UNL     1       4.943  -2.866  24.636  0.00  0.00    +0.134 A 
ATOM      3  C   UNL     1       3.708  -3.621  24.534  0.00  0.00    +0.033 A 
ATOM      4  C   UNL     1       2.655  -3.490  25.606  0.00  0.00    +0.042 C 
ATOM      5  C   UNL     1       2.996  -4.152  26.940  0.00  0.00    +0.005 C 
ATOM      6  C   UNL     1       3.409  -5.632  26.999  0.00  0.00    +0.000 C 
ATOM      7  C   UNL     1       3.609  -6.469  25.732  0.00  0.00    +0.000 C 
ATOM      8  C   UNL     1       2.417  -6.475  24.766  0.00  0.00    +0.008 C 
ATOM      9  C   UNL     1       2.571  -5.622  23.487  0.00  0.00    +0.075 C 
ATOM     10  C   UNL     1       3.601  -4.524  23.545  0.00  0.00    +0.116 A 
ATOM     11  O   UNL     1       4.547  -4.577  22.502  0.00  0.00    -0.427 OA
ATOM     12  C   UNL     1       5.546  -3.646  22.466  0.00  0.00    +0.344 A 
ATOM     13  O   UNL     1       6.117  -3.368  21.419  0.00  0.00    -0.245 OA
ATOM     14  C   UNL     1       5.957  -3.050  23.767  0.00  0.00    +0.086 A 
BRANCH   2  15
ATOM     15  O   UNL     1       5.014  -2.075  25.756  0.00  0.00    -0.506 OA
ATOM     16  H   UNL     1       4.364  -1.360  25.671  0.00  0.00    +0.292 HD
ENDBRANCH   2  15
ENDBRANCH   1  14
BRANCH   1  17
ATOM     17  C   UNL     1       7.919  -1.461  23.112  0.00  0.00    -0.038 A 
ATOM     18  C   UNL     1       7.395  -0.164  23.270  0.00  0.00    +0.028 A 
ATOM     19  C   UNL     1       7.973   0.918  22.602  0.00  0.00    +0.048 A 
ATOM     20  C   UNL     1       8.973   0.712  21.658  0.00  0.00    +0.024 A 
ATOM     21  C   UNL     1       9.450  -0.577  21.428  0.00  0.00    +0.002 A 
ATOM     22  C   UNL     1       8.945  -1.649  22.166  0.00  0.00    +0.004 A 
BRANCH  19  23
ATOM     23  N   UNL     1       7.587   2.246  22.932  0.00  0.00    -0.216 N 
ATOM     24  H   UNL     1       7.624   2.932  22.178  0.00  0.00    +0.174 HD
BRANCH  23  25
ATOM     25  S   UNL     1       7.987   2.897  24.431  0.00  0.00    +0.072 S 
ATOM     26  O   UNL     1       8.428   1.846  25.320  0.00  0.00    -0.150 OA
ATOM     27  O   UNL     1       6.902   3.783  24.796  0.00  0.00    -0.150 OA
BRANCH  25  28
ATOM     28  C   UNL     1       9.388   3.918  24.036  0.00  0.00    +0.108 A 
ATOM     29  C   UNL     1      10.582   3.319  23.628  0.00  0.00    +0.029 A 
ATOM     30  C   UNL     1      11.667   4.123  23.287  0.00  0.00    +0.002 A 
ATOM     31  C   UNL     1      11.562   5.513  23.370  0.00  0.00    +0.000 A 
ATOM     32  C   UNL     1      10.378   6.105  23.814  0.00  0.00    +0.002 A 
ATOM     33  C   UNL     1       9.286   5.308  24.152  0.00  0.00    +0.029 A 
ENDBRANCH  25  28
ENDBRANCH  23  25
ENDBRANCH  19  23
ENDBRANCH   1  17
BRANCH   1  34
ATOM     34  C   UNL     1       8.438  -3.832  23.774  0.00  0.00    +0.001 C 
ATOM     35  C   UNL     1       8.416  -5.161  24.515  0.00  0.00    +0.005 C 
ATOM     36  C   UNL     1       9.448  -4.130  24.863  0.00  0.00    +0.005 C 
ENDBRANCH   1  34
TORSDOF 7
ENDMDL
MODEL 7
REMARK VINA RESULT:      -7.6      2.740      5.078
REMARK  Name = 
REMARK  7 active torsions:
REMARK  status: ('A' for Active; 'I' for Inactive)
REMARK    1  A    between atoms: O_1  and  C_2
REMARK    2  A    between atoms: C_3  and  C_4
REMARK    3  A    between atoms: C_4  and  C_6
REMARK    4  A    between atoms: C_4  and  C_9
REMARK    5  A    between atoms: C_13  and  N_14
REMARK    6  A    between atoms: N_14  and  S_15
REMARK    7  A    between atoms: S_15  and  C_18
REMARK                            x       y       z     vdW  Elec       q    Type
REMARK                         _______ _______ _______ _____ _____    ______ ____
ROOT
ATOM      1  C   UNL     1       6.256  -0.667  26.058  0.00  0.00    +0.063 C 
ENDROOT
BRANCH   1  14
ATOM      2  C   UNL     1       6.623   1.143  24.228  0.00  0.00    +0.134 A 
ATOM      3  C   UNL     1       7.340   2.341  23.831  0.00  0.00    +0.033 A 
ATOM      4  C   UNL     1       7.470   2.689  22.369  0.00  0.00    +0.042 C 
ATOM      5  C   UNL     1       8.426   1.804  21.570  0.00  0.00    +0.005 C 
ATOM      6  C   UNL     1       9.876   1.594  22.036  0.00  0.00    +0.000 C 
ATOM      7  C   UNL     1      10.390   2.157  23.365  0.00  0.00    +0.000 C 
ATOM      8  C   UNL     1      10.174   3.664  23.556  0.00  0.00    +0.008 C 
ATOM      9  C   UNL     1       9.044   4.074  24.525  0.00  0.00    +0.075 C 
ATOM     10  C   UNL     1       7.985   3.034  24.783  0.00  0.00    +0.116 A 
ATOM     11  O   UNL     1       7.786   2.753  26.149  0.00  0.00    -0.427 OA
ATOM     12  C   UNL     1       6.867   1.807  26.504  0.00  0.00    +0.344 A 
ATOM     13  O   UNL     1       6.347   1.810  27.613  0.00  0.00    -0.245 OA
ATOM     14  C   UNL     1       6.592   0.732  25.512  0.00  0.00    +0.086 A 
BRANCH   2  15
ATOM     15  O   UNL     1       6.118   0.428  23.171  0.00  0.00    -0.506 OA
ATOM     16  H   UNL     1       5.161   0.582  23.122  0.00  0.00    +0.292 HD
ENDBRANCH   2  15
ENDBRANCH   1  14
BRANCH   1  17
ATOM     17  C   UNL     1       7.050  -1.835  25.443  0.00  0.00    -0.038 A 
ATOM     18  C   UNL     1       6.729  -2.418  24.203  0.00  0.00    +0.028 A 
ATOM     19  C   UNL     1       7.574  -3.372  23.629  0.00  0.00    +0.048 A 
ATOM     20  C   UNL     1       8.660  -3.870  24.341  0.00  0.00    +0.024 A 
ATOM     21  C   UNL     1       8.949  -3.363  25.606  0.00  0.00    +0.002 A 
ATOM     22  C   UNL     1       8.166  -2.337  26.141  0.00  0.00    +0.004 A 
BRANCH  19  23
ATOM     23  N   UNL     1       7.366  -3.792  22.288  0.00  0.00    -0.216 N 
ATOM     24  H   UNL     1       7.145  -3.063  21.611  0.00  0.00    +0.174 HD
BRANCH  23  25
ATOM     25  S   UNL     1       6.580  -5.246  21.967  0.00  0.00    +0.072 S 
ATOM     26  O   UNL     1       7.493  -6.350  22.160  0.00  0.00    -0.150 OA
ATOM     27  O   UNL     1       5.875  -5.063  20.717  0.00  0.00    -0.150 OA
BRANCH  25  28
ATOM     28  C   UNL     1       5.357  -5.302  23.256  0.00  0.00    +0.108 A 
ATOM     29  C   UNL     1       5.615  -6.033  24.417  0.00  0.00    +0.029 A 
ATOM     30  C   UNL     1       4.667  -6.049  25.439  0.00  0.00    +0.002 A 
ATOM     31  C   UNL     1       3.467  -5.352  25.290  0.00  0.00    +0.000 A 
ATOM     32  C   UNL     1       3.198  -4.653  24.112  0.00  0.00    +0.002 A 
ATOM     33  C   UNL     1       4.142  -4.629  23.088  0.00  0.00    +0.029 A 
ENDBRANCH  25  28
ENDBRANCH  23  25
ENDBRANCH  19  23
ENDBRANCH   1  17
BRANCH   1  34
ATOM     34  C   UNL     1       4.758  -1.021  26.084  0.00  0.00    +0.001 C 
ATOM     35  C   UNL     1       3.788  -0.788  27.233  0.00  0.00    +0.005 C 
ATOM     36  C   UNL     1       4.259  -2.177  26.926  0.00  0.00    +0.005 C 
ENDBRANCH   1  34
TORSDOF 7
ENDMDL
MODEL 8
REMARK VINA RESULT:      -7.5      2.896      4.911
REMARK  Name = 
REMARK  7 active torsions:
REMARK  status: ('A' for Active; 'I' for Inactive)
REMARK    1  A    between atoms: O_1  and  C_2
REMARK    2  A    between atoms: C_3  and  C_4
REMARK    3  A    between atoms: C_4  and  C_6
REMARK    4  A    between atoms: C_4  and  C_9
REMARK    5  A    between atoms: C_13  and  N_14
REMARK    6  A    between atoms: N_14  and  S_15
REMARK    7  A    between atoms: S_15  and  C_18
REMARK                            x       y       z     vdW  Elec       q    Type
REMARK                         _______ _______ _______ _____ _____    ______ ____
ROOT
ATOM      1  C   UNL     1       8.345  -0.381  23.168  0.00  0.00    +0.063 C 
ENDROOT
BRANCH   1  14
ATOM      2  C   UNL     1       8.576   2.009  24.162  0.00  0.00    +0.134 A 
ATOM      3  C   UNL     1       8.141   3.394  24.112  0.00  0.00    +0.033 A 
ATOM      4  C   UNL     1       8.299   4.276  25.325  0.00  0.00    +0.042 C 
ATOM      5  C   UNL     1       7.343   3.977  26.479  0.00  0.00    +0.005 C 
ATOM      6  C   UNL     1       5.824   3.926  26.246  0.00  0.00    +0.000 C 
ATOM      7  C   UNL     1       5.213   4.055  24.847  0.00  0.00    +0.000 C 
ATOM      8  C   UNL     1       5.647   5.301  24.064  0.00  0.00    +0.008 C 
ATOM      9  C   UNL     1       6.667   5.071  22.927  0.00  0.00    +0.075 C 
ATOM     10  C   UNL     1       7.483   3.807  23.017  0.00  0.00    +0.116 A 
ATOM     11  O   UNL     1       7.418   3.006  21.860  0.00  0.00    -0.427 OA
ATOM     12  C   UNL     1       8.098   1.822  21.835  0.00  0.00    +0.344 A 
ATOM     13  O   UNL     1       8.434   1.304  20.777  0.00  0.00    -0.245 OA
ATOM     14  C   UNL     1       8.338   1.157  23.145  0.00  0.00    +0.086 A 
BRANCH   2  15
ATOM     15  O   UNL     1       9.110   1.644  25.373  0.00  0.00    -0.506 OA
ATOM     16  H   UNL     1       9.455   0.740  25.299  0.00  0.00    +0.292 HD
ENDBRANCH   2  15
ENDBRANCH   1  14
BRANCH   1  17
ATOM     17  C   UNL     1       7.105  -1.048  23.794  0.00  0.00    -0.038 A 
ATOM     18  C   UNL     1       6.344  -2.032  23.136  0.00  0.00    +0.028 A 
ATOM     19  C   UNL     1       5.322  -2.705  23.810  0.00  0.00    +0.048 A 
ATOM     20  C   UNL     1       4.942  -2.309  25.089  0.00  0.00    +0.024 A 
ATOM     21  C   UNL     1       5.633  -1.281  25.728  0.00  0.00    +0.002 A 
ATOM     22  C   UNL     1       6.719  -0.674  25.096  0.00  0.00    +0.004 A 
BRANCH  19  23
ATOM     23  N   UNL     1       4.708  -3.842  23.220  0.00  0.00    -0.216 N 
ATOM     24  H   UNL     1       3.699  -3.930  23.342  0.00  0.00    +0.174 HD
BRANCH  23  25
ATOM     25  S   UNL     1       5.500  -5.327  23.214  0.00  0.00    +0.072 S 
ATOM     26  O   UNL     1       6.615  -5.284  22.296  0.00  0.00    -0.150 OA
ATOM     27  O   UNL     1       4.472  -6.339  23.101  0.00  0.00    -0.150 OA
BRANCH  25  28
ATOM     28  C   UNL     1       6.143  -5.415  24.869  0.00  0.00    +0.108 A 
ATOM     29  C   UNL     1       7.470  -5.054  25.111  0.00  0.00    +0.029 A 
ATOM     30  C   UNL     1       7.961  -5.093  26.415  0.00  0.00    +0.002 A 
ATOM     31  C   UNL     1       7.135  -5.505  27.462  0.00  0.00    +0.000 A 
ATOM     32  C   UNL     1       5.820  -5.900  27.209  0.00  0.00    +0.002 A 
ATOM     33  C   UNL     1       5.320  -5.860  25.909  0.00  0.00    +0.029 A 
ENDBRANCH  25  28
ENDBRANCH  23  25
ENDBRANCH  19  23
ENDBRANCH   1  17
BRANCH   1  34
ATOM     34  C   UNL     1       9.620  -1.026  23.742  0.00  0.00    +0.001 C 
ATOM     35  C   UNL     1      10.695  -1.768  22.961  0.00  0.00    +0.005 C 
ATOM     36  C   UNL     1       9.744  -2.533  23.831  0.00  0.00    +0.005 C 
ENDBRANCH   1  34
TORSDOF 7
ENDMDL
MODEL 9
REMARK VINA RESULT:      -7.4      2.209      4.876
REMARK  Name = 
REMARK  7 active torsions:
REMARK  status: ('A' for Active; 'I' for Inactive)
REMARK    1  A    between atoms: O_1  and  C_2
REMARK    2  A    between atoms: C_3  and  C_4
REMARK    3  A    between atoms: C_4  and  C_6
REMARK    4  A    between atoms: C_4  and  C_9
REMARK    5  A    between atoms: C_13  and  N_14
REMARK    6  A    between atoms: N_14  and  S_15
REMARK    7  A    between atoms: S_15  and  C_18
REMARK                            x       y       z     vdW  Elec       q    Type
REMARK                         _______ _______ _______ _____ _____    ______ ____
ROOT
ATOM      1  C   UNL     1       5.909  -1.403  26.895  0.00  0.00    +0.063 C 
ENDROOT
BRANCH   1  14
ATOM      2  C   UNL     1       6.584  -0.145  24.723  0.00  0.00    +0.134 A 
ATOM      3  C   UNL     1       7.465   0.831  24.108  0.00  0.00    +0.033 A 
ATOM      4  C   UNL     1       7.702   0.798  22.619  0.00  0.00    +0.042 C 
ATOM      5  C   UNL     1       8.571  -0.358  22.123  0.00  0.00    +0.005 C 
ATOM      6  C   UNL     1       9.960  -0.612  22.731  0.00  0.00    +0.000 C 
ATOM      7  C   UNL     1      10.484   0.193  23.923  0.00  0.00    +0.000 C 
ATOM      8  C   UNL     1      10.455   1.716  23.738  0.00  0.00    +0.008 C 
ATOM      9  C   UNL     1       9.345   2.476  24.498  0.00  0.00    +0.075 C 
ATOM     10  C   UNL     1       8.151   1.657  24.915  0.00  0.00    +0.116 A 
ATOM     11  O   UNL     1       7.859   1.740  26.291  0.00  0.00    -0.427 OA
ATOM     12  C   UNL     1       6.812   1.019  26.790  0.00  0.00    +0.344 A 
ATOM     13  O   UNL     1       6.249   1.350  27.826  0.00  0.00    -0.245 OA
ATOM     14  C   UNL     1       6.445  -0.226  26.061  0.00  0.00    +0.086 A 
BRANCH   2  15
ATOM     15  O   UNL     1       6.038  -1.033  23.830  0.00  0.00    -0.506 OA
ATOM     16  H   UNL     1       6.138  -0.671  22.935  0.00  0.00    +0.292 HD
ENDBRANCH   2  15
ENDBRANCH   1  14
BRANCH   1  17
ATOM     17  C   UNL     1       6.577  -2.767  26.636  0.00  0.00    -0.038 A 
ATOM     18  C   UNL     1       5.869  -3.984  26.630  0.00  0.00    +0.028 A 
ATOM     19  C   UNL     1       6.500  -5.168  26.242  0.00  0.00    +0.048 A 
ATOM     20  C   UNL     1       7.871  -5.190  26.004  0.00  0.00    +0.024 A 
ATOM     21  C   UNL     1       8.605  -4.009  26.084  0.00  0.00    +0.002 A 
ATOM     22  C   UNL     1       7.960  -2.805  26.373  0.00  0.00    +0.004 A 
BRANCH  19  23
ATOM     23  N   UNL     1       5.734  -6.345  26.024  0.00  0.00    -0.216 N 
ATOM     24  H   UNL     1       6.241  -7.230  26.052  0.00  0.00    +0.174 HD
BRANCH  23  25
ATOM     25  S   UNL     1       4.477  -6.343  24.906  0.00  0.00    +0.072 S 
ATOM     26  O   UNL     1       3.410  -5.484  25.369  0.00  0.00    -0.150 OA
ATOM     27  O   UNL     1       4.231  -7.728  24.564  0.00  0.00    -0.150 OA
BRANCH  25  28
ATOM     28  C   UNL     1       5.234  -5.579  23.491  0.00  0.00    +0.108 A 
ATOM     29  C   UNL     1       6.174  -6.294  22.745  0.00  0.00    +0.029 A 
ATOM     30  C   UNL     1       6.741  -5.704  21.617  0.00  0.00    +0.002 A 
ATOM     31  C   UNL     1       6.382  -4.405  21.251  0.00  0.00    +0.000 A 
ATOM     32  C   UNL     1       5.470  -3.682  22.022  0.00  0.00    +0.002 A 
ATOM     33  C   UNL     1       4.894  -4.266  23.148  0.00  0.00    +0.029 A 
ENDBRANCH  25  28
ENDBRANCH  23  25
ENDBRANCH  19  23
ENDBRANCH   1  17
BRANCH   1  34
ATOM     34  C   UNL     1       4.378  -1.570  26.890  0.00  0.00    +0.001 C 
ATOM     35  C   UNL     1       3.346  -0.508  27.239  0.00  0.00    +0.005 C 
ATOM     36  C   UNL     1       3.610  -1.633  28.195  0.00  0.00    +0.005 C 
ENDBRANCH   1  34
TORSDOF 7
ENDMDL
