MODEL 1
REMARK VINA RESULT:      -6.5      0.000      0.000
REMARK  Name = 
REMARK  6 active torsions:
REMARK  status: ('A' for Active; 'I' for Inactive)
REMARK    1  A    between atoms: O_1  and  C_2
REMARK    2  A    between atoms: C_2  and  C_4
REMARK    3  A    between atoms: C_5  and  C_6
REMARK    4  A    between atoms: C_6  and  N_7
REMARK    5  A    between atoms: N_7  and  C_8
REMARK    6  A    between atoms: C_11  and  C_15
REMARK                            x       y       z     vdW  Elec       q    Type
REMARK                         _______ _______ _______ _____ _____    ______ ____
ROOT
ATOM      1  C   UNL     1       7.333  -4.482  25.661  0.00  0.00    +0.103 C 
ATOM      2  C   UNL     1       8.212  -3.668  25.061  0.00  0.00    +0.165 C 
ATOM      3  C   UNL     1       9.599  -4.082  24.728  0.00  0.00    +0.366 C 
ATOM      4  O   UNL     1      10.176  -5.122  24.967  0.00  0.00    -0.243 OA
ATOM      5  O   UNL     1      10.083  -2.999  24.058  0.00  0.00    -0.402 OA
ATOM      6  C   UNL     1       9.081  -2.086  24.031  0.00  0.00    +0.232 C 
ATOM      7  N   UNL     1       7.963  -2.400  24.602  0.00  0.00    -0.204 NA
ENDROOT
BRANCH   6   8
ATOM      8  C   UNL     1       9.385  -0.819  23.352  0.00  0.00    +0.037 A 
ATOM      9  C   UNL     1       8.969  -0.579  22.037  0.00  0.00    +0.013 A 
ATOM     10  C   UNL     1       9.294   0.628  21.414  0.00  0.00    +0.001 A 
ATOM     11  C   UNL     1      10.025   1.597  22.102  0.00  0.00    +0.000 A 
ATOM     12  C   UNL     1      10.430   1.366  23.416  0.00  0.00    +0.001 A 
ATOM     13  C   UNL     1      10.111   0.160  24.042  0.00  0.00    +0.013 A 
ENDBRANCH   6   8
BRANCH   1  14
ATOM     14  N   UNL     1       6.006  -4.212  25.962  0.00  0.00    -0.344 N 
ATOM     15  H   UNL     1       5.847  -3.222  26.137  0.00  0.00    +0.146 HD
BRANCH  14  16
ATOM     16  C   UNL     1       4.915  -4.766  25.164  0.00  0.00    +0.128 C 
BRANCH  16  18
ATOM     17  C   UNL     1       5.394  -4.983  22.695  0.00  0.00    +0.088 C 
ATOM     18  C   UNL     1       5.450  -5.459  23.949  0.00  0.00    -0.001 C 
BRANCH  17  19
ATOM     19  C   UNL     1       5.912  -5.760  21.557  0.00  0.00    +0.329 C 
ATOM     20  O   UNL     1       5.935  -5.377  20.403  0.00  0.00    -0.246 OA
BRANCH  19  21
ATOM     21  O   UNL     1       6.374  -6.965  21.954  0.00  0.00    -0.478 OA
ATOM     22  H   UNL     1       5.867  -7.724  21.609  0.00  0.00    +0.295 HD
ENDBRANCH  19  21
ENDBRANCH  17  19
ENDBRANCH  16  18
ENDBRANCH  14  16
ENDBRANCH   1  14
TORSDOF 6
ENDMDL
MODEL 2
REMARK VINA RESULT:      -6.4      2.198      2.590
REMARK  Name = 
REMARK  6 active torsions:
REMARK  status: ('A' for Active; 'I' for Inactive)
REMARK    1  A    between atoms: O_1  and  C_2
REMARK    2  A    between atoms: C_2  and  C_4
REMARK    3  A    between atoms: C_5  and  C_6
REMARK    4  A    between atoms: C_6  and  N_7
REMARK    5  A    between atoms: N_7  and  C_8
REMARK    6  A    between atoms: C_11  and  C_15
REMARK                            x       y       z     vdW  Elec       q    Type
REMARK                         _______ _______ _______ _____ _____    ______ ____
ROOT
ATOM      1  C   UNL     1       7.507  -4.591  22.914  0.00  0.00    +0.103 C 
ATOM      2  C   UNL     1       8.267  -3.549  23.277  0.00  0.00    +0.165 C 
ATOM      3  C   UNL     1       9.375  -3.662  24.259  0.00  0.00    +0.366 C 
ATOM      4  O   UNL     1       9.737  -4.618  24.914  0.00  0.00    -0.243 OA
ATOM      5  O   UNL     1       9.917  -2.412  24.245  0.00  0.00    -0.402 OA
ATOM      6  C   UNL     1       9.187  -1.688  23.361  0.00  0.00    +0.232 C 
ATOM      7  N   UNL     1       8.205  -2.280  22.763  0.00  0.00    -0.204 NA
ENDROOT
BRANCH   6   8
ATOM      8  C   UNL     1       9.598  -0.288  23.184  0.00  0.00    +0.037 A 
ATOM      9  C   UNL     1       9.390   0.385  21.975  0.00  0.00    +0.013 A 
ATOM     10  C   UNL     1       9.813   1.708  21.834  0.00  0.00    +0.001 A 
ATOM     11  C   UNL     1      10.433   2.363  22.899  0.00  0.00    +0.000 A 
ATOM     12  C   UNL     1      10.630   1.699  24.109  0.00  0.00    +0.001 A 
ATOM     13  C   UNL     1      10.213   0.376  24.254  0.00  0.00    +0.013 A 
ENDBRANCH   6   8
BRANCH   1  14
ATOM     14  N   UNL     1       6.492  -4.603  21.969  0.00  0.00    -0.344 N 
ATOM     15  H   UNL     1       6.850  -4.494  21.022  0.00  0.00    +0.146 HD
BRANCH  14  16
ATOM     16  C   UNL     1       5.435  -5.611  21.996  0.00  0.00    +0.128 C 
BRANCH  16  18
ATOM     17  C   UNL     1       4.221  -6.564  23.994  0.00  0.00    +0.088 C 
ATOM     18  C   UNL     1       5.355  -6.254  23.346  0.00  0.00    -0.001 C 
BRANCH  17  19
ATOM     19  C   UNL     1       4.245  -7.157  25.341  0.00  0.00    +0.329 C 
ATOM     20  O   UNL     1       4.945  -6.775  26.259  0.00  0.00    -0.246 OA
BRANCH  19  21
ATOM     21  O   UNL     1       3.379  -8.188  25.440  0.00  0.00    -0.478 OA
ATOM     22  H   UNL     1       2.450  -7.922  25.569  0.00  0.00    +0.295 HD
ENDBRANCH  19  21
ENDBRANCH  17  19
ENDBRANCH  16  18
ENDBRANCH  14  16
ENDBRANCH   1  14
TORSDOF 6
ENDMDL
MODEL 3
REMARK VINA RESULT:      -6.4      2.331      3.433
REMARK  Name = 
REMARK  6 active torsions:
REMARK  status: ('A' for Active; 'I' for Inactive)
REMARK    1  A    between atoms: O_1  and  C_2
REMARK    2  A    between atoms: C_2  and  C_4
REMARK    3  A    between atoms: C_5  and  C_6
REMARK    4  A    between atoms: C_6  and  N_7
REMARK    5  A    between atoms: N_7  and  C_8
REMARK    6  A    between atoms: C_11  and  C_15
REMARK                            x       y       z     vdW  Elec       q    Type
REMARK                         _______ _______ _______ _____ _____    ______ ____
ROOT
ATOM      1  C   UNL     1       7.237  -5.053  24.331  0.00  0.00    +0.103 C 
ATOM      2  C   UNL     1       8.127  -4.063  24.190  0.00  0.00    +0.165 C 
ATOM      3  C   UNL     1       9.559  -4.206  24.558  0.00  0.00    +0.366 C 
ATOM      4  O   UNL     1      10.139  -5.142  25.070  0.00  0.00    -0.243 OA
ATOM      5  O   UNL     1      10.091  -3.016  24.164  0.00  0.00    -0.402 OA
ATOM      6  C   UNL     1       9.069  -2.292  23.645  0.00  0.00    +0.232 C 
ATOM      7  N   UNL     1       7.894  -2.832  23.633  0.00  0.00    -0.204 NA
ENDROOT
BRANCH   6   8
ATOM      8  C   UNL     1       9.416  -0.952  23.152  0.00  0.00    +0.037 A 
ATOM      9  C   UNL     1      10.123  -0.043  23.949  0.00  0.00    +0.013 A 
ATOM     10  C   UNL     1      10.417   1.230  23.457  0.00  0.00    +0.001 A 
ATOM     11  C   UNL     1      10.016   1.595  22.171  0.00  0.00    +0.000 A 
ATOM     12  C   UNL     1       9.324   0.687  21.371  0.00  0.00    +0.001 A 
ATOM     13  C   UNL     1       9.024  -0.585  21.859  0.00  0.00    +0.013 A 
ENDBRANCH   6   8
BRANCH   1  14
ATOM     14  N   UNL     1       5.898  -5.040  23.966  0.00  0.00    -0.344 N 
ATOM     15  H   UNL     1       5.761  -5.348  23.005  0.00  0.00    +0.146 HD
BRANCH  14  16
ATOM     16  C   UNL     1       4.866  -5.603  24.831  0.00  0.00    +0.128 C 
BRANCH  16  18
ATOM     17  C   UNL     1       5.040  -5.830  27.339  0.00  0.00    +0.088 C 
ATOM     18  C   UNL     1       5.467  -6.122  26.099  0.00  0.00    -0.001 C 
BRANCH  17  19
ATOM     19  C   UNL     1       5.726  -6.359  28.530  0.00  0.00    +0.329 C 
ATOM     20  O   UNL     1       6.383  -5.695  29.308  0.00  0.00    -0.246 OA
BRANCH  19  21
ATOM     21  O   UNL     1       5.529  -7.687  28.662  0.00  0.00    -0.478 OA
ATOM     22  H   UNL     1       5.272  -7.969  29.559  0.00  0.00    +0.295 HD
ENDBRANCH  19  21
ENDBRANCH  17  19
ENDBRANCH  16  18
ENDBRANCH  14  16
ENDBRANCH   1  14
TORSDOF 6
ENDMDL
MODEL 4
REMARK VINA RESULT:      -6.4      3.823      7.910
REMARK  Name = 
REMARK  6 active torsions:
REMARK  status: ('A' for Active; 'I' for Inactive)
REMARK    1  A    between atoms: O_1  and  C_2
REMARK    2  A    between atoms: C_2  and  C_4
REMARK    3  A    between atoms: C_5  and  C_6
REMARK    4  A    between atoms: C_6  and  N_7
REMARK    5  A    between atoms: N_7  and  C_8
REMARK    6  A    between atoms: C_11  and  C_15
REMARK                            x       y       z     vdW  Elec       q    Type
REMARK                         _______ _______ _______ _____ _____    ______ ____
ROOT
ATOM      1  C   UNL     1       9.879   0.923  24.778  0.00  0.00    +0.103 C 
ATOM      2  C   UNL     1       9.276  -0.272  24.749  0.00  0.00    +0.165 C 
ATOM      3  C   UNL     1       8.860  -0.998  25.977  0.00  0.00    +0.366 C 
ATOM      4  O   UNL     1       9.026  -0.706  27.143  0.00  0.00    -0.243 OA
ATOM      5  O   UNL     1       8.218  -2.090  25.477  0.00  0.00    -0.402 OA
ATOM      6  C   UNL     1       8.279  -1.986  24.128  0.00  0.00    +0.232 C 
ATOM      7  N   UNL     1       8.886  -0.959  23.628  0.00  0.00    -0.204 NA
ENDROOT
BRANCH   6   8
ATOM      8  C   UNL     1       7.643  -3.075  23.371  0.00  0.00    +0.037 A 
ATOM      9  C   UNL     1       7.989  -4.413  23.590  0.00  0.00    +0.013 A 
ATOM     10  C   UNL     1       7.381  -5.420  22.838  0.00  0.00    +0.001 A 
ATOM     11  C   UNL     1       6.424  -5.096  21.875  0.00  0.00    +0.000 A 
ATOM     12  C   UNL     1       6.069  -3.764  21.664  0.00  0.00    +0.001 A 
ATOM     13  C   UNL     1       6.676  -2.754  22.410  0.00  0.00    +0.013 A 
ENDBRANCH   6   8
BRANCH   1  14
ATOM     14  N   UNL     1      10.253   1.704  23.694  0.00  0.00    -0.344 N 
ATOM     15  H   UNL     1      10.308   1.162  22.834  0.00  0.00    +0.146 HD
BRANCH  14  16
ATOM     16  C   UNL     1       9.630   3.000  23.436  0.00  0.00    +0.128 C 
BRANCH  16  18
ATOM     17  C   UNL     1      11.861   4.163  23.228  0.00  0.00    +0.088 C 
ATOM     18  C   UNL     1      10.601   4.110  23.690  0.00  0.00    -0.001 C 
BRANCH  17  19
ATOM     19  C   UNL     1      12.756   5.282  23.568  0.00  0.00    +0.329 C 
ATOM     20  O   UNL     1      12.409   6.312  24.111  0.00  0.00    -0.246 OA
BRANCH  19  21
ATOM     21  O   UNL     1      14.030   5.019  23.207  0.00  0.00    -0.478 OA
ATOM     22  H   UNL     1      14.518   4.455  23.835  0.00  0.00    +0.295 HD
ENDBRANCH  19  21
ENDBRANCH  17  19
ENDBRANCH  16  18
ENDBRANCH  14  16
ENDBRANCH   1  14
TORSDOF 6
ENDMDL
MODEL 5
REMARK VINA RESULT:      -6.4      1.096      1.669
REMARK  Name = 
REMARK  6 active torsions:
REMARK  status: ('A' for Active; 'I' for Inactive)
REMARK    1  A    between atoms: O_1  and  C_2
REMARK    2  A    between atoms: C_2  and  C_4
REMARK    3  A    between atoms: C_5  and  C_6
REMARK    4  A    between atoms: C_6  and  N_7
REMARK    5  A    between atoms: N_7  and  C_8
REMARK    6  A    between atoms: C_11  and  C_15
REMARK                            x       y       z     vdW  Elec       q    Type
REMARK                         _______ _______ _______ _____ _____    ______ ____
ROOT
ATOM      1  C   UNL     1       7.736  -4.267  26.412  0.00  0.00    +0.103 C 
ATOM      2  C   UNL     1       8.506  -3.567  25.569  0.00  0.00    +0.165 C 
ATOM      3  C   UNL     1       9.661  -4.161  24.847  0.00  0.00    +0.366 C 
ATOM      4  O   UNL     1      10.129  -5.279  24.920  0.00  0.00    -0.243 OA
ATOM      5  O   UNL     1      10.075  -3.137  24.050  0.00  0.00    -0.402 OA
ATOM      6  C   UNL     1       9.250  -2.093  24.307  0.00  0.00    +0.232 C 
ATOM      7  N   UNL     1       8.316  -2.265  25.185  0.00  0.00    -0.204 NA
ENDROOT
BRANCH   6   8
ATOM      8  C   UNL     1       9.518  -0.862  23.550  0.00  0.00    +0.037 A 
ATOM      9  C   UNL     1      10.098   0.256  24.160  0.00  0.00    +0.013 A 
ATOM     10  C   UNL     1      10.319   1.418  23.417  0.00  0.00    +0.001 A 
ATOM     11  C   UNL     1       9.970   1.462  22.066  0.00  0.00    +0.000 A 
ATOM     12  C   UNL     1       9.404   0.345  21.453  0.00  0.00    +0.001 A 
ATOM     13  C   UNL     1       9.178  -0.816  22.192  0.00  0.00    +0.013 A 
ENDBRANCH   6   8
BRANCH   1  14
ATOM     14  N   UNL     1       6.608  -3.824  27.087  0.00  0.00    -0.344 N 
ATOM     15  H   UNL     1       6.505  -2.812  27.035  0.00  0.00    +0.146 HD
BRANCH  14  16
ATOM     16  C   UNL     1       5.312  -4.474  26.915  0.00  0.00    +0.128 C 
BRANCH  16  18
ATOM     17  C   UNL     1       4.535  -5.131  24.605  0.00  0.00    +0.088 C 
ATOM     18  C   UNL     1       5.309  -5.327  25.686  0.00  0.00    -0.001 C 
BRANCH  17  19
ATOM     19  C   UNL     1       4.574  -6.053  23.458  0.00  0.00    +0.329 C 
ATOM     20  O   UNL     1       4.604  -5.713  22.291  0.00  0.00    -0.246 OA
BRANCH  19  21
ATOM     21  O   UNL     1       4.582  -7.340  23.862  0.00  0.00    -0.478 OA
ATOM     22  H   UNL     1       5.153  -7.926  23.330  0.00  0.00    +0.295 HD
ENDBRANCH  19  21
ENDBRANCH  17  19
ENDBRANCH  16  18
ENDBRANCH  14  16
ENDBRANCH   1  14
TORSDOF 6
ENDMDL
MODEL 6
REMARK VINA RESULT:      -6.3      2.817      3.915
REMARK  Name = 
REMARK  6 active torsions:
REMARK  status: ('A' for Active; 'I' for Inactive)
REMARK    1  A    between atoms: O_1  and  C_2
REMARK    2  A    between atoms: C_2  and  C_4
REMARK    3  A    between atoms: C_5  and  C_6
REMARK    4  A    between atoms: C_6  and  N_7
REMARK    5  A    between atoms: N_7  and  C_8
REMARK    6  A    between atoms: C_11  and  C_15
REMARK                            x       y       z     vdW  Elec       q    Type
REMARK                         _______ _______ _______ _____ _____    ______ ____
ROOT
ATOM      1  C   UNL     1       8.177  -4.856  24.256  0.00  0.00    +0.103 C 
ATOM      2  C   UNL     1       8.344  -3.681  23.634  0.00  0.00    +0.165 C 
ATOM      3  C   UNL     1       7.589  -3.299  22.413  0.00  0.00    +0.366 C 
ATOM      4  O   UNL     1       6.791  -3.942  21.762  0.00  0.00    -0.243 OA
ATOM      5  O   UNL     1       7.999  -2.019  22.195  0.00  0.00    -0.402 OA
ATOM      6  C   UNL     1       8.886  -1.728  23.178  0.00  0.00    +0.232 C 
ATOM      7  N   UNL     1       9.144  -2.648  24.049  0.00  0.00    -0.204 NA
ENDROOT
BRANCH   6   8
ATOM      8  C   UNL     1       9.468  -0.379  23.138  0.00  0.00    +0.037 A 
ATOM      9  C   UNL     1      10.107   0.173  24.255  0.00  0.00    +0.013 A 
ATOM     10  C   UNL     1      10.629   1.465  24.189  0.00  0.00    +0.001 A 
ATOM     11  C   UNL     1      10.525   2.205  23.010  0.00  0.00    +0.000 A 
ATOM     12  C   UNL     1       9.900   1.653  21.892  0.00  0.00    +0.001 A 
ATOM     13  C   UNL     1       9.373   0.363  21.954  0.00  0.00    +0.013 A 
ENDBRANCH   6   8
BRANCH   1  14
ATOM     14  N   UNL     1       8.786  -5.282  25.427  0.00  0.00    -0.344 N 
ATOM     15  H   UNL     1       9.799  -5.183  25.389  0.00  0.00    +0.146 HD
BRANCH  14  16
ATOM     16  C   UNL     1       8.287  -4.877  26.739  0.00  0.00    +0.128 C 
BRANCH  16  18
ATOM     17  C   UNL     1       6.386  -5.578  28.244  0.00  0.00    +0.088 C 
ATOM     18  C   UNL     1       6.997  -5.568  27.048  0.00  0.00    -0.001 C 
BRANCH  17  19
ATOM     19  C   UNL     1       5.136  -6.324  28.461  0.00  0.00    +0.329 C 
ATOM     20  O   UNL     1       4.049  -5.820  28.663  0.00  0.00    -0.246 OA
BRANCH  19  21
ATOM     21  O   UNL     1       5.342  -7.657  28.399  0.00  0.00    -0.478 OA
ATOM     22  H   UNL     1       5.508  -8.079  29.263  0.00  0.00    +0.295 HD
ENDBRANCH  19  21
ENDBRANCH  17  19
ENDBRANCH  16  18
ENDBRANCH  14  16
ENDBRANCH   1  14
TORSDOF 6
ENDMDL
MODEL 7
REMARK VINA RESULT:      -6.2      2.977      4.977
REMARK  Name = 
REMARK  6 active torsions:
REMARK  status: ('A' for Active; 'I' for Inactive)
REMARK    1  A    between atoms: O_1  and  C_2
REMARK    2  A    between atoms: C_2  and  C_4
REMARK    3  A    between atoms: C_5  and  C_6
REMARK    4  A    between atoms: C_6  and  N_7
REMARK    5  A    between atoms: N_7  and  C_8
REMARK    6  A    between atoms: C_11  and  C_15
REMARK                            x       y       z     vdW  Elec       q    Type
REMARK                         _______ _______ _______ _____ _____    ______ ____
ROOT
ATOM      1  C   UNL     1       8.052  -0.513  23.806  0.00  0.00    +0.103 C 
ATOM      2  C   UNL     1       8.854   0.498  23.445  0.00  0.00    +0.165 C 
ATOM      3  C   UNL     1       9.569   0.536  22.143  0.00  0.00    +0.366 C 
ATOM      4  O   UNL     1       9.612  -0.293  21.258  0.00  0.00    -0.243 OA
ATOM      5  O   UNL     1      10.169   1.759  22.167  0.00  0.00    -0.402 OA
ATOM      6  C   UNL     1       9.833   2.328  23.350  0.00  0.00    +0.232 C 
ATOM      7  N   UNL     1       9.076   1.652  24.151  0.00  0.00    -0.204 NA
ENDROOT
BRANCH   6   8
ATOM      8  C   UNL     1      10.381   3.670  23.595  0.00  0.00    +0.037 A 
ATOM      9  C   UNL     1      11.712   3.980  23.294  0.00  0.00    +0.013 A 
ATOM     10  C   UNL     1      12.206   5.258  23.560  0.00  0.00    +0.001 A 
ATOM     11  C   UNL     1      11.373   6.229  24.117  0.00  0.00    +0.000 A 
ATOM     12  C   UNL     1      10.043   5.927  24.406  0.00  0.00    +0.001 A 
ATOM     13  C   UNL     1       9.545   4.650  24.145  0.00  0.00    +0.013 A 
ENDBRANCH   6   8
BRANCH   1  14
ATOM     14  N   UNL     1       7.299  -0.616  24.967  0.00  0.00    -0.344 N 
ATOM     15  H   UNL     1       6.376  -1.009  24.790  0.00  0.00    +0.146 HD
BRANCH  14  16
ATOM     16  C   UNL     1       7.861  -1.176  26.193  0.00  0.00    +0.128 C 
BRANCH  16  18
ATOM     17  C   UNL     1       8.155  -3.664  25.880  0.00  0.00    +0.088 C 
ATOM     18  C   UNL     1       8.647  -2.415  25.895  0.00  0.00    -0.001 C 
BRANCH  17  19
ATOM     19  C   UNL     1       9.020  -4.826  25.616  0.00  0.00    +0.329 C 
ATOM     20  O   UNL     1       9.931  -4.848  24.812  0.00  0.00    -0.246 OA
BRANCH  19  21
ATOM     21  O   UNL     1       8.681  -5.877  26.392  0.00  0.00    -0.478 OA
ATOM     22  H   UNL     1       7.860  -6.329  26.121  0.00  0.00    +0.295 HD
ENDBRANCH  19  21
ENDBRANCH  17  19
ENDBRANCH  16  18
ENDBRANCH  14  16
ENDBRANCH   1  14
TORSDOF 6
ENDMDL
MODEL 8
REMARK VINA RESULT:      -6.2      3.042      4.869
REMARK  Name = 
REMARK  6 active torsions:
REMARK  status: ('A' for Active; 'I' for Inactive)
REMARK    1  A    between atoms: O_1  and  C_2
REMARK    2  A    between atoms: C_2  and  C_4
REMARK    3  A    between atoms: C_5  and  C_6
REMARK    4  A    between atoms: C_6  and  N_7
REMARK    5  A    between atoms: N_7  and  C_8
REMARK    6  A    between atoms: C_11  and  C_15
REMARK                            x       y       z     vdW  Elec       q    Type
REMARK                         _______ _______ _______ _____ _____    ______ ____
ROOT
ATOM      1  C   UNL     1       8.359  -0.890  23.854  0.00  0.00    +0.103 C 
ATOM      2  C   UNL     1       9.013   0.205  23.448  0.00  0.00    +0.165 C 
ATOM      3  C   UNL     1       9.525   0.373  22.063  0.00  0.00    +0.366 C 
ATOM      4  O   UNL     1       9.507  -0.403  21.130  0.00  0.00    -0.243 OA
ATOM      5  O   UNL     1      10.019   1.642  22.077  0.00  0.00    -0.402 OA
ATOM      6  C   UNL     1       9.813   2.120  23.329  0.00  0.00    +0.232 C 
ATOM      7  N   UNL     1       9.240   1.338  24.186  0.00  0.00    -0.204 NA
ENDROOT
BRANCH   6   8
ATOM      8  C   UNL     1      10.278   3.492  23.578  0.00  0.00    +0.037 A 
ATOM      9  C   UNL     1       9.407   4.482  24.047  0.00  0.00    +0.013 A 
ATOM     10  C   UNL     1       9.877   5.781  24.252  0.00  0.00    +0.001 A 
ATOM     11  C   UNL     1      11.214   6.090  23.997  0.00  0.00    +0.000 A 
ATOM     12  C   UNL     1      12.086   5.103  23.542  0.00  0.00    +0.001 A 
ATOM     13  C   UNL     1      11.621   3.804  23.332  0.00  0.00    +0.013 A 
ENDBRANCH   6   8
BRANCH   1  14
ATOM     14  N   UNL     1       7.795  -1.120  25.101  0.00  0.00    -0.344 N 
ATOM     15  H   UNL     1       6.863  -1.523  25.030  0.00  0.00    +0.146 HD
BRANCH  14  16
ATOM     16  C   UNL     1       8.548  -1.769  26.171  0.00  0.00    +0.128 C 
BRANCH  16  18
ATOM     17  C   UNL     1       7.265  -3.862  26.758  0.00  0.00    +0.088 C 
ATOM     18  C   UNL     1       8.301  -3.245  26.168  0.00  0.00    -0.001 C 
BRANCH  17  19
ATOM     19  C   UNL     1       7.132  -5.328  26.736  0.00  0.00    +0.329 C 
ATOM     20  O   UNL     1       6.368  -5.948  26.021  0.00  0.00    -0.246 OA
BRANCH  19  21
ATOM     21  O   UNL     1       7.977  -5.912  27.611  0.00  0.00    -0.478 OA
ATOM     22  H   UNL     1       8.885  -6.030  27.275  0.00  0.00    +0.295 HD
ENDBRANCH  19  21
ENDBRANCH  17  19
ENDBRANCH  16  18
ENDBRANCH  14  16
ENDBRANCH   1  14
TORSDOF 6
ENDMDL
MODEL 9
REMARK VINA RESULT:      -6.0      2.055      2.714
REMARK  Name = 
REMARK  6 active torsions:
REMARK  status: ('A' for Active; 'I' for Inactive)
REMARK    1  A    between atoms: O_1  and  C_2
REMARK    2  A    between atoms: C_2  and  C_4
REMARK    3  A    between atoms: C_5  and  C_6
REMARK    4  A    between atoms: C_6  and  N_7
REMARK    5  A    between atoms: N_7  and  C_8
REMARK    6  A    between atoms: C_11  and  C_15
REMARK                            x       y       z     vdW  Elec       q    Type
REMARK                         _______ _______ _______ _____ _____    ______ ____
ROOT
ATOM      1  C   UNL     1       7.719  -4.899  24.714  0.00  0.00    +0.103 C 
ATOM      2  C   UNL     1       8.075  -3.841  23.974  0.00  0.00    +0.165 C 
ATOM      3  C   UNL     1       7.718  -3.702  22.539  0.00  0.00    +0.366 C 
ATOM      4  O   UNL     1       7.140  -4.477  21.805  0.00  0.00    -0.243 OA
ATOM      5  O   UNL     1       8.188  -2.461  22.232  0.00  0.00    -0.402 OA
ATOM      6  C   UNL     1       8.749  -1.973  23.364  0.00  0.00    +0.232 C 
ATOM      7  N   UNL     1       8.729  -2.721  24.419  0.00  0.00    -0.204 NA
ENDROOT
BRANCH   6   8
ATOM      8  C   UNL     1       9.333  -0.627  23.263  0.00  0.00    +0.037 A 
ATOM      9  C   UNL     1       9.305   0.091  22.062  0.00  0.00    +0.013 A 
ATOM     10  C   UNL     1       9.888   1.358  21.996  0.00  0.00    +0.001 A 
ATOM     11  C   UNL     1      10.491   1.912  23.126  0.00  0.00    +0.000 A 
ATOM     12  C   UNL     1      10.509   1.204  24.327  0.00  0.00    +0.001 A 
ATOM     13  C   UNL     1       9.930  -0.064  24.398  0.00  0.00    +0.013 A 
ENDBRANCH   6   8
BRANCH   1  14
ATOM     14  N   UNL     1       7.952  -5.097  26.067  0.00  0.00    -0.344 N 
ATOM     15  H   UNL     1       8.556  -4.378  26.460  0.00  0.00    +0.146 HD
BRANCH  14  16
ATOM     16  C   UNL     1       6.863  -5.403  26.992  0.00  0.00    +0.128 C 
BRANCH  16  18
ATOM     17  C   UNL     1       4.958  -6.817  26.130  0.00  0.00    +0.088 C 
ATOM     18  C   UNL     1       5.587  -5.636  26.245  0.00  0.00    -0.001 C 
BRANCH  17  19
ATOM     19  C   UNL     1       3.725  -6.954  25.336  0.00  0.00    +0.329 C 
ATOM     20  O   UNL     1       2.669  -6.408  25.589  0.00  0.00    -0.246 OA
BRANCH  19  21
ATOM     21  O   UNL     1       3.913  -7.763  24.273  0.00  0.00    -0.478 OA
ATOM     22  H   UNL     1       3.288  -7.615  23.538  0.00  0.00    +0.295 HD
ENDBRANCH  19  21
ENDBRANCH  17  19
ENDBRANCH  16  18
ENDBRANCH  14  16
ENDBRANCH   1  14
TORSDOF 6
ENDMDL
