MODEL 1
REMARK VINA RESULT:      -6.7      0.000      0.000
REMARK  Name = 
REMARK  6 active torsions:
REMARK  status: ('A' for Active; 'I' for Inactive)
REMARK    1  A    between atoms: C_1  and  N_2
REMARK    2  A    between atoms: N_2  and  C_8
REMARK    3  A    between atoms: C_3  and  C_5
REMARK    4  A    between atoms: C_11  and  O_12
REMARK    5  A    between atoms: O_12  and  C_13
REMARK    6  A    between atoms: C_13  and  C_15
REMARK                            x       y       z     vdW  Elec       q    Type
REMARK                         _______ _______ _______ _____ _____    ______ ____
ROOT
ATOM      1  C   UNL     1      10.273   2.243  23.287  0.00  0.00    +0.036 A 
ATOM      2  C   UNL     1       9.978   1.667  22.047  0.00  0.00    +0.027 A 
ATOM      3  C   UNL     1       9.886   0.277  21.925  0.00  0.00    +0.048 A 
ATOM      4  C   UNL     1      10.063  -0.523  23.052  0.00  0.00    +0.132 A 
ATOM      5  C   UNL     1      10.342   0.051  24.296  0.00  0.00    +0.048 A 
ATOM      6  C   UNL     1      10.438   1.439  24.417  0.00  0.00    +0.027 A 
ENDROOT
BRANCH   1   8
ATOM      7  C   UNL     1      11.830   4.114  23.345  0.00  0.00    +0.138 C 
ATOM      8  N   UNL     1      10.452   3.639  23.394  0.00  0.00    -0.272 N 
ATOM      9  C   UNL     1       9.425   4.512  23.786  0.00  0.00    +0.252 C 
ATOM     10  O   UNL     1       9.672   5.689  24.069  0.00  0.00    -0.272 OA
BRANCH   9  11
ATOM     11  C   UNL     1       7.995   3.947  23.841  0.00  0.00    +0.257 C 
ATOM     12 CL   UNL     1       7.223   4.077  22.238  0.00  0.00    -0.094 Cl
ATOM     13 CL   UNL     1       7.054   4.859  25.041  0.00  0.00    -0.094 Cl
ENDBRANCH   9  11
ENDBRANCH   1   8
BRANCH   4  14
ATOM     14  O   UNL     1      10.068  -1.936  23.018  0.00  0.00    -0.420 OA
BRANCH  14  15
ATOM     15  C   UNL     1       8.920  -2.716  23.191  0.00  0.00    +0.380 C 
ATOM     16  O   UNL     1       7.965  -2.752  22.424  0.00  0.00    -0.241 OA
BRANCH  15  17
ATOM     17  C   UNL     1       9.015  -3.466  24.423  0.00  0.00    +0.212 A 
ATOM     18  O   UNL     1       9.870  -4.534  24.523  0.00  0.00    -0.456 OA
ATOM     19  C   UNL     1       9.753  -5.031  25.780  0.00  0.00    +0.196 A 
ATOM     20  C   UNL     1       8.834  -4.307  26.503  0.00  0.00    +0.042 A 
ATOM     21  C   UNL     1       8.357  -3.301  25.629  0.00  0.00    +0.056 A 
ENDBRANCH  15  17
ENDBRANCH  14  15
ENDBRANCH   4  14
TORSDOF 5
ENDMDL
MODEL 2
REMARK VINA RESULT:      -6.5      1.213      2.072
REMARK  Name = 
REMARK  6 active torsions:
REMARK  status: ('A' for Active; 'I' for Inactive)
REMARK    1  A    between atoms: C_1  and  N_2
REMARK    2  A    between atoms: N_2  and  C_8
REMARK    3  A    between atoms: C_3  and  C_5
REMARK    4  A    between atoms: C_11  and  O_12
REMARK    5  A    between atoms: O_12  and  C_13
REMARK    6  A    between atoms: C_13  and  C_15
REMARK                            x       y       z     vdW  Elec       q    Type
REMARK                         _______ _______ _______ _____ _____    ______ ____
ROOT
ATOM      1  C   UNL     1      10.166   2.116  23.273  0.00  0.00    +0.036 A 
ATOM      2  C   UNL     1       9.906   1.554  22.019  0.00  0.00    +0.027 A 
ATOM      3  C   UNL     1       9.835   0.165  21.877  0.00  0.00    +0.048 A 
ATOM      4  C   UNL     1       9.997  -0.649  22.997  0.00  0.00    +0.132 A 
ATOM      5  C   UNL     1      10.241  -0.089  24.254  0.00  0.00    +0.048 A 
ATOM      6  C   UNL     1      10.316   1.298  24.395  0.00  0.00    +0.027 A 
ENDROOT
BRANCH   1   8
ATOM      7  C   UNL     1      11.696   4.007  23.375  0.00  0.00    +0.138 C 
ATOM      8  N   UNL     1      10.325   3.513  23.404  0.00  0.00    -0.272 N 
ATOM      9  C   UNL     1       9.282   4.365  23.799  0.00  0.00    +0.252 C 
ATOM     10  O   UNL     1       9.509   5.541  24.102  0.00  0.00    -0.272 OA
BRANCH   9  11
ATOM     11  C   UNL     1       7.859   3.780  23.831  0.00  0.00    +0.257 C 
ATOM     12 CL   UNL     1       7.105   3.914  22.219  0.00  0.00    -0.094 Cl
ATOM     13 CL   UNL     1       6.891   4.667  25.028  0.00  0.00    -0.094 Cl
ENDBRANCH   9  11
ENDBRANCH   1   8
BRANCH   4  14
ATOM     14  O   UNL     1      10.022  -2.061  22.943  0.00  0.00    -0.420 OA
BRANCH  14  15
ATOM     15  C   UNL     1       9.187  -2.876  23.714  0.00  0.00    +0.380 C 
ATOM     16  O   UNL     1       9.499  -3.408  24.773  0.00  0.00    -0.241 OA
BRANCH  15  17
ATOM     17  C   UNL     1       7.901  -3.017  23.069  0.00  0.00    +0.212 A 
ATOM     18  O   UNL     1       7.612  -4.137  22.332  0.00  0.00    -0.456 OA
ATOM     19  C   UNL     1       6.347  -3.996  21.861  0.00  0.00    +0.196 A 
ATOM     20  C   UNL     1       5.805  -2.802  22.277  0.00  0.00    +0.042 A 
ATOM     21  C   UNL     1       6.807  -2.170  23.053  0.00  0.00    +0.056 A 
ENDBRANCH  15  17
ENDBRANCH  14  15
ENDBRANCH   4  14
TORSDOF 5
ENDMDL
MODEL 3
REMARK VINA RESULT:      -6.4      1.288      2.345
REMARK  Name = 
REMARK  6 active torsions:
REMARK  status: ('A' for Active; 'I' for Inactive)
REMARK    1  A    between atoms: C_1  and  N_2
REMARK    2  A    between atoms: N_2  and  C_8
REMARK    3  A    between atoms: C_3  and  C_5
REMARK    4  A    between atoms: C_11  and  O_12
REMARK    5  A    between atoms: O_12  and  C_13
REMARK    6  A    between atoms: C_13  and  C_15
REMARK                            x       y       z     vdW  Elec       q    Type
REMARK                         _______ _______ _______ _____ _____    ______ ____
ROOT
ATOM      1  C   UNL     1      10.304   2.073  23.222  0.00  0.00    +0.036 A 
ATOM      2  C   UNL     1      10.576   1.240  24.312  0.00  0.00    +0.027 A 
ATOM      3  C   UNL     1      10.506  -0.148  24.167  0.00  0.00    +0.048 A 
ATOM      4  C   UNL     1      10.191  -0.693  22.923  0.00  0.00    +0.132 A 
ATOM      5  C   UNL     1       9.934   0.137  21.828  0.00  0.00    +0.048 A 
ATOM      6  C   UNL     1       9.999   1.524  21.974  0.00  0.00    +0.027 A 
ENDROOT
BRANCH   1   8
ATOM      7  C   UNL     1      11.590   4.133  23.390  0.00  0.00    +0.138 C 
ATOM      8  N   UNL     1      10.290   3.474  23.388  0.00  0.00    -0.272 N 
ATOM      9  C   UNL     1       9.146   4.183  23.789  0.00  0.00    +0.252 C 
ATOM     10  O   UNL     1       9.224   5.369  24.123  0.00  0.00    -0.272 OA
BRANCH   9  11
ATOM     11  C   UNL     1       7.806   3.428  23.787  0.00  0.00    +0.257 C 
ATOM     12 CL   UNL     1       6.995   3.622  22.210  0.00  0.00    -0.094 Cl
ATOM     13 CL   UNL     1       6.772   4.073  25.081  0.00  0.00    -0.094 Cl
ENDBRANCH   9  11
ENDBRANCH   1   8
BRANCH   4  14
ATOM     14  O   UNL     1      10.017  -2.076  22.694  0.00  0.00    -0.420 OA
BRANCH  14  15
ATOM     15  C   UNL     1       9.337  -2.924  23.574  0.00  0.00    +0.380 C 
ATOM     16  O   UNL     1       9.867  -3.672  24.389  0.00  0.00    -0.241 OA
BRANCH  15  17
ATOM     17  C   UNL     1       7.911  -2.805  23.372  0.00  0.00    +0.212 A 
ATOM     18  O   UNL     1       7.098  -2.375  24.389  0.00  0.00    -0.456 OA
ATOM     19  C   UNL     1       5.828  -2.354  23.912  0.00  0.00    +0.196 A 
ATOM     20  C   UNL     1       5.797  -2.765  22.600  0.00  0.00    +0.042 A 
ATOM     21  C   UNL     1       7.138  -3.058  22.252  0.00  0.00    +0.056 A 
ENDBRANCH  15  17
ENDBRANCH  14  15
ENDBRANCH   4  14
TORSDOF 5
ENDMDL
MODEL 4
REMARK VINA RESULT:      -6.2      1.765      2.696
REMARK  Name = 
REMARK  6 active torsions:
REMARK  status: ('A' for Active; 'I' for Inactive)
REMARK    1  A    between atoms: C_1  and  N_2
REMARK    2  A    between atoms: N_2  and  C_8
REMARK    3  A    between atoms: C_3  and  C_5
REMARK    4  A    between atoms: C_11  and  O_12
REMARK    5  A    between atoms: O_12  and  C_13
REMARK    6  A    between atoms: C_13  and  C_15
REMARK                            x       y       z     vdW  Elec       q    Type
REMARK                         _______ _______ _______ _____ _____    ______ ____
ROOT
ATOM      1  C   UNL     1       9.913   1.215  23.327  0.00  0.00    +0.036 A 
ATOM      2  C   UNL     1       9.971   0.630  24.596  0.00  0.00    +0.027 A 
ATOM      3  C   UNL     1       9.970  -0.762  24.725  0.00  0.00    +0.048 A 
ATOM      4  C   UNL     1       9.940  -1.557  23.581  0.00  0.00    +0.132 A 
ATOM      5  C   UNL     1       9.898  -0.975  22.311  0.00  0.00    +0.048 A 
ATOM      6  C   UNL     1       9.894   0.416  22.182  0.00  0.00    +0.027 A 
ENDROOT
BRANCH   1   8
ATOM      7  C   UNL     1      11.078   3.353  23.323  0.00  0.00    +0.138 C 
ATOM      8  N   UNL     1       9.825   2.618  23.198  0.00  0.00    -0.272 N 
ATOM      9  C   UNL     1       8.604   3.311  23.212  0.00  0.00    +0.252 C 
ATOM     10  O   UNL     1       8.579   4.542  23.306  0.00  0.00    -0.272 OA
BRANCH   9  11
ATOM     11  C   UNL     1       7.315   2.480  23.099  0.00  0.00    +0.257 C 
ATOM     12 CL   UNL     1       6.093   3.370  22.151  0.00  0.00    -0.094 Cl
ATOM     13 CL   UNL     1       6.691   2.147  24.729  0.00  0.00    -0.094 Cl
ENDBRANCH   9  11
ENDBRANCH   1   8
BRANCH   4  14
ATOM     14  O   UNL     1       9.856  -2.967  23.608  0.00  0.00    -0.420 OA
BRANCH  14  15
ATOM     15  C   UNL     1       8.824  -3.667  24.242  0.00  0.00    +0.380 C 
ATOM     16  O   UNL     1       8.753  -3.888  25.446  0.00  0.00    -0.241 OA
BRANCH  15  17
ATOM     17  C   UNL     1       7.854  -4.109  23.265  0.00  0.00    +0.212 A 
ATOM     18  O   UNL     1       7.056  -3.201  22.618  0.00  0.00    -0.456 OA
ATOM     19  C   UNL     1       6.262  -3.896  21.764  0.00  0.00    +0.196 A 
ATOM     20  C   UNL     1       6.527  -5.243  21.845  0.00  0.00    +0.042 A 
ATOM     21  C   UNL     1       7.551  -5.381  22.813  0.00  0.00    +0.056 A 
ENDBRANCH  15  17
ENDBRANCH  14  15
ENDBRANCH   4  14
TORSDOF 5
ENDMDL
MODEL 5
REMARK VINA RESULT:      -6.2      3.292      7.180
REMARK  Name = 
REMARK  6 active torsions:
REMARK  status: ('A' for Active; 'I' for Inactive)
REMARK    1  A    between atoms: C_1  and  N_2
REMARK    2  A    between atoms: N_2  and  C_8
REMARK    3  A    between atoms: C_3  and  C_5
REMARK    4  A    between atoms: C_11  and  O_12
REMARK    5  A    between atoms: O_12  and  C_13
REMARK    6  A    between atoms: C_13  and  C_15
REMARK                            x       y       z     vdW  Elec       q    Type
REMARK                         _______ _______ _______ _____ _____    ______ ____
ROOT
ATOM      1  C   UNL     1       9.300  -2.298  24.282  0.00  0.00    +0.036 A 
ATOM      2  C   UNL     1       9.996  -1.980  23.112  0.00  0.00    +0.027 A 
ATOM      3  C   UNL     1      10.525  -0.698  22.939  0.00  0.00    +0.048 A 
ATOM      4  C   UNL     1      10.377   0.248  23.951  0.00  0.00    +0.132 A 
ATOM      5  C   UNL     1       9.695  -0.072  25.129  0.00  0.00    +0.048 A 
ATOM      6  C   UNL     1       9.162  -1.351  25.300  0.00  0.00    +0.027 A 
ENDROOT
BRANCH   1   8
ATOM      7  C   UNL     1       9.516  -4.611  25.011  0.00  0.00    +0.138 C 
ATOM      8  N   UNL     1       8.690  -3.563  24.422  0.00  0.00    -0.272 N 
ATOM      9  C   UNL     1       7.472  -3.895  23.808  0.00  0.00    +0.252 C 
ATOM     10  O   UNL     1       7.078  -5.065  23.781  0.00  0.00    -0.272 OA
BRANCH   9  11
ATOM     11  C   UNL     1       6.656  -2.750  23.184  0.00  0.00    +0.257 C 
ATOM     12 CL   UNL     1       5.719  -1.906  24.447  0.00  0.00    -0.094 Cl
ATOM     13 CL   UNL     1       5.555  -3.419  21.960  0.00  0.00    -0.094 Cl
ENDBRANCH   9  11
ENDBRANCH   1   8
BRANCH   4  14
ATOM     14  O   UNL     1      10.805   1.590  23.840  0.00  0.00    -0.420 OA
BRANCH  14  15
ATOM     15  C   UNL     1       9.987   2.624  23.372  0.00  0.00    +0.380 C 
ATOM     16  O   UNL     1       8.882   2.477  22.861  0.00  0.00    -0.241 OA
BRANCH  15  17
ATOM     17  C   UNL     1      10.642   3.898  23.565  0.00  0.00    +0.212 A 
ATOM     18  O   UNL     1      11.991   4.024  23.352  0.00  0.00    -0.456 OA
ATOM     19  C   UNL     1      12.321   5.318  23.598  0.00  0.00    +0.196 A 
ATOM     20  C   UNL     1      11.209   6.038  23.970  0.00  0.00    +0.042 A 
ATOM     21  C   UNL     1      10.129   5.123  23.951  0.00  0.00    +0.056 A 
ENDBRANCH  15  17
ENDBRANCH  14  15
ENDBRANCH   4  14
TORSDOF 5
ENDMDL
MODEL 6
REMARK VINA RESULT:      -6.2      1.763      2.451
REMARK  Name = 
REMARK  6 active torsions:
REMARK  status: ('A' for Active; 'I' for Inactive)
REMARK    1  A    between atoms: C_1  and  N_2
REMARK    2  A    between atoms: N_2  and  C_8
REMARK    3  A    between atoms: C_3  and  C_5
REMARK    4  A    between atoms: C_11  and  O_12
REMARK    5  A    between atoms: O_12  and  C_13
REMARK    6  A    between atoms: C_13  and  C_15
REMARK                            x       y       z     vdW  Elec       q    Type
REMARK                         _______ _______ _______ _____ _____    ______ ____
ROOT
ATOM      1  C   UNL     1       8.842   2.907  23.424  0.00  0.00    +0.036 A 
ATOM      2  C   UNL     1       8.518   2.265  24.623  0.00  0.00    +0.027 A 
ATOM      3  C   UNL     1       8.977   0.967  24.867  0.00  0.00    +0.048 A 
ATOM      4  C   UNL     1       9.781   0.335  23.921  0.00  0.00    +0.132 A 
ATOM      5  C   UNL     1      10.120   0.981  22.728  0.00  0.00    +0.048 A 
ATOM      6  C   UNL     1       9.656   2.275  22.482  0.00  0.00    +0.027 A 
ENDROOT
BRANCH   1   8
ATOM      7  C   UNL     1       7.151   4.208  22.250  0.00  0.00    +0.138 C 
ATOM      8  N   UNL     1       8.307   4.182  23.137  0.00  0.00    -0.272 N 
ATOM      9  C   UNL     1       8.975   5.377  23.451  0.00  0.00    +0.252 C 
ATOM     10  O   UNL     1       8.579   6.457  23.002  0.00  0.00    -0.272 OA
BRANCH   9  11
ATOM     11  C   UNL     1      10.202   5.284  24.374  0.00  0.00    +0.257 C 
ATOM     12 CL   UNL     1      10.263   6.700  25.457  0.00  0.00    -0.094 Cl
ATOM     13 CL   UNL     1      11.674   5.218  23.381  0.00  0.00    -0.094 Cl
ENDBRANCH   9  11
ENDBRANCH   1   8
BRANCH   4  14
ATOM     14  O   UNL     1      10.228  -1.001  24.038  0.00  0.00    -0.420 OA
BRANCH  14  15
ATOM     15  C   UNL     1       9.511  -2.100  23.555  0.00  0.00    +0.380 C 
ATOM     16  O   UNL     1       9.083  -2.219  22.412  0.00  0.00    -0.241 OA
BRANCH  15  17
ATOM     17  C   UNL     1       9.330  -3.074  24.608  0.00  0.00    +0.212 A 
ATOM     18  O   UNL     1       9.945  -4.297  24.536  0.00  0.00    -0.456 OA
ATOM     19  C   UNL     1       9.605  -4.988  25.653  0.00  0.00    +0.196 A 
ATOM     20  C   UNL     1       8.776  -4.237  26.453  0.00  0.00    +0.042 A 
ATOM     21  C   UNL     1       8.597  -3.005  25.779  0.00  0.00    +0.056 A 
ENDBRANCH  15  17
ENDBRANCH  14  15
ENDBRANCH   4  14
TORSDOF 5
ENDMDL
MODEL 7
REMARK VINA RESULT:      -6.0      2.757      3.786
REMARK  Name = 
REMARK  6 active torsions:
REMARK  status: ('A' for Active; 'I' for Inactive)
REMARK    1  A    between atoms: C_1  and  N_2
REMARK    2  A    between atoms: N_2  and  C_8
REMARK    3  A    between atoms: C_3  and  C_5
REMARK    4  A    between atoms: C_11  and  O_12
REMARK    5  A    between atoms: O_12  and  C_13
REMARK    6  A    between atoms: C_13  and  C_15
REMARK                            x       y       z     vdW  Elec       q    Type
REMARK                         _______ _______ _______ _____ _____    ______ ____
ROOT
ATOM      1  C   UNL     1       8.627   0.367  24.485  0.00  0.00    +0.036 A 
ATOM      2  C   UNL     1       9.658  -0.373  25.071  0.00  0.00    +0.027 A 
ATOM      3  C   UNL     1       9.798  -1.733  24.777  0.00  0.00    +0.048 A 
ATOM      4  C   UNL     1       8.920  -2.333  23.876  0.00  0.00    +0.132 A 
ATOM      5  C   UNL     1       7.898  -1.591  23.277  0.00  0.00    +0.048 A 
ATOM      6  C   UNL     1       7.756  -0.235  23.574  0.00  0.00    +0.027 A 
ENDROOT
BRANCH   1   8
ATOM      7  C   UNL     1       7.222   2.008  25.608  0.00  0.00    +0.138 C 
ATOM      8  N   UNL     1       8.431   1.718  24.847  0.00  0.00    -0.272 N 
ATOM      9  C   UNL     1       9.186   2.770  24.304  0.00  0.00    +0.252 C 
ATOM     10  O   UNL     1       8.850   3.945  24.485  0.00  0.00    -0.272 OA
BRANCH   9  11
ATOM     11  C   UNL     1      10.438   2.400  23.492  0.00  0.00    +0.257 C 
ATOM     12 CL   UNL     1      11.539   3.801  23.391  0.00  0.00    -0.094 Cl
ATOM     13 CL   UNL     1       9.947   1.898  21.860  0.00  0.00    -0.094 Cl
ENDBRANCH   9  11
ENDBRANCH   1   8
BRANCH   4  14
ATOM     14  O   UNL     1       8.929  -3.714  23.575  0.00  0.00    -0.420 OA
BRANCH  14  15
ATOM     15  C   UNL     1       8.082  -4.642  24.189  0.00  0.00    +0.380 C 
ATOM     16  O   UNL     1       8.155  -5.003  25.358  0.00  0.00    -0.241 OA
BRANCH  15  17
ATOM     17  C   UNL     1       7.112  -5.132  23.235  0.00  0.00    +0.212 A 
ATOM     18  O   UNL     1       5.797  -5.283  23.596  0.00  0.00    -0.456 OA
ATOM     19  C   UNL     1       5.129  -5.744  22.509  0.00  0.00    +0.196 A 
ATOM     20  C   UNL     1       5.985  -5.897  21.444  0.00  0.00    +0.042 A 
ATOM     21  C   UNL     1       7.262  -5.506  21.911  0.00  0.00    +0.056 A 
ENDBRANCH  15  17
ENDBRANCH  14  15
ENDBRANCH   4  14
TORSDOF 5
ENDMDL
MODEL 8
REMARK VINA RESULT:      -6.0      4.569      7.955
REMARK  Name = 
REMARK  6 active torsions:
REMARK  status: ('A' for Active; 'I' for Inactive)
REMARK    1  A    between atoms: C_1  and  N_2
REMARK    2  A    between atoms: N_2  and  C_8
REMARK    3  A    between atoms: C_3  and  C_5
REMARK    4  A    between atoms: C_11  and  O_12
REMARK    5  A    between atoms: O_12  and  C_13
REMARK    6  A    between atoms: C_13  and  C_15
REMARK                            x       y       z     vdW  Elec       q    Type
REMARK                         _______ _______ _______ _____ _____    ______ ____
ROOT
ATOM      1  C   UNL     1       6.990  -4.390  25.433  0.00  0.00    +0.036 A 
ATOM      2  C   UNL     1       6.594  -3.052  25.342  0.00  0.00    +0.027 A 
ATOM      3  C   UNL     1       7.525  -2.069  24.994  0.00  0.00    +0.048 A 
ATOM      4  C   UNL     1       8.839  -2.438  24.713  0.00  0.00    +0.132 A 
ATOM      5  C   UNL     1       9.234  -3.777  24.788  0.00  0.00    +0.048 A 
ATOM      6  C   UNL     1       8.305  -4.758  25.140  0.00  0.00    +0.027 A 
ENDROOT
BRANCH   1   8
ATOM      7  C   UNL     1       6.259  -5.863  27.229  0.00  0.00    +0.138 C 
ATOM      8  N   UNL     1       6.073  -5.372  25.868  0.00  0.00    -0.272 N 
ATOM      9  C   UNL     1       5.201  -6.041  24.996  0.00  0.00    +0.252 C 
ATOM     10  O   UNL     1       4.567  -7.031  25.375  0.00  0.00    -0.272 OA
BRANCH   9  11
ATOM     11  C   UNL     1       5.064  -5.489  23.567  0.00  0.00    +0.257 C 
ATOM     12 CL   UNL     1       3.395  -5.718  22.978  0.00  0.00    -0.094 Cl
ATOM     13 CL   UNL     1       6.203  -6.340  22.501  0.00  0.00    -0.094 Cl
ENDBRANCH   9  11
ENDBRANCH   1   8
BRANCH   4  14
ATOM     14  O   UNL     1       9.870  -1.513  24.431  0.00  0.00    -0.420 OA
BRANCH  14  15
ATOM     15  C   UNL     1      10.245  -1.149  23.134  0.00  0.00    +0.380 C 
ATOM     16  O   UNL     1      10.538  -1.930  22.235  0.00  0.00    -0.241 OA
BRANCH  15  17
ATOM     17  C   UNL     1      10.254   0.291  23.008  0.00  0.00    +0.212 A 
ATOM     18  O   UNL     1      10.734   1.074  24.027  0.00  0.00    -0.456 OA
ATOM     19  C   UNL     1      10.628   2.367  23.628  0.00  0.00    +0.196 A 
ATOM     20  C   UNL     1      10.085   2.442  22.367  0.00  0.00    +0.042 A 
ATOM     21  C   UNL     1       9.842   1.105  21.968  0.00  0.00    +0.056 A 
ENDBRANCH  15  17
ENDBRANCH  14  15
ENDBRANCH   4  14
TORSDOF 5
ENDMDL
MODEL 9
REMARK VINA RESULT:      -5.8      4.915      7.930
REMARK  Name = 
REMARK  6 active torsions:
REMARK  status: ('A' for Active; 'I' for Inactive)
REMARK    1  A    between atoms: C_1  and  N_2
REMARK    2  A    between atoms: N_2  and  C_8
REMARK    3  A    between atoms: C_3  and  C_5
REMARK    4  A    between atoms: C_11  and  O_12
REMARK    5  A    between atoms: O_12  and  C_13
REMARK    6  A    between atoms: C_13  and  C_15
REMARK                            x       y       z     vdW  Elec       q    Type
REMARK                         _______ _______ _______ _____ _____    ______ ____
ROOT
ATOM      1  C   UNL     1       5.265  -4.400  23.594  0.00  0.00    +0.036 A 
ATOM      2  C   UNL     1       5.232  -3.006  23.499  0.00  0.00    +0.027 A 
ATOM      3  C   UNL     1       6.326  -2.314  22.970  0.00  0.00    +0.048 A 
ATOM      4  C   UNL     1       7.432  -3.028  22.513  0.00  0.00    +0.132 A 
ATOM      5  C   UNL     1       7.461  -4.424  22.591  0.00  0.00    +0.048 A 
ATOM      6  C   UNL     1       6.370  -5.113  23.124  0.00  0.00    +0.027 A 
ENDROOT
BRANCH   1   8
ATOM      7  C   UNL     1       3.021  -5.322  23.378  0.00  0.00    +0.138 C 
ATOM      8  N   UNL     1       4.199  -5.094  24.207  0.00  0.00    -0.272 N 
ATOM      9  C   UNL     1       4.137  -5.327  25.590  0.00  0.00    +0.252 C 
ATOM     10  O   UNL     1       3.099  -5.748  26.112  0.00  0.00    -0.272 OA
BRANCH   9  11
ATOM     11  C   UNL     1       5.404  -5.046  26.416  0.00  0.00    +0.257 C 
ATOM     12 CL   UNL     1       5.573  -6.260  27.712  0.00  0.00    -0.094 Cl
ATOM     13 CL   UNL     1       5.290  -3.419  27.123  0.00  0.00    -0.094 Cl
ENDBRANCH   9  11
ENDBRANCH   1   8
BRANCH   4  14
ATOM     14  O   UNL     1       8.616  -2.420  22.036  0.00  0.00    -0.420 OA
BRANCH  14  15
ATOM     15  C   UNL     1       9.654  -1.995  22.871  0.00  0.00    +0.380 C 
ATOM     16  O   UNL     1      10.307  -2.720  23.614  0.00  0.00    -0.241 OA
BRANCH  15  17
ATOM     17  C   UNL     1       9.838  -0.567  22.743  0.00  0.00    +0.212 A 
ATOM     18  O   UNL     1      10.325   0.168  23.793  0.00  0.00    -0.456 OA
ATOM     19  C   UNL     1      10.398   1.460  23.385  0.00  0.00    +0.196 A 
ATOM     20  C   UNL     1       9.966   1.581  22.085  0.00  0.00    +0.042 A 
ATOM     21  C   UNL     1       9.603   0.277  21.672  0.00  0.00    +0.056 A 
ENDBRANCH  15  17
ENDBRANCH  14  15
ENDBRANCH   4  14
TORSDOF 5
ENDMDL
