MODEL 1
REMARK VINA RESULT:      -6.4      0.000      0.000
REMARK  Name = 
REMARK  4 active torsions:
REMARK  status: ('A' for Active; 'I' for Inactive)
REMARK    1  A    between atoms: O_1  and  C_2
REMARK    2  A    between atoms: C_5  and  C_8
REMARK    3  A    between atoms: C_8  and  C_10
REMARK    4  A    between atoms: C_13  and  O_14
REMARK                            x       y       z     vdW  Elec       q    Type
REMARK                         _______ _______ _______ _____ _____    ______ ____
ROOT
ATOM      1  C   UNL     1       8.954  -2.901  23.644  0.00  0.00    +0.193 C 
ATOM      2  O   UNL     1       9.803  -3.565  24.236  0.00  0.00    -0.287 OA
ENDROOT
BRANCH   1   6
ATOM      3  C   UNL     1       9.968   0.964  22.129  0.00  0.00    +0.117 A 
ATOM      4  C   UNL     1      10.256   0.666  23.457  0.00  0.00    +0.046 A 
ATOM      5  C   UNL     1       9.953  -0.598  23.967  0.00  0.00    +0.015 A 
ATOM      6  C   UNL     1       9.330  -1.550  23.151  0.00  0.00    +0.022 A 
ATOM      7  C   UNL     1       9.087  -1.250  21.802  0.00  0.00    +0.015 A 
ATOM      8  C   UNL     1       9.401   0.010  21.290  0.00  0.00    +0.046 A 
BRANCH   3   9
ATOM      9  O   UNL     1      10.261   2.217  21.681  0.00  0.00    -0.507 OA
ATOM     10  H   UNL     1      10.399   2.182  20.720  0.00  0.00    +0.292 HD
ENDBRANCH   3   9
ENDBRANCH   1   6
BRANCH   1  11
ATOM     11  C   UNL     1       7.602  -3.493  23.430  0.00  0.00    +0.022 A 
ATOM     12  C   UNL     1       6.418  -2.762  23.585  0.00  0.00    +0.015 A 
ATOM     13  C   UNL     1       5.181  -3.370  23.349  0.00  0.00    +0.046 A 
ATOM     14  C   UNL     1       5.129  -4.694  22.925  0.00  0.00    +0.117 A 
ATOM     15  C   UNL     1       6.295  -5.428  22.739  0.00  0.00    +0.046 A 
ATOM     16  C   UNL     1       7.530  -4.825  22.990  0.00  0.00    +0.015 A 
BRANCH  14  17
ATOM     17  O   UNL     1       3.903  -5.237  22.686  0.00  0.00    -0.507 OA
ATOM     18  H   UNL     1       3.224  -4.654  23.065  0.00  0.00    +0.292 HD
ENDBRANCH  14  17
ENDBRANCH   1  11
TORSDOF 4
ENDMDL
MODEL 2
REMARK VINA RESULT:      -6.4      0.077      5.920
REMARK  Name = 
REMARK  4 active torsions:
REMARK  status: ('A' for Active; 'I' for Inactive)
REMARK    1  A    between atoms: O_1  and  C_2
REMARK    2  A    between atoms: C_5  and  C_8
REMARK    3  A    between atoms: C_8  and  C_10
REMARK    4  A    between atoms: C_13  and  O_14
REMARK                            x       y       z     vdW  Elec       q    Type
REMARK                         _______ _______ _______ _____ _____    ______ ____
ROOT
ATOM      1  C   UNL     1       8.963  -2.915  23.617  0.00  0.00    +0.193 C 
ATOM      2  O   UNL     1       9.812  -3.557  24.234  0.00  0.00    -0.287 OA
ENDROOT
BRANCH   1   6
ATOM      3  C   UNL     1       5.089  -4.598  22.968  0.00  0.00    +0.117 A 
ATOM      4  C   UNL     1       6.212  -5.378  22.711  0.00  0.00    +0.046 A 
ATOM      5  C   UNL     1       7.487  -4.856  22.935  0.00  0.00    +0.015 A 
ATOM      6  C   UNL     1       7.633  -3.539  23.389  0.00  0.00    +0.022 A 
ATOM      7  C   UNL     1       6.491  -2.780  23.687  0.00  0.00    +0.015 A 
ATOM      8  C   UNL     1       5.216  -3.308  23.472  0.00  0.00    +0.046 A 
BRANCH   3   9
ATOM      9  O   UNL     1       3.865  -5.142  22.713  0.00  0.00    -0.507 OA
ATOM     10  H   UNL     1       3.220  -4.766  23.334  0.00  0.00    +0.292 HD
ENDBRANCH   3   9
ENDBRANCH   1   6
BRANCH   1  11
ATOM     11  C   UNL     1       9.303  -1.540  23.152  0.00  0.00    +0.022 A 
ATOM     12  C   UNL     1       9.895  -0.580  23.982  0.00  0.00    +0.015 A 
ATOM     13  C   UNL     1      10.209   0.686  23.479  0.00  0.00    +0.046 A 
ATOM     14  C   UNL     1       9.965   0.981  22.142  0.00  0.00    +0.117 A 
ATOM     15  C   UNL     1       9.404   0.032  21.295  0.00  0.00    +0.046 A 
ATOM     16  C   UNL     1       9.076  -1.228  21.801  0.00  0.00    +0.015 A 
BRANCH  14  17
ATOM     17  O   UNL     1      10.309   2.220  21.692  0.00  0.00    -0.507 OA
ATOM     18  H   UNL     1       9.753   2.880  22.138  0.00  0.00    +0.292 HD
ENDBRANCH  14  17
ENDBRANCH   1  11
TORSDOF 4
ENDMDL
MODEL 3
REMARK VINA RESULT:      -6.4      0.406      1.274
REMARK  Name = 
REMARK  4 active torsions:
REMARK  status: ('A' for Active; 'I' for Inactive)
REMARK    1  A    between atoms: O_1  and  C_2
REMARK    2  A    between atoms: C_5  and  C_8
REMARK    3  A    between atoms: C_8  and  C_10
REMARK    4  A    between atoms: C_13  and  O_14
REMARK                            x       y       z     vdW  Elec       q    Type
REMARK                         _______ _______ _______ _____ _____    ______ ____
ROOT
ATOM      1  C   UNL     1       8.931  -3.099  23.638  0.00  0.00    +0.193 C 
ATOM      2  O   UNL     1       9.774  -3.652  24.342  0.00  0.00    -0.287 OA
ENDROOT
BRANCH   1   6
ATOM      3  C   UNL     1       9.875   0.806  22.182  0.00  0.00    +0.117 A 
ATOM      4  C   UNL     1       9.383  -0.142  21.291  0.00  0.00    +0.046 A 
ATOM      5  C   UNL     1       9.048  -1.418  21.748  0.00  0.00    +0.015 A 
ATOM      6  C   UNL     1       9.238  -1.749  23.095  0.00  0.00    +0.022 A 
ATOM      7  C   UNL     1       9.692  -0.769  23.991  0.00  0.00    +0.015 A 
ATOM      8  C   UNL     1      10.017   0.510  23.533  0.00  0.00    +0.046 A 
BRANCH   3   9
ATOM      9  O   UNL     1      10.209   2.031  21.685  0.00  0.00    -0.507 OA
ATOM     10  H   UNL     1      10.850   1.913  20.965  0.00  0.00    +0.292 HD
ENDBRANCH   3   9
ENDBRANCH   1   6
BRANCH   1  11
ATOM     11  C   UNL     1       7.659  -3.819  23.345  0.00  0.00    +0.022 A 
ATOM     12  C   UNL     1       6.399  -3.220  23.470  0.00  0.00    +0.015 A 
ATOM     13  C   UNL     1       5.243  -3.943  23.160  0.00  0.00    +0.046 A 
ATOM     14  C   UNL     1       5.348  -5.250  22.693  0.00  0.00    +0.117 A 
ATOM     15  C   UNL     1       6.590  -5.853  22.537  0.00  0.00    +0.046 A 
ATOM     16  C   UNL     1       7.745  -5.135  22.861  0.00  0.00    +0.015 A 
BRANCH  14  17
ATOM     17  O   UNL     1       4.195  -5.907  22.383  0.00  0.00    -0.507 OA
ATOM     18  H   UNL     1       3.558  -5.778  23.104  0.00  0.00    +0.292 HD
ENDBRANCH  14  17
ENDBRANCH   1  11
TORSDOF 4
ENDMDL
MODEL 4
REMARK VINA RESULT:      -6.2      2.195      5.927
REMARK  Name = 
REMARK  4 active torsions:
REMARK  status: ('A' for Active; 'I' for Inactive)
REMARK    1  A    between atoms: O_1  and  C_2
REMARK    2  A    between atoms: C_5  and  C_8
REMARK    3  A    between atoms: C_8  and  C_10
REMARK    4  A    between atoms: C_13  and  O_14
REMARK                            x       y       z     vdW  Elec       q    Type
REMARK                         _______ _______ _______ _____ _____    ______ ____
ROOT
ATOM      1  C   UNL     1       7.332  -2.909  22.770  0.00  0.00    +0.193 C 
ATOM      2  O   UNL     1       6.616  -3.409  21.905  0.00  0.00    -0.287 OA
ENDROOT
BRANCH   1   6
ATOM      3  C   UNL     1       7.806  -5.122  26.395  0.00  0.00    +0.117 A 
ATOM      4  C   UNL     1       8.804  -4.230  26.017  0.00  0.00    +0.046 A 
ATOM      5  C   UNL     1       8.661  -3.481  24.847  0.00  0.00    +0.015 A 
ATOM      6  C   UNL     1       7.529  -3.652  24.042  0.00  0.00    +0.022 A 
ATOM      7  C   UNL     1       6.509  -4.522  24.460  0.00  0.00    +0.015 A 
ATOM      8  C   UNL     1       6.649  -5.262  25.635  0.00  0.00    +0.046 A 
BRANCH   3   9
ATOM      9  O   UNL     1       8.000  -5.847  27.533  0.00  0.00    -0.507 OA
ATOM     10  H   UNL     1       7.325  -5.594  28.183  0.00  0.00    +0.292 HD
ENDBRANCH   3   9
ENDBRANCH   1   6
BRANCH   1  11
ATOM     11  C   UNL     1       7.984  -1.598  22.489  0.00  0.00    +0.022 A 
ATOM     12  C   UNL     1       9.208  -1.485  21.817  0.00  0.00    +0.015 A 
ATOM     13  C   UNL     1       9.757  -0.224  21.565  0.00  0.00    +0.046 A 
ATOM     14  C   UNL     1       9.070   0.922  21.953  0.00  0.00    +0.117 A 
ATOM     15  C   UNL     1       7.841   0.831  22.597  0.00  0.00    +0.046 A 
ATOM     16  C   UNL     1       7.299  -0.430  22.862  0.00  0.00    +0.015 A 
BRANCH  14  17
ATOM     17  O   UNL     1       9.634   2.128  21.666  0.00  0.00    -0.507 OA
ATOM     18  H   UNL     1      10.137   2.429  22.440  0.00  0.00    +0.292 HD
ENDBRANCH  14  17
ENDBRANCH   1  11
TORSDOF 4
ENDMDL
MODEL 5
REMARK VINA RESULT:      -6.0      3.745      6.070
REMARK  Name = 
REMARK  4 active torsions:
REMARK  status: ('A' for Active; 'I' for Inactive)
REMARK    1  A    between atoms: O_1  and  C_2
REMARK    2  A    between atoms: C_5  and  C_8
REMARK    3  A    between atoms: C_8  and  C_10
REMARK    4  A    between atoms: C_13  and  O_14
REMARK                            x       y       z     vdW  Elec       q    Type
REMARK                         _______ _______ _______ _____ _____    ______ ____
ROOT
ATOM      1  C   UNL     1       9.136   2.960  23.220  0.00  0.00    +0.193 C 
ATOM      2  O   UNL     1       7.966   3.301  23.059  0.00  0.00    -0.287 OA
ENDROOT
BRANCH   1   6
ATOM      3  C   UNL     1      11.946   6.031  24.185  0.00  0.00    +0.117 A 
ATOM      4  C   UNL     1      12.399   4.886  23.538  0.00  0.00    +0.046 A 
ATOM      5  C   UNL     1      11.495   3.878  23.195  0.00  0.00    +0.015 A 
ATOM      6  C   UNL     1      10.142   4.010  23.529  0.00  0.00    +0.022 A 
ATOM      7  C   UNL     1       9.693   5.191  24.140  0.00  0.00    +0.015 A 
ATOM      8  C   UNL     1      10.597   6.202  24.474  0.00  0.00    +0.046 A 
BRANCH   3   9
ATOM      9  O   UNL     1      12.868   6.978  24.520  0.00  0.00    -0.507 OA
ATOM     10  H   UNL     1      13.706   6.770  24.075  0.00  0.00    +0.292 HD
ENDBRANCH   3   9
ENDBRANCH   1   6
BRANCH   1  11
ATOM     11  C   UNL     1       9.481   1.513  23.119  0.00  0.00    +0.022 A 
ATOM     12  C   UNL     1       9.601   0.842  21.895  0.00  0.00    +0.015 A 
ATOM     13  C   UNL     1       9.948  -0.512  21.867  0.00  0.00    +0.046 A 
ATOM     14  C   UNL     1      10.208  -1.186  23.057  0.00  0.00    +0.117 A 
ATOM     15  C   UNL     1      10.120  -0.531  24.279  0.00  0.00    +0.046 A 
ATOM     16  C   UNL     1       9.759   0.819  24.308  0.00  0.00    +0.015 A 
BRANCH  14  17
ATOM     17  O   UNL     1      10.564  -2.498  22.978  0.00  0.00    -0.507 OA
ATOM     18  H   UNL     1      10.266  -2.852  22.124  0.00  0.00    +0.292 HD
ENDBRANCH  14  17
ENDBRANCH   1  11
TORSDOF 4
ENDMDL
MODEL 6
REMARK VINA RESULT:      -5.9      1.890      6.047
REMARK  Name = 
REMARK  4 active torsions:
REMARK  status: ('A' for Active; 'I' for Inactive)
REMARK    1  A    between atoms: O_1  and  C_2
REMARK    2  A    between atoms: C_5  and  C_8
REMARK    3  A    between atoms: C_8  and  C_10
REMARK    4  A    between atoms: C_13  and  O_14
REMARK                            x       y       z     vdW  Elec       q    Type
REMARK                         _______ _______ _______ _____ _____    ______ ____
ROOT
ATOM      1  C   UNL     1       8.745  -4.369  24.427  0.00  0.00    +0.193 C 
ATOM      2  O   UNL     1       9.612  -5.195  24.706  0.00  0.00    -0.287 OA
ENDROOT
BRANCH   1   6
ATOM      3  C   UNL     1       5.033  -5.823  22.887  0.00  0.00    +0.117 A 
ATOM      4  C   UNL     1       5.114  -5.481  24.233  0.00  0.00    +0.046 A 
ATOM      5  C   UNL     1       6.311  -4.985  24.753  0.00  0.00    +0.015 A 
ATOM      6  C   UNL     1       7.434  -4.861  23.927  0.00  0.00    +0.022 A 
ATOM      7  C   UNL     1       7.324  -5.167  22.561  0.00  0.00    +0.015 A 
ATOM      8  C   UNL     1       6.123  -5.653  22.040  0.00  0.00    +0.046 A 
BRANCH   3   9
ATOM      9  O   UNL     1       3.851  -6.324  22.429  0.00  0.00    -0.507 OA
ATOM     10  H   UNL     1       4.026  -7.152  21.952  0.00  0.00    +0.292 HD
ENDBRANCH   3   9
ENDBRANCH   1   6
BRANCH   1  11
ATOM     11  C   UNL     1       9.043  -2.922  24.628  0.00  0.00    +0.022 A 
ATOM     12  C   UNL     1       8.603  -2.202  25.745  0.00  0.00    +0.015 A 
ATOM     13  C   UNL     1       8.934  -0.851  25.886  0.00  0.00    +0.046 A 
ATOM     14  C   UNL     1       9.733  -0.230  24.931  0.00  0.00    +0.117 A 
ATOM     15  C   UNL     1      10.202  -0.935  23.828  0.00  0.00    +0.046 A 
ATOM     16  C   UNL     1       9.858  -2.282  23.680  0.00  0.00    +0.015 A 
BRANCH  14  17
ATOM     17  O   UNL     1      10.048   1.081  25.122  0.00  0.00    -0.507 OA
ATOM     18  H   UNL     1      10.962   1.229  24.828  0.00  0.00    +0.292 HD
ENDBRANCH  14  17
ENDBRANCH   1  11
TORSDOF 4
ENDMDL
MODEL 7
REMARK VINA RESULT:      -5.9      2.196      6.232
REMARK  Name = 
REMARK  4 active torsions:
REMARK  status: ('A' for Active; 'I' for Inactive)
REMARK    1  A    between atoms: O_1  and  C_2
REMARK    2  A    between atoms: C_5  and  C_8
REMARK    3  A    between atoms: C_8  and  C_10
REMARK    4  A    between atoms: C_13  and  O_14
REMARK                            x       y       z     vdW  Elec       q    Type
REMARK                         _______ _______ _______ _____ _____    ______ ____
ROOT
ATOM      1  C   UNL     1       8.372  -2.230  23.127  0.00  0.00    +0.193 C 
ATOM      2  O   UNL     1       7.831  -2.558  22.073  0.00  0.00    -0.287 OA
ENDROOT
BRANCH   1   6
ATOM      3  C   UNL     1       8.082  -4.933  26.425  0.00  0.00    +0.117 A 
ATOM      4  C   UNL     1       9.302  -4.801  25.769  0.00  0.00    +0.046 A 
ATOM      5  C   UNL     1       9.425  -3.909  24.702  0.00  0.00    +0.015 A 
ATOM      6  C   UNL     1       8.314  -3.172  24.276  0.00  0.00    +0.022 A 
ATOM      7  C   UNL     1       7.102  -3.281  24.976  0.00  0.00    +0.015 A 
ATOM      8  C   UNL     1       6.983  -4.167  26.049  0.00  0.00    +0.046 A 
BRANCH   3   9
ATOM      9  O   UNL     1       8.003  -5.832  27.445  0.00  0.00    -0.507 OA
ATOM     10  H   UNL     1       8.888  -6.199  27.608  0.00  0.00    +0.292 HD
ENDBRANCH   3   9
ENDBRANCH   1   6
BRANCH   1  11
ATOM     11  C   UNL     1       9.078  -0.918  23.191  0.00  0.00    +0.022 A 
ATOM     12  C   UNL     1       9.330  -0.133  22.059  0.00  0.00    +0.015 A 
ATOM     13  C   UNL     1       9.979   1.099  22.188  0.00  0.00    +0.046 A 
ATOM     14  C   UNL     1      10.343   1.561  23.449  0.00  0.00    +0.117 A 
ATOM     15  C   UNL     1      10.077   0.809  24.587  0.00  0.00    +0.046 A 
ATOM     16  C   UNL     1       9.443  -0.429  24.456  0.00  0.00    +0.015 A 
BRANCH  14  17
ATOM     17  O   UNL     1      10.952   2.777  23.527  0.00  0.00    -0.507 OA
ATOM     18  H   UNL     1      10.320   3.421  23.887  0.00  0.00    +0.292 HD
ENDBRANCH  14  17
ENDBRANCH   1  11
TORSDOF 4
ENDMDL
MODEL 8
REMARK VINA RESULT:      -5.9      1.283      1.648
REMARK  Name = 
REMARK  4 active torsions:
REMARK  status: ('A' for Active; 'I' for Inactive)
REMARK    1  A    between atoms: O_1  and  C_2
REMARK    2  A    between atoms: C_5  and  C_8
REMARK    3  A    between atoms: C_8  and  C_10
REMARK    4  A    between atoms: C_13  and  O_14
REMARK                            x       y       z     vdW  Elec       q    Type
REMARK                         _______ _______ _______ _____ _____    ______ ____
ROOT
ATOM      1  C   UNL     1       8.907  -2.847  23.508  0.00  0.00    +0.193 C 
ATOM      2  O   UNL     1       9.943  -3.201  24.068  0.00  0.00    -0.287 OA
ENDROOT
BRANCH   1   6
ATOM      3  C   UNL     1       8.604   1.132  21.979  0.00  0.00    +0.117 A 
ATOM      4  C   UNL     1       9.814   0.456  21.858  0.00  0.00    +0.046 A 
ATOM      5  C   UNL     1       9.930  -0.852  22.332  0.00  0.00    +0.015 A 
ATOM      6  C   UNL     1       8.838  -1.469  22.955  0.00  0.00    +0.022 A 
ATOM      7  C   UNL     1       7.611  -0.791  23.028  0.00  0.00    +0.015 A 
ATOM      8  C   UNL     1       7.494   0.514  22.545  0.00  0.00    +0.046 A 
BRANCH   3   9
ATOM      9  O   UNL     1       8.545   2.415  21.522  0.00  0.00    -0.507 OA
ATOM     10  H   UNL     1       7.650   2.760  21.674  0.00  0.00    +0.292 HD
ENDBRANCH   3   9
ENDBRANCH   1   6
BRANCH   1  11
ATOM     11  C   UNL     1       7.786  -3.823  23.391  0.00  0.00    +0.022 A 
ATOM     12  C   UNL     1       7.398  -4.395  22.173  0.00  0.00    +0.015 A 
ATOM     13  C   UNL     1       6.351  -5.321  22.134  0.00  0.00    +0.046 A 
ATOM     14  C   UNL     1       5.717  -5.701  23.312  0.00  0.00    +0.117 A 
ATOM     15  C   UNL     1       6.106  -5.166  24.534  0.00  0.00    +0.046 A 
ATOM     16  C   UNL     1       7.142  -4.228  24.572  0.00  0.00    +0.015 A 
BRANCH  14  17
ATOM     17  O   UNL     1       4.719  -6.624  23.227  0.00  0.00    -0.507 OA
ATOM     18  H   UNL     1       4.854  -7.296  23.915  0.00  0.00    +0.292 HD
ENDBRANCH  14  17
ENDBRANCH   1  11
TORSDOF 4
ENDMDL
MODEL 9
REMARK VINA RESULT:      -5.6      1.540      6.098
REMARK  Name = 
REMARK  4 active torsions:
REMARK  status: ('A' for Active; 'I' for Inactive)
REMARK    1  A    between atoms: O_1  and  C_2
REMARK    2  A    between atoms: C_5  and  C_8
REMARK    3  A    between atoms: C_8  and  C_10
REMARK    4  A    between atoms: C_13  and  O_14
REMARK                            x       y       z     vdW  Elec       q    Type
REMARK                         _______ _______ _______ _____ _____    ______ ____
ROOT
ATOM      1  C   UNL     1       9.960  -1.709  23.063  0.00  0.00    +0.193 C 
ATOM      2  O   UNL     1      10.949  -2.278  22.603  0.00  0.00    -0.287 OA
ENDROOT
BRANCH   1   6
ATOM      3  C   UNL     1       6.665  -4.126  24.313  0.00  0.00    +0.117 A 
ATOM      4  C   UNL     1       7.615  -3.746  25.255  0.00  0.00    +0.046 A 
ATOM      5  C   UNL     1       8.689  -2.939  24.874  0.00  0.00    +0.015 A 
ATOM      6  C   UNL     1       8.823  -2.541  23.538  0.00  0.00    +0.022 A 
ATOM      7  C   UNL     1       7.833  -2.894  22.609  0.00  0.00    +0.015 A 
ATOM      8  C   UNL     1       6.754  -3.692  22.994  0.00  0.00    +0.046 A 
BRANCH   3   9
ATOM      9  O   UNL     1       5.647  -4.932  24.727  0.00  0.00    -0.507 OA
ATOM     10  H   UNL     1       4.868  -4.382  24.912  0.00  0.00    +0.292 HD
ENDBRANCH   3   9
ENDBRANCH   1   6
BRANCH   1  11
ATOM     11  C   UNL     1       9.962  -0.220  23.141  0.00  0.00    +0.022 A 
ATOM     12  C   UNL     1      10.153   0.479  24.340  0.00  0.00    +0.015 A 
ATOM     13  C   UNL     1      10.165   1.877  24.343  0.00  0.00    +0.046 A 
ATOM     14  C   UNL     1      10.022   2.574  23.148  0.00  0.00    +0.117 A 
ATOM     15  C   UNL     1       9.859   1.898  21.945  0.00  0.00    +0.046 A 
ATOM     16  C   UNL     1       9.831   0.501  21.943  0.00  0.00    +0.015 A 
BRANCH  14  17
ATOM     17  O   UNL     1      10.063   3.935  23.198  0.00  0.00    -0.507 OA
ATOM     18  H   UNL     1       9.339   4.290  22.657  0.00  0.00    +0.292 HD
ENDBRANCH  14  17
ENDBRANCH   1  11
TORSDOF 4
ENDMDL
