MODEL 1
REMARK VINA RESULT:      -5.3      0.000      0.000
REMARK  Name = 
REMARK  5 active torsions:
REMARK  status: ('A' for Active; 'I' for Inactive)
REMARK    1  A    between atoms: N_2  and  O_4
REMARK    2  A    between atoms: O_4  and  C_5
REMARK    3  A    between atoms: C_5  and  C_6
REMARK    4  A    between atoms: C_6  and  N_7
REMARK    5  A    between atoms: C_8  and  C_10
REMARK                            x       y       z     vdW  Elec       q    Type
REMARK                         _______ _______ _______ _____ _____    ______ ____
ROOT
ATOM      1  N   UNL     1       8.132  -2.705  23.260  0.00  0.00    -0.308 N 
ATOM      2  H   UNL     1       7.536  -2.100  22.711  0.00  0.00    +0.149 HD
ATOM      3  C   UNL     1       9.425  -2.299  23.528  0.00  0.00    +0.246 C 
ATOM      4  O   UNL     1      10.300  -3.064  23.914  0.00  0.00    -0.270 OA
ENDROOT
BRANCH   3   5
ATOM      5  C   UNL     1       9.734  -0.870  23.301  0.00  0.00    +0.055 A 
ATOM      6  C   UNL     1      10.168  -0.103  24.376  0.00  0.00    +0.123 A 
ATOM      7  N   UNL     1      10.491   1.211  24.283  0.00  0.00    -0.263 NA
ATOM      8  C   UNL     1      10.352   1.786  23.068  0.00  0.00    +0.111 A 
ATOM      9  C   UNL     1       9.902   1.111  21.944  0.00  0.00    +0.020 A 
ATOM     10  C   UNL     1       9.584  -0.240  22.064  0.00  0.00    +0.016 A 
ENDBRANCH   3   5
BRANCH   1  11
ATOM     11  C   UNL     1       7.754  -4.100  23.379  0.00  0.00    +0.153 C 
BRANCH  11  12
ATOM     12  C   UNL     1       7.115  -4.445  24.726  0.00  0.00    +0.339 C 
BRANCH  12  13
ATOM     13  O   UNL     1       7.944  -5.398  25.382  0.00  0.00    -0.215 OA
BRANCH  13  15
ATOM     14  O   UNL     1       8.959  -4.160  26.895  0.00  0.00    -0.534 OA
ATOM     15  N   UNL     1       8.158  -5.079  26.743  0.00  0.00    +0.284 N 
ATOM     16  O   UNL     1       7.557  -5.750  27.583  0.00  0.00    +0.093 OA
ENDBRANCH  13  15
ENDBRANCH  12  13
ENDBRANCH  11  12
ENDBRANCH   1  11
TORSDOF 5
ENDMDL
MODEL 2
REMARK VINA RESULT:      -5.3      2.368      3.059
REMARK  Name = 
REMARK  5 active torsions:
REMARK  status: ('A' for Active; 'I' for Inactive)
REMARK    1  A    between atoms: N_2  and  O_4
REMARK    2  A    between atoms: O_4  and  C_5
REMARK    3  A    between atoms: C_5  and  C_6
REMARK    4  A    between atoms: C_6  and  N_7
REMARK    5  A    between atoms: C_8  and  C_10
REMARK                            x       y       z     vdW  Elec       q    Type
REMARK                         _______ _______ _______ _____ _____    ______ ____
ROOT
ATOM      1  N   UNL     1       8.661  -2.186  24.175  0.00  0.00    -0.308 N 
ATOM      2  H   UNL     1       7.901  -1.526  24.276  0.00  0.00    +0.149 HD
ATOM      3  C   UNL     1       9.796  -1.794  23.491  0.00  0.00    +0.246 C 
ATOM      4  O   UNL     1      10.625  -2.586  23.062  0.00  0.00    -0.270 OA
ENDROOT
BRANCH   3   5
ATOM      5  C   UNL     1       9.968  -0.342  23.266  0.00  0.00    +0.055 A 
ATOM      6  C   UNL     1      10.356   0.457  24.335  0.00  0.00    +0.123 A 
ATOM      7  N   UNL     1      10.556   1.795  24.243  0.00  0.00    -0.263 NA
ATOM      8  C   UNL     1      10.336   2.360  23.035  0.00  0.00    +0.111 A 
ATOM      9  C   UNL     1       9.923   1.651  21.918  0.00  0.00    +0.020 A 
ATOM     10  C   UNL     1       9.732   0.276  22.037  0.00  0.00    +0.016 A 
ENDBRANCH   3   5
BRANCH   1  11
ATOM     11  C   UNL     1       8.366  -3.592  24.377  0.00  0.00    +0.153 C 
BRANCH  11  12
ATOM     12  C   UNL     1       7.079  -4.048  23.686  0.00  0.00    +0.339 C 
BRANCH  12  13
ATOM     13  O   UNL     1       7.326  -4.120  22.286  0.00  0.00    -0.215 OA
BRANCH  13  15
ATOM     14  O   UNL     1       5.360  -3.274  21.768  0.00  0.00    -0.534 OA
ATOM     15  N   UNL     1       6.132  -4.200  21.532  0.00  0.00    +0.284 N 
ATOM     16  O   UNL     1       6.002  -5.165  20.778  0.00  0.00    +0.093 OA
ENDBRANCH  13  15
ENDBRANCH  12  13
ENDBRANCH  11  12
ENDBRANCH   1  11
TORSDOF 5
ENDMDL
MODEL 3
REMARK VINA RESULT:      -5.2      2.058      3.022
REMARK  Name = 
REMARK  5 active torsions:
REMARK  status: ('A' for Active; 'I' for Inactive)
REMARK    1  A    between atoms: N_2  and  O_4
REMARK    2  A    between atoms: O_4  and  C_5
REMARK    3  A    between atoms: C_5  and  C_6
REMARK    4  A    between atoms: C_6  and  N_7
REMARK    5  A    between atoms: C_8  and  C_10
REMARK                            x       y       z     vdW  Elec       q    Type
REMARK                         _______ _______ _______ _____ _____    ______ ____
ROOT
ATOM      1  N   UNL     1       8.144  -2.814  24.649  0.00  0.00    -0.308 N 
ATOM      2  H   UNL     1       7.384  -2.195  24.397  0.00  0.00    +0.149 HD
ATOM      3  C   UNL     1       9.386  -2.607  24.082  0.00  0.00    +0.246 C 
ATOM      4  O   UNL     1      10.271  -3.454  24.084  0.00  0.00    -0.270 OA
ENDROOT
BRANCH   3   5
ATOM      5  C   UNL     1       9.610  -1.298  23.431  0.00  0.00    +0.055 A 
ATOM      6  C   UNL     1       9.323  -1.170  22.077  0.00  0.00    +0.123 A 
ATOM      7  N   UNL     1       9.477  -0.017  21.379  0.00  0.00    -0.263 NA
ATOM      8  C   UNL     1       9.960   1.045  22.061  0.00  0.00    +0.111 A 
ATOM      9  C   UNL     1      10.299   1.008  23.405  0.00  0.00    +0.020 A 
ATOM     10  C   UNL     1      10.124  -0.186  24.101  0.00  0.00    +0.016 A 
ENDBRANCH   3   5
BRANCH   1  11
ATOM     11  C   UNL     1       7.803  -4.093  25.243  0.00  0.00    +0.153 C 
BRANCH  11  12
ATOM     12  C   UNL     1       6.887  -4.947  24.364  0.00  0.00    +0.339 C 
BRANCH  12  13
ATOM     13  O   UNL     1       7.644  -5.414  23.252  0.00  0.00    -0.215 OA
BRANCH  13  15
ATOM     14  O   UNL     1       7.029  -5.859  21.185  0.00  0.00    -0.534 OA
ATOM     15  N   UNL     1       7.122  -4.961  22.018  0.00  0.00    +0.284 N 
ATOM     16  O   UNL     1       6.858  -3.762  21.920  0.00  0.00    +0.093 OA
ENDBRANCH  13  15
ENDBRANCH  12  13
ENDBRANCH  11  12
ENDBRANCH   1  11
TORSDOF 5
ENDMDL
MODEL 4
REMARK VINA RESULT:      -5.1      1.722      2.308
REMARK  Name = 
REMARK  5 active torsions:
REMARK  status: ('A' for Active; 'I' for Inactive)
REMARK    1  A    between atoms: N_2  and  O_4
REMARK    2  A    between atoms: O_4  and  C_5
REMARK    3  A    between atoms: C_5  and  C_6
REMARK    4  A    between atoms: C_6  and  N_7
REMARK    5  A    between atoms: C_8  and  C_10
REMARK                            x       y       z     vdW  Elec       q    Type
REMARK                         _______ _______ _______ _____ _____    ______ ____
ROOT
ATOM      1  N   UNL     1       7.832  -3.519  24.676  0.00  0.00    -0.308 N 
ATOM      2  H   UNL     1       7.101  -2.958  24.257  0.00  0.00    +0.149 HD
ATOM      3  C   UNL     1       9.142  -3.291  24.302  0.00  0.00    +0.246 C 
ATOM      4  O   UNL     1      10.046  -4.089  24.512  0.00  0.00    -0.270 OA
ENDROOT
BRANCH   3   5
ATOM      5  C   UNL     1       9.420  -2.022  23.595  0.00  0.00    +0.055 A 
ATOM      6  C   UNL     1       9.091  -1.924  22.248  0.00  0.00    +0.123 A 
ATOM      7  N   UNL     1       9.289  -0.808  21.503  0.00  0.00    -0.263 NA
ATOM      8  C   UNL     1       9.859   0.246  22.127  0.00  0.00    +0.111 A 
ATOM      9  C   UNL     1      10.245   0.236  23.459  0.00  0.00    +0.020 A 
ATOM     10  C   UNL     1      10.024  -0.920  24.205  0.00  0.00    +0.016 A 
ENDBRANCH   3   5
BRANCH   1  11
ATOM     11  C   UNL     1       7.448  -4.768  25.305  0.00  0.00    +0.153 C 
BRANCH  11  12
ATOM     12  C   UNL     1       7.482  -4.715  26.834  0.00  0.00    +0.339 C 
BRANCH  12  13
ATOM     13  O   UNL     1       7.382  -6.045  27.330  0.00  0.00    -0.215 OA
BRANCH  13  15
ATOM     14  O   UNL     1       6.101  -5.043  28.815  0.00  0.00    -0.534 OA
ATOM     15  N   UNL     1       6.540  -6.135  28.463  0.00  0.00    +0.284 N 
ATOM     16  O   UNL     1       6.375  -7.250  28.959  0.00  0.00    +0.093 OA
ENDBRANCH  13  15
ENDBRANCH  12  13
ENDBRANCH  11  12
ENDBRANCH   1  11
TORSDOF 5
ENDMDL
MODEL 5
REMARK VINA RESULT:      -4.9      2.638      6.322
REMARK  Name = 
REMARK  5 active torsions:
REMARK  status: ('A' for Active; 'I' for Inactive)
REMARK    1  A    between atoms: N_2  and  O_4
REMARK    2  A    between atoms: O_4  and  C_5
REMARK    3  A    between atoms: C_5  and  C_6
REMARK    4  A    between atoms: C_6  and  N_7
REMARK    5  A    between atoms: C_8  and  C_10
REMARK                            x       y       z     vdW  Elec       q    Type
REMARK                         _______ _______ _______ _____ _____    ______ ____
ROOT
ATOM      1  N   UNL     1       8.585  -3.111  23.552  0.00  0.00    -0.308 N 
ATOM      2  H   UNL     1       7.815  -2.479  23.372  0.00  0.00    +0.149 HD
ATOM      3  C   UNL     1       8.306  -4.416  23.907  0.00  0.00    +0.246 C 
ATOM      4  O   UNL     1       9.130  -5.159  24.426  0.00  0.00    -0.270 OA
ENDROOT
BRANCH   3   5
ATOM      5  C   UNL     1       6.928  -4.893  23.656  0.00  0.00    +0.055 A 
ATOM      6  C   UNL     1       6.410  -4.788  22.371  0.00  0.00    +0.123 A 
ATOM      7  N   UNL     1       5.167  -5.203  22.023  0.00  0.00    -0.263 NA
ATOM      8  C   UNL     1       4.404  -5.725  23.007  0.00  0.00    +0.111 A 
ATOM      9  C   UNL     1       4.822  -5.848  24.323  0.00  0.00    +0.020 A 
ATOM     10  C   UNL     1       6.106  -5.421  24.654  0.00  0.00    +0.016 A 
ENDBRANCH   3   5
BRANCH   1  11
ATOM     11  C   UNL     1       9.885  -2.528  23.829  0.00  0.00    +0.153 C 
BRANCH  11  12
ATOM     12  C   UNL     1      10.418  -1.661  22.687  0.00  0.00    +0.339 C 
BRANCH  12  13
ATOM     13  O   UNL     1       9.346  -1.398  21.788  0.00  0.00    -0.215 OA
BRANCH  13  15
ATOM     14  O   UNL     1       7.772  -0.075  22.578  0.00  0.00    -0.534 OA
ATOM     15  N   UNL     1       8.824  -0.092  21.942  0.00  0.00    +0.284 N 
ATOM     16  O   UNL     1       9.446   0.833  21.420  0.00  0.00    +0.093 OA
ENDBRANCH  13  15
ENDBRANCH  12  13
ENDBRANCH  11  12
ENDBRANCH   1  11
TORSDOF 5
ENDMDL
MODEL 6
REMARK VINA RESULT:      -4.7      2.239      2.618
REMARK  Name = 
REMARK  5 active torsions:
REMARK  status: ('A' for Active; 'I' for Inactive)
REMARK    1  A    between atoms: N_2  and  O_4
REMARK    2  A    between atoms: O_4  and  C_5
REMARK    3  A    between atoms: C_5  and  C_6
REMARK    4  A    between atoms: C_6  and  N_7
REMARK    5  A    between atoms: C_8  and  C_10
REMARK                            x       y       z     vdW  Elec       q    Type
REMARK                         _______ _______ _______ _____ _____    ______ ____
ROOT
ATOM      1  N   UNL     1       8.031  -2.965  23.072  0.00  0.00    -0.308 N 
ATOM      2  H   UNL     1       7.479  -2.436  22.408  0.00  0.00    +0.149 HD
ATOM      3  C   UNL     1       9.277  -2.489  23.429  0.00  0.00    +0.246 C 
ATOM      4  O   UNL     1      10.127  -3.183  23.974  0.00  0.00    -0.270 OA
ENDROOT
BRANCH   3   5
ATOM      5  C   UNL     1       9.571  -1.078  23.097  0.00  0.00    +0.055 A 
ATOM      6  C   UNL     1      10.175  -0.278  24.060  0.00  0.00    +0.123 A 
ATOM      7  N   UNL     1      10.500   1.023  23.864  0.00  0.00    -0.263 NA
ATOM      8  C   UNL     1      10.188   1.552  22.661  0.00  0.00    +0.111 A 
ATOM      9  C   UNL     1       9.562   0.843  21.647  0.00  0.00    +0.020 A 
ATOM     10  C   UNL     1       9.245  -0.495  21.871  0.00  0.00    +0.016 A 
ENDBRANCH   3   5
BRANCH   1  11
ATOM     11  C   UNL     1       7.679  -4.356  23.286  0.00  0.00    +0.153 C 
BRANCH  11  12
ATOM     12  C   UNL     1       6.262  -4.703  22.822  0.00  0.00    +0.339 C 
BRANCH  12  13
ATOM     13  O   UNL     1       6.036  -6.085  23.075  0.00  0.00    -0.215 OA
BRANCH  13  15
ATOM     14  O   UNL     1       3.915  -5.498  23.152  0.00  0.00    -0.534 OA
ATOM     15  N   UNL     1       4.723  -6.340  23.535  0.00  0.00    +0.284 N 
ATOM     16  O   UNL     1       4.558  -7.324  24.258  0.00  0.00    +0.093 OA
ENDBRANCH  13  15
ENDBRANCH  12  13
ENDBRANCH  11  12
ENDBRANCH   1  11
TORSDOF 5
ENDMDL
MODEL 7
REMARK VINA RESULT:      -4.7      1.637      1.980
REMARK  Name = 
REMARK  5 active torsions:
REMARK  status: ('A' for Active; 'I' for Inactive)
REMARK    1  A    between atoms: N_2  and  O_4
REMARK    2  A    between atoms: O_4  and  C_5
REMARK    3  A    between atoms: C_5  and  C_6
REMARK    4  A    between atoms: C_6  and  N_7
REMARK    5  A    between atoms: C_8  and  C_10
REMARK                            x       y       z     vdW  Elec       q    Type
REMARK                         _______ _______ _______ _____ _____    ______ ____
ROOT
ATOM      1  N   UNL     1       7.649  -2.731  22.937  0.00  0.00    -0.308 N 
ATOM      2  H   UNL     1       6.754  -2.323  22.698  0.00  0.00    +0.149 HD
ATOM      3  C   UNL     1       8.799  -2.010  22.679  0.00  0.00    +0.246 C 
ATOM      4  O   UNL     1       9.913  -2.517  22.649  0.00  0.00    -0.270 OA
ENDROOT
BRANCH   3   5
ATOM      5  C   UNL     1       8.630  -0.566  22.405  0.00  0.00    +0.055 A 
ATOM      6  C   UNL     1       7.447   0.052  22.790  0.00  0.00    +0.123 A 
ATOM      7  N   UNL     1       7.188   1.370  22.602  0.00  0.00    -0.263 NA
ATOM      8  C   UNL     1       8.146   2.093  21.982  0.00  0.00    +0.111 A 
ATOM      9  C   UNL     1       9.346   1.562  21.537  0.00  0.00    +0.020 A 
ATOM     10  C   UNL     1       9.591   0.207  21.750  0.00  0.00    +0.016 A 
ENDBRANCH   3   5
BRANCH   1  11
ATOM     11  C   UNL     1       7.704  -4.166  23.141  0.00  0.00    +0.153 C 
BRANCH  11  12
ATOM     12  C   UNL     1       7.878  -4.566  24.608  0.00  0.00    +0.339 C 
BRANCH  12  13
ATOM     13  O   UNL     1       6.602  -4.928  25.126  0.00  0.00    -0.215 OA
BRANCH  13  15
ATOM     14  O   UNL     1       5.714  -6.495  26.392  0.00  0.00    -0.534 OA
ATOM     15  N   UNL     1       6.701  -5.776  26.253  0.00  0.00    +0.284 N 
ATOM     16  O   UNL     1       7.712  -5.679  26.949  0.00  0.00    +0.093 OA
ENDBRANCH  13  15
ENDBRANCH  12  13
ENDBRANCH  11  12
ENDBRANCH   1  11
TORSDOF 5
ENDMDL
MODEL 8
REMARK VINA RESULT:      -4.6      2.713      5.735
REMARK  Name = 
REMARK  5 active torsions:
REMARK  status: ('A' for Active; 'I' for Inactive)
REMARK    1  A    between atoms: N_2  and  O_4
REMARK    2  A    between atoms: O_4  and  C_5
REMARK    3  A    between atoms: C_5  and  C_6
REMARK    4  A    between atoms: C_6  and  N_7
REMARK    5  A    between atoms: C_8  and  C_10
REMARK                            x       y       z     vdW  Elec       q    Type
REMARK                         _______ _______ _______ _____ _____    ______ ____
ROOT
ATOM      1  N   UNL     1       9.235  -1.831  22.929  0.00  0.00    -0.308 N 
ATOM      2  H   UNL     1      10.020  -1.820  23.567  0.00  0.00    +0.149 HD
ATOM      3  C   UNL     1       8.290  -2.831  23.054  0.00  0.00    +0.246 C 
ATOM      4  O   UNL     1       7.487  -3.107  22.172  0.00  0.00    -0.270 OA
ENDROOT
BRANCH   3   5
ATOM      5  C   UNL     1       8.299  -3.599  24.319  0.00  0.00    +0.055 A 
ATOM      6  C   UNL     1       7.107  -3.745  25.018  0.00  0.00    +0.123 A 
ATOM      7  N   UNL     1       6.994  -4.436  26.179  0.00  0.00    -0.263 NA
ATOM      8  C   UNL     1       8.125  -4.986  26.671  0.00  0.00    +0.111 A 
ATOM      9  C   UNL     1       9.365  -4.873  26.061  0.00  0.00    +0.020 A 
ATOM     10  C   UNL     1       9.453  -4.164  24.865  0.00  0.00    +0.016 A 
ENDBRANCH   3   5
BRANCH   1  11
ATOM     11  C   UNL     1       9.355  -1.075  21.696  0.00  0.00    +0.153 C 
BRANCH  11  12
ATOM     12  C   UNL     1       9.805   0.371  21.912  0.00  0.00    +0.339 C 
BRANCH  12  13
ATOM     13  O   UNL     1       9.350   0.794  23.193  0.00  0.00    -0.215 OA
BRANCH  13  15
ATOM     14  O   UNL     1      10.836   2.271  23.870  0.00  0.00    -0.534 OA
ATOM     15  N   UNL     1      10.416   1.132  24.058  0.00  0.00    +0.284 N 
ATOM     16  O   UNL     1      10.799   0.269  24.850  0.00  0.00    +0.093 OA
ENDBRANCH  13  15
ENDBRANCH  12  13
ENDBRANCH  11  12
ENDBRANCH   1  11
TORSDOF 5
ENDMDL
MODEL 9
REMARK VINA RESULT:      -4.6      3.243      6.293
REMARK  Name = 
REMARK  5 active torsions:
REMARK  status: ('A' for Active; 'I' for Inactive)
REMARK    1  A    between atoms: N_2  and  O_4
REMARK    2  A    between atoms: O_4  and  C_5
REMARK    3  A    between atoms: C_5  and  C_6
REMARK    4  A    between atoms: C_6  and  N_7
REMARK    5  A    between atoms: C_8  and  C_10
REMARK                            x       y       z     vdW  Elec       q    Type
REMARK                         _______ _______ _______ _____ _____    ______ ____
ROOT
ATOM      1  N   UNL     1       8.703  -1.993  24.218  0.00  0.00    -0.308 N 
ATOM      2  H   UNL     1       9.300  -2.810  24.194  0.00  0.00    +0.149 HD
ATOM      3  C   UNL     1       7.603  -1.950  23.383  0.00  0.00    +0.246 C 
ATOM      4  O   UNL     1       7.005  -0.914  23.119  0.00  0.00    -0.270 OA
ENDROOT
BRANCH   3   5
ATOM      5  C   UNL     1       7.176  -3.231  22.779  0.00  0.00    +0.055 A 
ATOM      6  C   UNL     1       6.154  -3.215  21.837  0.00  0.00    +0.123 A 
ATOM      7  N   UNL     1       5.690  -4.324  21.210  0.00  0.00    -0.263 NA
ATOM      8  C   UNL     1       6.257  -5.500  21.558  0.00  0.00    +0.111 A 
ATOM      9  C   UNL     1       7.263  -5.620  22.504  0.00  0.00    +0.020 A 
ATOM     10  C   UNL     1       7.728  -4.465  23.129  0.00  0.00    +0.016 A 
ENDBRANCH   3   5
BRANCH   1  11
ATOM     11  C   UNL     1       9.244  -0.777  24.795  0.00  0.00    +0.153 C 
BRANCH  11  12
ATOM     12  C   UNL     1      10.347  -0.140  23.947  0.00  0.00    +0.339 C 
BRANCH  12  13
ATOM     13  O   UNL     1      10.258   1.274  24.089  0.00  0.00    -0.215 OA
BRANCH  13  15
ATOM     14  O   UNL     1      10.107   1.297  21.892  0.00  0.00    -0.534 OA
ATOM     15  N   UNL     1       9.791   1.905  22.912  0.00  0.00    +0.284 N 
ATOM     16  O   UNL     1       9.170   2.960  23.043  0.00  0.00    +0.093 OA
ENDBRANCH  13  15
ENDBRANCH  12  13
ENDBRANCH  11  12
ENDBRANCH   1  11
TORSDOF 5
ENDMDL
