MODEL 1
REMARK VINA RESULT:      -5.6      0.000      0.000
REMARK  Name = 
REMARK  5 active torsions:
REMARK  status: ('A' for Active; 'I' for Inactive)
REMARK    1  A    between atoms: N_1  and  C_2
REMARK    2  A    between atoms: C_2  and  C_3
REMARK    3  A    between atoms: C_6  and  N_7
REMARK    4  A    between atoms: C_8  and  C_10
REMARK    5  A    between atoms: C_10  and  O_11
REMARK                            x       y       z     vdW  Elec       q    Type
REMARK                         _______ _______ _______ _____ _____    ______ ____
ROOT
ATOM      1  C   UNL     1       9.991   0.585  22.777  0.00  0.00    -0.034 A 
ATOM      2  C   UNL     1      10.012   0.364  24.160  0.00  0.00    +0.007 A 
ATOM      3  C   UNL     1       9.940  -0.938  24.673  0.00  0.00    +0.023 A 
ATOM      4  C   UNL     1       9.869  -2.039  23.813  0.00  0.00    +0.034 A 
ATOM      5  C   UNL     1       9.890  -1.819  22.435  0.00  0.00    +0.023 A 
ATOM      6  C   UNL     1       9.948  -0.522  21.922  0.00  0.00    +0.007 A 
ENDROOT
BRANCH   4   7
ATOM      7  N   UNL     1       9.737  -3.321  24.379  0.00  0.00    -0.276 N 
ATOM      8  H   UNL     1      10.578  -3.888  24.474  0.00  0.00    +0.155 HD
ATOM      9  C   UNL     1       8.575  -3.892  24.851  0.00  0.00    +0.325 C 
ATOM     10  O   UNL     1       7.420  -3.492  24.784  0.00  0.00    -0.263 OA
BRANCH   9  11
ATOM     11  C   UNL     1       8.783  -5.245  25.539  0.00  0.00    +0.393 C 
ATOM     12  O   UNL     1       7.963  -5.738  26.286  0.00  0.00    -0.240 OA
BRANCH  11  13
ATOM     13  O   UNL     1       9.972  -5.774  25.188  0.00  0.00    -0.474 OA
ATOM     14  H   UNL     1      10.678  -5.333  25.721  0.00  0.00    +0.296 HD
ENDBRANCH  11  13
ENDBRANCH   9  11
ENDBRANCH   4   7
BRANCH   1  15
ATOM     15  C   UNL     1       9.957   1.977  22.202  0.00  0.00    +0.113 C 
BRANCH  15  16
ATOM     16  N   UNL     1       8.761   2.166  21.388  0.00  0.00    -0.326 NA
ATOM     17  H   UNL     1       8.282   1.271  21.294  0.00  0.00    +0.119 HD
ATOM     18  H   UNL     1       8.119   2.792  21.866  0.00  0.00    +0.119 HD
ENDBRANCH  15  16
ENDBRANCH   1  15
TORSDOF 5
ENDMDL
MODEL 2
REMARK VINA RESULT:      -5.3      4.770      7.193
REMARK  Name = 
REMARK  5 active torsions:
REMARK  status: ('A' for Active; 'I' for Inactive)
REMARK    1  A    between atoms: N_1  and  C_2
REMARK    2  A    between atoms: C_2  and  C_3
REMARK    3  A    between atoms: C_6  and  N_7
REMARK    4  A    between atoms: C_8  and  C_10
REMARK    5  A    between atoms: C_10  and  O_11
REMARK                            x       y       z     vdW  Elec       q    Type
REMARK                         _______ _______ _______ _____ _____    ______ ____
ROOT
ATOM      1  C   UNL     1       9.688  -0.701  22.991  0.00  0.00    -0.034 A 
ATOM      2  C   UNL     1       9.549   0.117  21.863  0.00  0.00    +0.007 A 
ATOM      3  C   UNL     1       9.858   1.482  21.932  0.00  0.00    +0.023 A 
ATOM      4  C   UNL     1      10.331   2.045  23.122  0.00  0.00    +0.034 A 
ATOM      5  C   UNL     1      10.508   1.220  24.234  0.00  0.00    +0.023 A 
ATOM      6  C   UNL     1      10.187  -0.137  24.170  0.00  0.00    +0.007 A 
ENDROOT
BRANCH   4   7
ATOM      7  N   UNL     1      10.569   3.432  23.156  0.00  0.00    -0.276 N 
ATOM      8  H   UNL     1      11.344   3.796  22.603  0.00  0.00    +0.155 HD
ATOM      9  C   UNL     1       9.837   4.371  23.849  0.00  0.00    +0.325 C 
ATOM     10  O   UNL     1       8.928   4.221  24.656  0.00  0.00    -0.263 OA
BRANCH   9  11
ATOM     11  C   UNL     1      10.260   5.817  23.571  0.00  0.00    +0.393 C 
ATOM     12  O   UNL     1       9.558   6.773  23.834  0.00  0.00    -0.240 OA
BRANCH  11  13
ATOM     13  O   UNL     1      11.487   5.851  23.016  0.00  0.00    -0.474 OA
ATOM     14  H   UNL     1      12.134   5.483  23.667  0.00  0.00    +0.296 HD
ENDBRANCH  11  13
ENDBRANCH   9  11
ENDBRANCH   4   7
BRANCH   1  15
ATOM     15  C   UNL     1       9.260  -2.146  22.975  0.00  0.00    +0.113 C 
BRANCH  15  16
ATOM     16  N   UNL     1      10.107  -2.941  23.858  0.00  0.00    -0.326 NA
ATOM     17  H   UNL     1       9.646  -3.030  24.763  0.00  0.00    +0.119 HD
ATOM     18  H   UNL     1      10.201  -3.881  23.484  0.00  0.00    +0.119 HD
ENDBRANCH  15  16
ENDBRANCH   1  15
TORSDOF 5
ENDMDL
MODEL 3
REMARK VINA RESULT:      -5.2      2.899      3.135
REMARK  Name = 
REMARK  5 active torsions:
REMARK  status: ('A' for Active; 'I' for Inactive)
REMARK    1  A    between atoms: N_1  and  C_2
REMARK    2  A    between atoms: C_2  and  C_3
REMARK    3  A    between atoms: C_6  and  N_7
REMARK    4  A    between atoms: C_8  and  C_10
REMARK    5  A    between atoms: C_10  and  O_11
REMARK                            x       y       z     vdW  Elec       q    Type
REMARK                         _______ _______ _______ _____ _____    ______ ____
ROOT
ATOM      1  C   UNL     1       8.385   0.601  22.249  0.00  0.00    -0.034 A 
ATOM      2  C   UNL     1       7.211   0.212  22.905  0.00  0.00    +0.007 A 
ATOM      3  C   UNL     1       6.885  -1.145  23.033  0.00  0.00    +0.023 A 
ATOM      4  C   UNL     1       7.738  -2.133  22.528  0.00  0.00    +0.034 A 
ATOM      5  C   UNL     1       8.927  -1.743  21.911  0.00  0.00    +0.023 A 
ATOM      6  C   UNL     1       9.246  -0.392  21.770  0.00  0.00    +0.007 A 
ENDROOT
BRANCH   4   7
ATOM      7  N   UNL     1       7.335  -3.478  22.628  0.00  0.00    -0.276 N 
ATOM      8  H   UNL     1       7.833  -4.076  23.286  0.00  0.00    +0.155 HD
ATOM      9  C   UNL     1       6.303  -4.077  21.939  0.00  0.00    +0.325 C 
ATOM     10  O   UNL     1       5.606  -3.640  21.032  0.00  0.00    -0.263 OA
BRANCH   9  11
ATOM     11  C   UNL     1       6.022  -5.519  22.373  0.00  0.00    +0.393 C 
ATOM     12  O   UNL     1       5.988  -5.863  23.537  0.00  0.00    -0.240 OA
BRANCH  11  13
ATOM     13  O   UNL     1       5.823  -6.305  21.297  0.00  0.00    -0.474 OA
ATOM     14  H   UNL     1       6.221  -7.190  21.480  0.00  0.00    +0.296 HD
ENDBRANCH  11  13
ENDBRANCH   9  11
ENDBRANCH   4   7
BRANCH   1  15
ATOM     15  C   UNL     1       8.705   2.053  22.002  0.00  0.00    +0.113 C 
BRANCH  15  16
ATOM     16  N   UNL     1      10.112   2.214  21.648  0.00  0.00    -0.326 NA
ATOM     17  H   UNL     1      10.400   3.167  21.872  0.00  0.00    +0.119 HD
ATOM     18  H   UNL     1      10.680   1.595  22.219  0.00  0.00    +0.119 HD
ENDBRANCH  15  16
ENDBRANCH   1  15
TORSDOF 5
ENDMDL
MODEL 4
REMARK VINA RESULT:      -5.1      4.029      6.304
REMARK  Name = 
REMARK  5 active torsions:
REMARK  status: ('A' for Active; 'I' for Inactive)
REMARK    1  A    between atoms: N_1  and  C_2
REMARK    2  A    between atoms: C_2  and  C_3
REMARK    3  A    between atoms: C_6  and  N_7
REMARK    4  A    between atoms: C_8  and  C_10
REMARK    5  A    between atoms: C_10  and  O_11
REMARK                            x       y       z     vdW  Elec       q    Type
REMARK                         _______ _______ _______ _____ _____    ______ ____
ROOT
ATOM      1  C   UNL     1       4.670  -5.317  22.950  0.00  0.00    -0.034 A 
ATOM      2  C   UNL     1       4.643  -3.997  23.415  0.00  0.00    +0.007 A 
ATOM      3  C   UNL     1       5.727  -3.139  23.183  0.00  0.00    +0.023 A 
ATOM      4  C   UNL     1       6.844  -3.582  22.464  0.00  0.00    +0.034 A 
ATOM      5  C   UNL     1       6.851  -4.886  21.967  0.00  0.00    +0.023 A 
ATOM      6  C   UNL     1       5.777  -5.745  22.210  0.00  0.00    +0.007 A 
ENDROOT
BRANCH   4   7
ATOM      7  N   UNL     1       7.932  -2.701  22.311  0.00  0.00    -0.276 N 
ATOM      8  H   UNL     1       7.881  -2.009  21.566  0.00  0.00    +0.155 HD
ATOM      9  C   UNL     1       9.065  -2.658  23.093  0.00  0.00    +0.325 C 
ATOM     10  O   UNL     1       9.436  -3.413  23.983  0.00  0.00    -0.263 OA
BRANCH   9  11
ATOM     11  C   UNL     1      10.003  -1.492  22.761  0.00  0.00    +0.393 C 
ATOM     12  O   UNL     1      10.414  -0.716  23.600  0.00  0.00    -0.240 OA
BRANCH  11  13
ATOM     13  O   UNL     1      10.287  -1.476  21.444  0.00  0.00    -0.474 OA
ATOM     14  H   UNL     1       9.436  -1.472  20.942  0.00  0.00    +0.296 HD
ENDBRANCH  11  13
ENDBRANCH   9  11
ENDBRANCH   4   7
BRANCH   1  15
ATOM     15  C   UNL     1       3.568  -6.291  23.279  0.00  0.00    +0.113 C 
BRANCH  15  16
ATOM     16  N   UNL     1       4.097  -7.434  24.017  0.00  0.00    -0.326 NA
ATOM     17  H   UNL     1       4.331  -7.134  24.963  0.00  0.00    +0.119 HD
ATOM     18  H   UNL     1       3.378  -8.146  24.104  0.00  0.00    +0.119 HD
ENDBRANCH  15  16
ENDBRANCH   1  15
TORSDOF 5
ENDMDL
MODEL 5
REMARK VINA RESULT:      -5.1      2.695      3.164
REMARK  Name = 
REMARK  5 active torsions:
REMARK  status: ('A' for Active; 'I' for Inactive)
REMARK    1  A    between atoms: N_1  and  C_2
REMARK    2  A    between atoms: C_2  and  C_3
REMARK    3  A    between atoms: C_6  and  N_7
REMARK    4  A    between atoms: C_8  and  C_10
REMARK    5  A    between atoms: C_10  and  O_11
REMARK                            x       y       z     vdW  Elec       q    Type
REMARK                         _______ _______ _______ _____ _____    ______ ____
ROOT
ATOM      1  C   UNL     1      10.001  -0.507  24.023  0.00  0.00    -0.034 A 
ATOM      2  C   UNL     1       9.043  -1.161  24.808  0.00  0.00    +0.007 A 
ATOM      3  C   UNL     1       8.195  -2.122  24.240  0.00  0.00    +0.023 A 
ATOM      4  C   UNL     1       8.307  -2.459  22.886  0.00  0.00    +0.034 A 
ATOM      5  C   UNL     1       9.289  -1.834  22.116  0.00  0.00    +0.023 A 
ATOM      6  C   UNL     1      10.125  -0.867  22.677  0.00  0.00    +0.007 A 
ENDROOT
BRANCH   4   7
ATOM      7  N   UNL     1       7.391  -3.385  22.351  0.00  0.00    -0.276 N 
ATOM      8  H   UNL     1       6.633  -3.024  21.774  0.00  0.00    +0.155 HD
ATOM      9  C   UNL     1       7.427  -4.753  22.505  0.00  0.00    +0.325 C 
ATOM     10  O   UNL     1       8.153  -5.447  23.207  0.00  0.00    -0.263 OA
BRANCH   9  11
ATOM     11  C   UNL     1       6.372  -5.498  21.681  0.00  0.00    +0.393 C 
ATOM     12  O   UNL     1       5.895  -5.049  20.658  0.00  0.00    -0.240 OA
BRANCH  11  13
ATOM     13  O   UNL     1       6.078  -6.682  22.252  0.00  0.00    -0.474 OA
ATOM     14  H   UNL     1       5.291  -6.559  22.838  0.00  0.00    +0.296 HD
ENDBRANCH  11  13
ENDBRANCH   9  11
ENDBRANCH   4   7
BRANCH   1  15
ATOM     15  C   UNL     1      10.850   0.606  24.581  0.00  0.00    +0.113 C 
BRANCH  15  16
ATOM     16  N   UNL     1      10.332   1.905  24.164  0.00  0.00    -0.326 NA
ATOM     17  H   UNL     1      11.109   2.561  24.093  0.00  0.00    +0.119 HD
ATOM     18  H   UNL     1       9.928   1.828  23.234  0.00  0.00    +0.119 HD
ENDBRANCH  15  16
ENDBRANCH   1  15
TORSDOF 5
ENDMDL
MODEL 6
REMARK VINA RESULT:      -5.0      2.042      2.516
REMARK  Name = 
REMARK  5 active torsions:
REMARK  status: ('A' for Active; 'I' for Inactive)
REMARK    1  A    between atoms: N_1  and  C_2
REMARK    2  A    between atoms: C_2  and  C_3
REMARK    3  A    between atoms: C_6  and  N_7
REMARK    4  A    between atoms: C_8  and  C_10
REMARK    5  A    between atoms: C_10  and  O_11
REMARK                            x       y       z     vdW  Elec       q    Type
REMARK                         _______ _______ _______ _____ _____    ______ ____
ROOT
ATOM      1  C   UNL     1      10.353   1.697  23.142  0.00  0.00    -0.034 A 
ATOM      2  C   UNL     1      10.468   0.697  24.115  0.00  0.00    +0.007 A 
ATOM      3  C   UNL     1       9.987  -0.595  23.867  0.00  0.00    +0.023 A 
ATOM      4  C   UNL     1       9.404  -0.913  22.634  0.00  0.00    +0.034 A 
ATOM      5  C   UNL     1       9.327   0.075  21.651  0.00  0.00    +0.023 A 
ATOM      6  C   UNL     1       9.793   1.366  21.903  0.00  0.00    +0.007 A 
ENDROOT
BRANCH   4   7
ATOM      7  N   UNL     1       8.882  -2.208  22.457  0.00  0.00    -0.276 N 
ATOM      8  H   UNL     1       9.515  -2.936  22.129  0.00  0.00    +0.155 HD
ATOM      9  C   UNL     1       7.588  -2.611  22.709  0.00  0.00    +0.325 C 
ATOM     10  O   UNL     1       6.604  -1.948  23.014  0.00  0.00    -0.263 OA
BRANCH   9  11
ATOM     11  C   UNL     1       7.366  -4.118  22.552  0.00  0.00    +0.393 C 
ATOM     12  O   UNL     1       6.851  -4.610  21.568  0.00  0.00    -0.240 OA
BRANCH  11  13
ATOM     13  O   UNL     1       7.820  -4.777  23.636  0.00  0.00    -0.474 OA
ATOM     14  H   UNL     1       7.091  -4.820  24.303  0.00  0.00    +0.296 HD
ENDBRANCH  11  13
ENDBRANCH   9  11
ENDBRANCH   4   7
BRANCH   1  15
ATOM     15  C   UNL     1      10.761   3.121  23.422  0.00  0.00    +0.113 C 
BRANCH  15  16
ATOM     16  N   UNL     1       9.636   4.027  23.218  0.00  0.00    -0.326 NA
ATOM     17  H   UNL     1       9.480   4.138  22.217  0.00  0.00    +0.119 HD
ATOM     18  H   UNL     1       8.791   3.612  23.602  0.00  0.00    +0.119 HD
ENDBRANCH  15  16
ENDBRANCH   1  15
TORSDOF 5
ENDMDL
MODEL 7
REMARK VINA RESULT:      -5.0      3.310      6.129
REMARK  Name = 
REMARK  5 active torsions:
REMARK  status: ('A' for Active; 'I' for Inactive)
REMARK    1  A    between atoms: N_1  and  C_2
REMARK    2  A    between atoms: C_2  and  C_3
REMARK    3  A    between atoms: C_6  and  N_7
REMARK    4  A    between atoms: C_8  and  C_10
REMARK    5  A    between atoms: C_10  and  O_11
REMARK                            x       y       z     vdW  Elec       q    Type
REMARK                         _______ _______ _______ _____ _____    ______ ____
ROOT
ATOM      1  C   UNL     1       8.630  -4.269  24.277  0.00  0.00    -0.034 A 
ATOM      2  C   UNL     1       7.657  -3.915  23.334  0.00  0.00    +0.007 A 
ATOM      3  C   UNL     1       7.742  -2.696  22.648  0.00  0.00    +0.023 A 
ATOM      4  C   UNL     1       8.812  -1.824  22.877  0.00  0.00    +0.034 A 
ATOM      5  C   UNL     1       9.803  -2.197  23.788  0.00  0.00    +0.023 A 
ATOM      6  C   UNL     1       9.711  -3.405  24.482  0.00  0.00    +0.007 A 
ENDROOT
BRANCH   4   7
ATOM      7  N   UNL     1       8.819  -0.585  22.208  0.00  0.00    -0.276 N 
ATOM      8  H   UNL     1       8.767  -0.594  21.191  0.00  0.00    +0.155 HD
ATOM      9  C   UNL     1       8.863   0.661  22.794  0.00  0.00    +0.325 C 
ATOM     10  O   UNL     1       9.022   0.973  23.967  0.00  0.00    -0.263 OA
BRANCH   9  11
ATOM     11  C   UNL     1       8.714   1.819  21.801  0.00  0.00    +0.393 C 
ATOM     12  O   UNL     1       7.637   2.197  21.386  0.00  0.00    -0.240 OA
BRANCH  11  13
ATOM     13  O   UNL     1       9.921   2.327  21.484  0.00  0.00    -0.474 OA
ATOM     14  H   UNL     1       9.791   3.048  20.821  0.00  0.00    +0.296 HD
ENDBRANCH  11  13
ENDBRANCH   9  11
ENDBRANCH   4   7
BRANCH   1  15
ATOM     15  C   UNL     1       8.506  -5.521  25.107  0.00  0.00    +0.113 C 
BRANCH  15  16
ATOM     16  N   UNL     1       9.800  -5.895  25.668  0.00  0.00    -0.326 NA
ATOM     17  H   UNL     1      10.495  -5.210  25.375  0.00  0.00    +0.119 HD
ATOM     18  H   UNL     1       9.756  -5.853  26.682  0.00  0.00    +0.119 HD
ENDBRANCH  15  16
ENDBRANCH   1  15
TORSDOF 5
ENDMDL
MODEL 8
REMARK VINA RESULT:      -5.0      1.503      2.161
REMARK  Name = 
REMARK  5 active torsions:
REMARK  status: ('A' for Active; 'I' for Inactive)
REMARK    1  A    between atoms: N_1  and  C_2
REMARK    2  A    between atoms: C_2  and  C_3
REMARK    3  A    between atoms: C_6  and  N_7
REMARK    4  A    between atoms: C_8  and  C_10
REMARK    5  A    between atoms: C_10  and  O_11
REMARK                            x       y       z     vdW  Elec       q    Type
REMARK                         _______ _______ _______ _____ _____    ______ ____
ROOT
ATOM      1  C   UNL     1       9.913   1.909  23.481  0.00  0.00    -0.034 A 
ATOM      2  C   UNL     1       9.990   1.059  22.371  0.00  0.00    +0.007 A 
ATOM      3  C   UNL     1       9.969  -0.332  22.538  0.00  0.00    +0.023 A 
ATOM      4  C   UNL     1       9.848  -0.893  23.815  0.00  0.00    +0.034 A 
ATOM      5  C   UNL     1       9.731  -0.044  24.916  0.00  0.00    +0.023 A 
ATOM      6  C   UNL     1       9.766   1.342  24.751  0.00  0.00    +0.007 A 
ENDROOT
BRANCH   4   7
ATOM      7  N   UNL     1       9.893  -2.295  23.935  0.00  0.00    -0.276 N 
ATOM      8  H   UNL     1      10.790  -2.756  23.794  0.00  0.00    +0.155 HD
ATOM      9  C   UNL     1       8.839  -3.124  24.254  0.00  0.00    +0.325 C 
ATOM     10  O   UNL     1       7.648  -2.867  24.383  0.00  0.00    -0.263 OA
BRANCH   9  11
ATOM     11  C   UNL     1       9.239  -4.590  24.447  0.00  0.00    +0.393 C 
ATOM     12  O   UNL     1      10.184  -4.932  25.129  0.00  0.00    -0.240 OA
BRANCH  11  13
ATOM     13  O   UNL     1       8.402  -5.400  23.770  0.00  0.00    -0.474 OA
ATOM     14  H   UNL     1       8.102  -6.118  24.380  0.00  0.00    +0.296 HD
ENDBRANCH  11  13
ENDBRANCH   9  11
ENDBRANCH   4   7
BRANCH   1  15
ATOM     15  C   UNL     1      10.044   3.404  23.339  0.00  0.00    +0.113 C 
BRANCH  15  16
ATOM     16  N   UNL     1      11.436   3.778  23.114  0.00  0.00    -0.326 NA
ATOM     17  H   UNL     1      12.030   3.217  23.725  0.00  0.00    +0.119 HD
ATOM     18  H   UNL     1      11.700   3.550  22.160  0.00  0.00    +0.119 HD
ENDBRANCH  15  16
ENDBRANCH   1  15
TORSDOF 5
ENDMDL
MODEL 9
REMARK VINA RESULT:      -4.9      3.511      6.212
REMARK  Name = 
REMARK  5 active torsions:
REMARK  status: ('A' for Active; 'I' for Inactive)
REMARK    1  A    between atoms: N_1  and  C_2
REMARK    2  A    between atoms: C_2  and  C_3
REMARK    3  A    between atoms: C_6  and  N_7
REMARK    4  A    between atoms: C_8  and  C_10
REMARK    5  A    between atoms: C_10  and  O_11
REMARK                            x       y       z     vdW  Elec       q    Type
REMARK                         _______ _______ _______ _____ _____    ______ ____
ROOT
ATOM      1  C   UNL     1       8.761  -3.690  25.848  0.00  0.00    -0.034 A 
ATOM      2  C   UNL     1       9.413  -3.727  24.609  0.00  0.00    +0.007 A 
ATOM      3  C   UNL     1       9.633  -2.547  23.886  0.00  0.00    +0.023 A 
ATOM      4  C   UNL     1       9.225  -1.311  24.401  0.00  0.00    +0.034 A 
ATOM      5  C   UNL     1       8.612  -1.272  25.654  0.00  0.00    +0.023 A 
ATOM      6  C   UNL     1       8.380  -2.449  26.368  0.00  0.00    +0.007 A 
ENDROOT
BRANCH   4   7
ATOM      7  N   UNL     1       9.414  -0.163  23.608  0.00  0.00    -0.276 N 
ATOM      8  H   UNL     1       8.758   0.003  22.847  0.00  0.00    +0.155 HD
ATOM      9  C   UNL     1      10.394   0.792  23.772  0.00  0.00    +0.325 C 
ATOM     10  O   UNL     1      11.358   0.808  24.528  0.00  0.00    -0.263 OA
BRANCH   9  11
ATOM     11  C   UNL     1      10.249   1.997  22.837  0.00  0.00    +0.393 C 
ATOM     12  O   UNL     1      10.432   3.141  23.201  0.00  0.00    -0.240 OA
BRANCH  11  13
ATOM     13  O   UNL     1       9.905   1.593  21.598  0.00  0.00    -0.474 OA
ATOM     14  H   UNL     1       8.980   1.890  21.419  0.00  0.00    +0.296 HD
ENDBRANCH  11  13
ENDBRANCH   9  11
ENDBRANCH   4   7
BRANCH   1  15
ATOM     15  C   UNL     1       8.415  -4.953  26.594  0.00  0.00    +0.113 C 
BRANCH  15  16
ATOM     16  N   UNL     1       7.233  -4.750  27.425  0.00  0.00    -0.326 NA
ATOM     17  H   UNL     1       6.548  -4.210  26.896  0.00  0.00    +0.119 HD
ATOM     18  H   UNL     1       6.802  -5.647  27.630  0.00  0.00    +0.119 HD
ENDBRANCH  15  16
ENDBRANCH   1  15
TORSDOF 5
ENDMDL
