MODEL 1
REMARK VINA RESULT:      -4.8      0.000      0.000
REMARK  Name = 
REMARK  5 active torsions:
REMARK  status: ('A' for Active; 'I' for Inactive)
REMARK    1  A    between atoms: C_1  and  C_2
REMARK    2  A    between atoms: C_5  and  O_7
REMARK    3  A    between atoms: C_8  and  O_10
REMARK    4  A    between atoms: C_11  and  O_13
REMARK    5  A    between atoms: C_14  and  O_16
REMARK                            x       y       z     vdW  Elec       q    Type
REMARK                         _______ _______ _______ _____ _____    ______ ____
ROOT
ATOM      1  C   UNL     1       9.379   1.787  24.577  0.00  0.00    +0.041 C 
ATOM      2  C   UNL     1      10.373   1.114  23.627  0.00  0.00    +0.149 C 
ATOM      3  C   UNL     1      10.035   1.231  22.127  0.00  0.00    +0.174 C 
ATOM      4  C   UNL     1       8.894   0.286  21.728  0.00  0.00    +0.179 C 
ATOM      5  C   UNL     1       9.172  -1.131  22.211  0.00  0.00    +0.201 C 
ATOM      6  C   UNL     1       9.535  -1.129  23.710  0.00  0.00    +0.279 C 
ATOM      7  O   UNL     1      10.609  -0.249  24.009  0.00  0.00    -0.343 OA
ENDROOT
BRANCH   3   8
ATOM      8  O   UNL     1       9.702   2.576  21.771  0.00  0.00    -0.387 OA
ATOM      9  H   UNL     1      10.498   2.939  21.332  0.00  0.00    +0.210 HD
ENDBRANCH   3   8
BRANCH   4  10
ATOM     10  O   UNL     1       7.661   0.793  22.272  0.00  0.00    -0.386 OA
ATOM     11  H   UNL     1       7.722   1.765  22.312  0.00  0.00    +0.210 HD
ENDBRANCH   4  10
BRANCH   5  12
ATOM     12  O   UNL     1      10.244  -1.694  21.439  0.00  0.00    -0.384 OA
ATOM     13  H   UNL     1       9.863  -1.825  20.545  0.00  0.00    +0.210 HD
ENDBRANCH   5  12
BRANCH   6  14
ATOM     14  O   UNL     1       9.974  -2.442  24.037  0.00  0.00    -0.365 OA
ATOM     15  H   UNL     1      10.622  -2.656  23.344  0.00  0.00    +0.213 HD
ENDBRANCH   6  14
TORSDOF 4
ENDMDL
MODEL 2
REMARK VINA RESULT:      -4.6      1.659      3.163
REMARK  Name = 
REMARK  5 active torsions:
REMARK  status: ('A' for Active; 'I' for Inactive)
REMARK    1  A    between atoms: C_1  and  C_2
REMARK    2  A    between atoms: C_5  and  O_7
REMARK    3  A    between atoms: C_8  and  O_10
REMARK    4  A    between atoms: C_11  and  O_13
REMARK    5  A    between atoms: C_14  and  O_16
REMARK                            x       y       z     vdW  Elec       q    Type
REMARK                         _______ _______ _______ _____ _____    ______ ____
ROOT
ATOM      1  C   UNL     1       9.628  -0.494  21.507  0.00  0.00    +0.041 C 
ATOM      2  C   UNL     1       8.659   0.084  22.542  0.00  0.00    +0.149 C 
ATOM      3  C   UNL     1       8.273   1.563  22.331  0.00  0.00    +0.174 C 
ATOM      4  C   UNL     1       9.406   2.508  22.748  0.00  0.00    +0.179 C 
ATOM      5  C   UNL     1       9.904   2.172  24.148  0.00  0.00    +0.201 C 
ATOM      6  C   UNL     1      10.224   0.667  24.259  0.00  0.00    +0.279 C 
ATOM      7  O   UNL     1       9.130  -0.153  23.877  0.00  0.00    -0.343 OA
ENDROOT
BRANCH   3   8
ATOM      8  O   UNL     1       7.900   1.815  20.973  0.00  0.00    -0.387 OA
ATOM      9  H   UNL     1       8.728   2.058  20.512  0.00  0.00    +0.210 HD
ENDBRANCH   3   8
BRANCH   4  10
ATOM     10  O   UNL     1      10.467   2.417  21.778  0.00  0.00    -0.386 OA
ATOM     11  H   UNL     1      10.065   2.295  20.898  0.00  0.00    +0.210 HD
ENDBRANCH   4  10
BRANCH   5  12
ATOM     12  O   UNL     1       8.904   2.542  25.109  0.00  0.00    -0.384 OA
ATOM     13  H   UNL     1       8.570   3.410  24.798  0.00  0.00    +0.210 HD
ENDBRANCH   5  12
BRANCH   6  14
ATOM     14  O   UNL     1      10.485   0.394  25.631  0.00  0.00    -0.365 OA
ATOM     15  H   UNL     1       9.802  -0.251  25.879  0.00  0.00    +0.213 HD
ENDBRANCH   6  14
TORSDOF 4
ENDMDL
MODEL 3
REMARK VINA RESULT:      -4.6      4.580      5.932
REMARK  Name = 
REMARK  5 active torsions:
REMARK  status: ('A' for Active; 'I' for Inactive)
REMARK    1  A    between atoms: C_1  and  C_2
REMARK    2  A    between atoms: C_5  and  O_7
REMARK    3  A    between atoms: C_8  and  O_10
REMARK    4  A    between atoms: C_11  and  O_13
REMARK    5  A    between atoms: C_14  and  O_16
REMARK                            x       y       z     vdW  Elec       q    Type
REMARK                         _______ _______ _______ _____ _____    ______ ____
ROOT
ATOM      1  C   UNL     1       7.894  -3.252  22.993  0.00  0.00    +0.041 C 
ATOM      2  C   UNL     1       7.566  -4.564  23.710  0.00  0.00    +0.149 C 
ATOM      3  C   UNL     1       6.587  -4.440  24.896  0.00  0.00    +0.174 C 
ATOM      4  C   UNL     1       7.269  -3.843  26.133  0.00  0.00    +0.179 C 
ATOM      5  C   UNL     1       8.563  -4.582  26.449  0.00  0.00    +0.201 C 
ATOM      6  C   UNL     1       9.447  -4.681  25.189  0.00  0.00    +0.279 C 
ATOM      7  O   UNL     1       8.765  -5.259  24.087  0.00  0.00    -0.343 OA
ENDROOT
BRANCH   3   8
ATOM      8  O   UNL     1       5.440  -3.661  24.546  0.00  0.00    -0.387 OA
ATOM      9  H   UNL     1       5.188  -3.950  23.646  0.00  0.00    +0.210 HD
ENDBRANCH   3   8
BRANCH   4  10
ATOM     10  O   UNL     1       7.509  -2.442  25.900  0.00  0.00    -0.386 OA
ATOM     11  H   UNL     1       8.465  -2.316  25.757  0.00  0.00    +0.210 HD
ENDBRANCH   4  10
BRANCH   5  12
ATOM     12  O   UNL     1       8.251  -5.893  26.943  0.00  0.00    -0.384 OA
ATOM     13  H   UNL     1       7.635  -6.269  26.279  0.00  0.00    +0.210 HD
ENDBRANCH   5  12
BRANCH   6  14
ATOM     14  O   UNL     1      10.530  -5.548  25.504  0.00  0.00    -0.365 OA
ATOM     15  H   UNL     1      10.413  -6.303  24.902  0.00  0.00    +0.213 HD
ENDBRANCH   6  14
TORSDOF 4
ENDMDL
MODEL 4
REMARK VINA RESULT:      -4.5      1.378      3.242
REMARK  Name = 
REMARK  5 active torsions:
REMARK  status: ('A' for Active; 'I' for Inactive)
REMARK    1  A    between atoms: C_1  and  C_2
REMARK    2  A    between atoms: C_5  and  O_7
REMARK    3  A    between atoms: C_8  and  O_10
REMARK    4  A    between atoms: C_11  and  O_13
REMARK    5  A    between atoms: C_14  and  O_16
REMARK                            x       y       z     vdW  Elec       q    Type
REMARK                         _______ _______ _______ _____ _____    ______ ____
ROOT
ATOM      1  C   UNL     1       9.458  -1.657  24.512  0.00  0.00    +0.041 C 
ATOM      2  C   UNL     1       8.606  -0.513  23.956  0.00  0.00    +0.149 C 
ATOM      3  C   UNL     1       8.198  -0.656  22.475  0.00  0.00    +0.174 C 
ATOM      4  C   UNL     1       9.368  -0.349  21.532  0.00  0.00    +0.179 C 
ATOM      5  C   UNL     1      10.016   0.982  21.889  0.00  0.00    +0.201 C 
ATOM      6  C   UNL     1      10.348   1.033  23.394  0.00  0.00    +0.279 C 
ATOM      7  O   UNL     1       9.221   0.759  24.212  0.00  0.00    -0.343 OA
ENDROOT
BRANCH   3   8
ATOM      8  O   UNL     1       7.679  -1.961  22.201  0.00  0.00    -0.387 OA
ATOM      9  H   UNL     1       6.816  -2.004  22.660  0.00  0.00    +0.210 HD
ENDBRANCH   3   8
BRANCH   4  10
ATOM     10  O   UNL     1      10.317  -1.430  21.603  0.00  0.00    -0.386 OA
ATOM     11  H   UNL     1      10.010  -2.144  21.014  0.00  0.00    +0.210 HD
ENDBRANCH   4  10
BRANCH   5  12
ATOM     12  O   UNL     1       9.125   2.053  21.539  0.00  0.00    -0.384 OA
ATOM     13  H   UNL     1       9.669   2.865  21.622  0.00  0.00    +0.210 HD
ENDBRANCH   5  12
BRANCH   6  14
ATOM     14  O   UNL     1      10.758   2.363  23.689  0.00  0.00    -0.365 OA
ATOM     15  H   UNL     1      11.210   2.288  24.547  0.00  0.00    +0.213 HD
ENDBRANCH   6  14
TORSDOF 4
ENDMDL
MODEL 5
REMARK VINA RESULT:      -4.4      2.983      4.117
REMARK  Name = 
REMARK  5 active torsions:
REMARK  status: ('A' for Active; 'I' for Inactive)
REMARK    1  A    between atoms: C_1  and  C_2
REMARK    2  A    between atoms: C_5  and  O_7
REMARK    3  A    between atoms: C_8  and  O_10
REMARK    4  A    between atoms: C_11  and  O_13
REMARK    5  A    between atoms: C_14  and  O_16
REMARK                            x       y       z     vdW  Elec       q    Type
REMARK                         _______ _______ _______ _____ _____    ______ ____
ROOT
ATOM      1  C   UNL     1       9.435  -1.322  24.753  0.00  0.00    +0.041 C 
ATOM      2  C   UNL     1       9.527  -2.390  23.660  0.00  0.00    +0.149 C 
ATOM      3  C   UNL     1       8.192  -2.749  22.975  0.00  0.00    +0.174 C 
ATOM      4  C   UNL     1       7.314  -3.630  23.872  0.00  0.00    +0.179 C 
ATOM      5  C   UNL     1       8.102  -4.823  24.398  0.00  0.00    +0.201 C 
ATOM      6  C   UNL     1       9.430  -4.355  25.027  0.00  0.00    +0.279 C 
ATOM      7  O   UNL     1      10.204  -3.561  24.140  0.00  0.00    -0.343 OA
ENDROOT
BRANCH   3   8
ATOM      8  O   UNL     1       7.472  -1.575  22.588  0.00  0.00    -0.387 OA
ATOM      9  H   UNL     1       6.902  -1.847  21.842  0.00  0.00    +0.210 HD
ENDBRANCH   3   8
BRANCH   4  10
ATOM     10  O   UNL     1       6.798  -2.826  24.950  0.00  0.00    -0.386 OA
ATOM     11  H   UNL     1       6.189  -2.165  24.572  0.00  0.00    +0.210 HD
ENDBRANCH   4  10
BRANCH   5  12
ATOM     12  O   UNL     1       8.354  -5.737  23.320  0.00  0.00    -0.384 OA
ATOM     13  H   UNL     1       8.829  -5.203  22.649  0.00  0.00    +0.210 HD
ENDBRANCH   5  12
BRANCH   6  14
ATOM     14  O   UNL     1      10.194  -5.522  25.308  0.00  0.00    -0.365 OA
ATOM     15  H   UNL     1      10.808  -5.592  24.557  0.00  0.00    +0.213 HD
ENDBRANCH   6  14
TORSDOF 4
ENDMDL
MODEL 6
REMARK VINA RESULT:      -4.3      1.445      1.789
REMARK  Name = 
REMARK  5 active torsions:
REMARK  status: ('A' for Active; 'I' for Inactive)
REMARK    1  A    between atoms: C_1  and  C_2
REMARK    2  A    between atoms: C_5  and  O_7
REMARK    3  A    between atoms: C_8  and  O_10
REMARK    4  A    between atoms: C_11  and  O_13
REMARK    5  A    between atoms: C_14  and  O_16
REMARK                            x       y       z     vdW  Elec       q    Type
REMARK                         _______ _______ _______ _____ _____    ______ ____
ROOT
ATOM      1  C   UNL     1       8.136   2.131  24.446  0.00  0.00    +0.041 C 
ATOM      2  C   UNL     1       9.189   1.028  24.311  0.00  0.00    +0.149 C 
ATOM      3  C   UNL     1      10.362   1.348  23.361  0.00  0.00    +0.174 C 
ATOM      4  C   UNL     1       9.945   1.239  21.890  0.00  0.00    +0.179 C 
ATOM      5  C   UNL     1       9.252  -0.090  21.620  0.00  0.00    +0.201 C 
ATOM      6  C   UNL     1       8.124  -0.326  22.646  0.00  0.00    +0.279 C 
ATOM      7  O   UNL     1       8.578  -0.231  23.987  0.00  0.00    -0.343 OA
ENDROOT
BRANCH   3   8
ATOM      8  O   UNL     1      10.903   2.646  23.622  0.00  0.00    -0.387 OA
ATOM      9  H   UNL     1      10.138   3.212  23.847  0.00  0.00    +0.210 HD
ENDBRANCH   3   8
BRANCH   4  10
ATOM     10  O   UNL     1       9.091   2.352  21.566  0.00  0.00    -0.386 OA
ATOM     11  H   UNL     1       9.318   3.093  22.158  0.00  0.00    +0.210 HD
ENDBRANCH   4  10
BRANCH   5  12
ATOM     12  O   UNL     1      10.216  -1.151  21.686  0.00  0.00    -0.384 OA
ATOM     13  H   UNL     1      10.783  -1.019  20.897  0.00  0.00    +0.210 HD
ENDBRANCH   5  12
BRANCH   6  14
ATOM     14  O   UNL     1       7.662  -1.659  22.461  0.00  0.00    -0.365 OA
ATOM     15  H   UNL     1       8.469  -2.200  22.511  0.00  0.00    +0.213 HD
ENDBRANCH   6  14
TORSDOF 4
ENDMDL
MODEL 7
REMARK VINA RESULT:      -4.3      3.789      5.193
REMARK  Name = 
REMARK  5 active torsions:
REMARK  status: ('A' for Active; 'I' for Inactive)
REMARK    1  A    between atoms: C_1  and  C_2
REMARK    2  A    between atoms: C_5  and  O_7
REMARK    3  A    between atoms: C_8  and  O_10
REMARK    4  A    between atoms: C_11  and  O_13
REMARK    5  A    between atoms: C_14  and  O_16
REMARK                            x       y       z     vdW  Elec       q    Type
REMARK                         _______ _______ _______ _____ _____    ______ ____
ROOT
ATOM      1  C   UNL     1       7.164  -2.036  25.934  0.00  0.00    +0.041 C 
ATOM      2  C   UNL     1       8.532  -2.710  26.074  0.00  0.00    +0.149 C 
ATOM      3  C   UNL     1       9.191  -3.145  24.749  0.00  0.00    +0.174 C 
ATOM      4  C   UNL     1       8.538  -4.410  24.180  0.00  0.00    +0.179 C 
ATOM      5  C   UNL     1       8.456  -5.501  25.240  0.00  0.00    +0.201 C 
ATOM      6  C   UNL     1       7.817  -4.950  26.531  0.00  0.00    +0.279 C 
ATOM      7  O   UNL     1       8.479  -3.792  27.016  0.00  0.00    -0.343 OA
ENDROOT
BRANCH   3   8
ATOM      8  O   UNL     1       9.152  -2.095  23.778  0.00  0.00    -0.387 OA
ATOM      9  H   UNL     1       8.566  -2.417  23.064  0.00  0.00    +0.210 HD
ENDBRANCH   3   8
BRANCH   4  10
ATOM     10  O   UNL     1       7.233  -4.071  23.674  0.00  0.00    -0.386 OA
ATOM     11  H   UNL     1       7.227  -4.234  22.713  0.00  0.00    +0.210 HD
ENDBRANCH   4  10
BRANCH   5  12
ATOM     12  O   UNL     1       9.775  -6.000  25.510  0.00  0.00    -0.384 OA
ATOM     13  H   UNL     1      10.323  -5.665  24.770  0.00  0.00    +0.210 HD
ENDBRANCH   5  12
BRANCH   6  14
ATOM     14  O   UNL     1       7.958  -5.954  27.530  0.00  0.00    -0.365 OA
ATOM     15  H   UNL     1       7.075  -6.013  27.934  0.00  0.00    +0.213 HD
ENDBRANCH   6  14
TORSDOF 4
ENDMDL
MODEL 8
REMARK VINA RESULT:      -4.3      1.632      3.277
REMARK  Name = 
REMARK  5 active torsions:
REMARK  status: ('A' for Active; 'I' for Inactive)
REMARK    1  A    between atoms: C_1  and  C_2
REMARK    2  A    between atoms: C_5  and  O_7
REMARK    3  A    between atoms: C_8  and  O_10
REMARK    4  A    between atoms: C_11  and  O_13
REMARK    5  A    between atoms: C_14  and  O_16
REMARK                            x       y       z     vdW  Elec       q    Type
REMARK                         _______ _______ _______ _____ _____    ______ ____
ROOT
ATOM      1  C   UNL     1       8.812   0.946  21.193  0.00  0.00    +0.041 C 
ATOM      2  C   UNL     1       9.958   0.863  22.203  0.00  0.00    +0.149 C 
ATOM      3  C   UNL     1      10.219  -0.539  22.791  0.00  0.00    +0.174 C 
ATOM      4  C   UNL     1       9.164  -0.920  23.838  0.00  0.00    +0.179 C 
ATOM      5  C   UNL     1       9.005   0.186  24.873  0.00  0.00    +0.201 C 
ATOM      6  C   UNL     1       8.788   1.546  24.179  0.00  0.00    +0.279 C 
ATOM      7  O   UNL     1       9.806   1.848  23.237  0.00  0.00    -0.343 OA
ENDROOT
BRANCH   3   8
ATOM      8  O   UNL     1      10.270  -1.533  21.764  0.00  0.00    -0.387 OA
ATOM      9  H   UNL     1       9.911  -2.350  22.167  0.00  0.00    +0.210 HD
ENDBRANCH   3   8
BRANCH   4  10
ATOM     10  O   UNL     1       7.920  -1.192  23.165  0.00  0.00    -0.386 OA
ATOM     11  H   UNL     1       7.493  -0.340  22.959  0.00  0.00    +0.210 HD
ENDBRANCH   4  10
BRANCH   5  12
ATOM     12  O   UNL     1      10.176   0.232  25.703  0.00  0.00    -0.384 OA
ATOM     13  H   UNL     1      10.383   1.187  25.786  0.00  0.00    +0.210 HD
ENDBRANCH   5  12
BRANCH   6  14
ATOM     14  O   UNL     1       8.850   2.547  25.188  0.00  0.00    -0.365 OA
ATOM     15  H   UNL     1       8.656   3.374  24.715  0.00  0.00    +0.213 HD
ENDBRANCH   6  14
TORSDOF 4
ENDMDL
MODEL 9
REMARK VINA RESULT:      -4.3      1.610      3.435
REMARK  Name = 
REMARK  5 active torsions:
REMARK  status: ('A' for Active; 'I' for Inactive)
REMARK    1  A    between atoms: C_1  and  C_2
REMARK    2  A    between atoms: C_5  and  O_7
REMARK    3  A    between atoms: C_8  and  O_10
REMARK    4  A    between atoms: C_11  and  O_13
REMARK    5  A    between atoms: C_14  and  O_16
REMARK                            x       y       z     vdW  Elec       q    Type
REMARK                         _______ _______ _______ _____ _____    ______ ____
ROOT
ATOM      1  C   UNL     1       8.187  -0.675  24.411  0.00  0.00    +0.041 C 
ATOM      2  C   UNL     1       9.430  -0.345  23.581  0.00  0.00    +0.149 C 
ATOM      3  C   UNL     1      10.367   0.719  24.190  0.00  0.00    +0.174 C 
ATOM      4  C   UNL     1       9.793   2.133  24.036  0.00  0.00    +0.179 C 
ATOM      5  C   UNL     1       9.381   2.396  22.594  0.00  0.00    +0.201 C 
ATOM      6  C   UNL     1       8.480   1.257  22.075  0.00  0.00    +0.279 C 
ATOM      7  O   UNL     1       9.076  -0.023  22.228  0.00  0.00    -0.343 OA
ENDROOT
BRANCH   3   8
ATOM      8  O   UNL     1      10.637   0.448  25.568  0.00  0.00    -0.387 OA
ATOM      9  H   UNL     1       9.813   0.065  25.930  0.00  0.00    +0.210 HD
ENDBRANCH   3   8
BRANCH   4  10
ATOM     10  O   UNL     1       8.678   2.281  24.936  0.00  0.00    -0.386 OA
ATOM     11  H   UNL     1       8.985   2.766  25.724  0.00  0.00    +0.210 HD
ENDBRANCH   4  10
BRANCH   5  12
ATOM     12  O   UNL     1      10.556   2.513  21.778  0.00  0.00    -0.384 OA
ATOM     13  H   UNL     1      11.289   2.640  22.417  0.00  0.00    +0.210 HD
ENDBRANCH   5  12
BRANCH   6  14
ATOM     14  O   UNL     1       8.304   1.465  20.678  0.00  0.00    -0.365 OA
ATOM     15  H   UNL     1       9.124   1.125  20.282  0.00  0.00    +0.213 HD
ENDBRANCH   6  14
TORSDOF 4
ENDMDL
