MODEL 1
REMARK VINA RESULT:      -5.1      0.000      0.000
REMARK  Name = 
REMARK  3 active torsions:
REMARK  status: ('A' for Active; 'I' for Inactive)
REMARK    1  A    between atoms: O_1  and  C_2
REMARK    2  A    between atoms: C_5  and  N_9
REMARK    3  A    between atoms: C_7  and  O_8
REMARK                            x       y       z     vdW  Elec       q    Type
REMARK                         _______ _______ _______ _____ _____    ______ ____
ROOT
ATOM      1  C   UNL     1       9.961   0.908  22.095  0.00  0.00    +0.159 A 
ATOM      2  C   UNL     1      10.309   0.638  23.422  0.00  0.00    +0.165 A 
ATOM      3  C   UNL     1      10.063  -0.615  23.976  0.00  0.00    +0.133 A 
ATOM      4  C   UNL     1       9.461  -1.601  23.180  0.00  0.00    +0.277 A 
ATOM      5  C   UNL     1       9.114  -1.336  21.847  0.00  0.00    +0.088 A 
ATOM      6  C   UNL     1       9.368  -0.074  21.304  0.00  0.00    +0.056 A 
ENDROOT
BRANCH   4   7
ATOM      7  N   UNL     1       9.187  -2.925  23.752  0.00  0.00    +0.080 N 
ATOM      8  O   UNL     1      10.151  -3.581  24.173  0.00  0.00    +0.041 OA
ATOM      9  O   UNL     1       8.009  -3.307  23.783  0.00  0.00    -0.576 OA
ENDBRANCH   4   7
BRANCH   1  10
ATOM     10  O   UNL     1      10.209   2.150  21.582  0.00  0.00    -0.503 OA
ATOM     11  H   UNL     1       9.704   2.813  22.077  0.00  0.00    +0.292 HD
ENDBRANCH   1  10
BRANCH   2  12
ATOM     12  O   UNL     1      10.890   1.622  24.171  0.00  0.00    -0.503 OA
ATOM     13  H   UNL     1      10.744   1.450  25.115  0.00  0.00    +0.292 HD
ENDBRANCH   2  12
TORSDOF 3
ENDMDL
MODEL 2
REMARK VINA RESULT:      -5.0      1.006      2.144
REMARK  Name = 
REMARK  3 active torsions:
REMARK  status: ('A' for Active; 'I' for Inactive)
REMARK    1  A    between atoms: O_1  and  C_2
REMARK    2  A    between atoms: C_5  and  N_9
REMARK    3  A    between atoms: C_7  and  O_8
REMARK                            x       y       z     vdW  Elec       q    Type
REMARK                         _______ _______ _______ _____ _____    ______ ____
ROOT
ATOM      1  C   UNL     1      10.445   1.749  23.595  0.00  0.00    +0.159 A 
ATOM      2  C   UNL     1       9.918   1.256  22.398  0.00  0.00    +0.165 A 
ATOM      3  C   UNL     1       9.566  -0.086  22.279  0.00  0.00    +0.133 A 
ATOM      4  C   UNL     1       9.750  -0.934  23.381  0.00  0.00    +0.277 A 
ATOM      5  C   UNL     1      10.276  -0.444  24.586  0.00  0.00    +0.088 A 
ATOM      6  C   UNL     1      10.623   0.905  24.691  0.00  0.00    +0.056 A 
ENDROOT
BRANCH   4   7
ATOM      7  N   UNL     1       9.392  -2.354  23.270  0.00  0.00    +0.080 N 
ATOM      8  O   UNL     1      10.049  -3.166  23.937  0.00  0.00    +0.041 OA
ATOM      9  O   UNL     1       8.455  -2.654  22.519  0.00  0.00    -0.576 OA
ENDBRANCH   4   7
BRANCH   1  10
ATOM     10  O   UNL     1      10.788   3.068  23.679  0.00  0.00    -0.503 OA
ATOM     11  H   UNL     1      10.255   3.582  23.052  0.00  0.00    +0.292 HD
ENDBRANCH   1  10
BRANCH   2  12
ATOM     12  O   UNL     1       9.755   2.109  21.342  0.00  0.00    -0.503 OA
ATOM     13  H   UNL     1      10.160   2.967  21.543  0.00  0.00    +0.292 HD
ENDBRANCH   2  12
TORSDOF 3
ENDMDL
MODEL 3
REMARK VINA RESULT:      -4.7      5.331      6.366
REMARK  Name = 
REMARK  3 active torsions:
REMARK  status: ('A' for Active; 'I' for Inactive)
REMARK    1  A    between atoms: O_1  and  C_2
REMARK    2  A    between atoms: C_5  and  N_9
REMARK    3  A    between atoms: C_7  and  O_8
REMARK                            x       y       z     vdW  Elec       q    Type
REMARK                         _______ _______ _______ _____ _____    ______ ____
ROOT
ATOM      1  C   UNL     1       7.741  -5.448  25.965  0.00  0.00    +0.159 A 
ATOM      2  C   UNL     1       8.537  -5.289  24.827  0.00  0.00    +0.165 A 
ATOM      3  C   UNL     1       7.954  -5.104  23.576  0.00  0.00    +0.133 A 
ATOM      4  C   UNL     1       6.555  -5.082  23.479  0.00  0.00    +0.277 A 
ATOM      5  C   UNL     1       5.751  -5.237  24.618  0.00  0.00    +0.088 A 
ATOM      6  C   UNL     1       6.351  -5.420  25.867  0.00  0.00    +0.056 A 
ENDROOT
BRANCH   4   7
ATOM      7  N   UNL     1       5.924  -4.896  22.165  0.00  0.00    +0.080 N 
ATOM      8  O   UNL     1       5.209  -3.896  22.007  0.00  0.00    +0.041 OA
ATOM      9  O   UNL     1       6.145  -5.748  21.295  0.00  0.00    -0.576 OA
ENDBRANCH   4   7
BRANCH   1  10
ATOM     10  O   UNL     1       8.342  -5.634  27.177  0.00  0.00    -0.503 OA
ATOM     11  H   UNL     1       9.043  -4.975  27.297  0.00  0.00    +0.292 HD
ENDBRANCH   1  10
BRANCH   2  12
ATOM     12  O   UNL     1       9.897  -5.320  24.956  0.00  0.00    -0.503 OA
ATOM     13  H   UNL     1      10.282  -4.496  24.615  0.00  0.00    +0.292 HD
ENDBRANCH   2  12
TORSDOF 3
ENDMDL
MODEL 4
REMARK VINA RESULT:      -4.7      2.584      4.831
REMARK  Name = 
REMARK  3 active torsions:
REMARK  status: ('A' for Active; 'I' for Inactive)
REMARK    1  A    between atoms: O_1  and  C_2
REMARK    2  A    between atoms: C_5  and  N_9
REMARK    3  A    between atoms: C_7  and  O_8
REMARK                            x       y       z     vdW  Elec       q    Type
REMARK                         _______ _______ _______ _____ _____    ______ ____
ROOT
ATOM      1  C   UNL     1      10.226  -0.845  23.049  0.00  0.00    +0.159 A 
ATOM      2  C   UNL     1       9.873  -0.033  21.967  0.00  0.00    +0.165 A 
ATOM      3  C   UNL     1       9.939   1.355  22.073  0.00  0.00    +0.133 A 
ATOM      4  C   UNL     1      10.365   1.921  23.283  0.00  0.00    +0.277 A 
ATOM      5  C   UNL     1      10.724   1.111  24.370  0.00  0.00    +0.088 A 
ATOM      6  C   UNL     1      10.654  -0.279  24.249  0.00  0.00    +0.056 A 
ENDROOT
BRANCH   4   7
ATOM      7  N   UNL     1      10.432   3.382  23.414  0.00  0.00    +0.080 N 
ATOM      8  O   UNL     1       9.365   3.996  23.565  0.00  0.00    +0.041 OA
ATOM      9  O   UNL     1      11.549   3.914  23.368  0.00  0.00    -0.576 OA
ENDBRANCH   4   7
BRANCH   1  10
ATOM     10  O   UNL     1      10.144  -2.202  22.916  0.00  0.00    -0.503 OA
ATOM     11  H   UNL     1      10.511  -2.467  22.059  0.00  0.00    +0.292 HD
ENDBRANCH   1  10
BRANCH   2  12
ATOM     12  O   UNL     1       9.458  -0.617  20.803  0.00  0.00    -0.503 OA
ATOM     13  H   UNL     1      10.150  -1.209  20.465  0.00  0.00    +0.292 HD
ENDBRANCH   2  12
TORSDOF 3
ENDMDL
MODEL 5
REMARK VINA RESULT:      -4.5      1.992      2.649
REMARK  Name = 
REMARK  3 active torsions:
REMARK  status: ('A' for Active; 'I' for Inactive)
REMARK    1  A    between atoms: O_1  and  C_2
REMARK    2  A    between atoms: C_5  and  N_9
REMARK    3  A    between atoms: C_7  and  O_8
REMARK                            x       y       z     vdW  Elec       q    Type
REMARK                         _______ _______ _______ _____ _____    ______ ____
ROOT
ATOM      1  C   UNL     1       9.875   1.215  22.572  0.00  0.00    +0.159 A 
ATOM      2  C   UNL     1       9.641  -0.144  22.345  0.00  0.00    +0.165 A 
ATOM      3  C   UNL     1       9.332  -0.995  23.404  0.00  0.00    +0.133 A 
ATOM      4  C   UNL     1       9.261  -0.464  24.700  0.00  0.00    +0.277 A 
ATOM      5  C   UNL     1       9.491   0.901  24.933  0.00  0.00    +0.088 A 
ATOM      6  C   UNL     1       9.799   1.742  23.860  0.00  0.00    +0.056 A 
ENDROOT
BRANCH   4   7
ATOM      7  N   UNL     1       8.945  -1.349  25.828  0.00  0.00    +0.080 N 
ATOM      8  O   UNL     1       8.655  -2.526  25.572  0.00  0.00    +0.041 OA
ATOM      9  O   UNL     1       8.991  -0.867  26.968  0.00  0.00    -0.576 OA
ENDBRANCH   4   7
BRANCH   1  10
ATOM     10  O   UNL     1      10.183   2.023  21.514  0.00  0.00    -0.503 OA
ATOM     11  H   UNL     1       9.404   2.546  21.267  0.00  0.00    +0.292 HD
ENDBRANCH   1  10
BRANCH   2  12
ATOM     12  O   UNL     1       9.722  -0.630  21.070  0.00  0.00    -0.503 OA
ATOM     13  H   UNL     1      10.350  -0.101  20.553  0.00  0.00    +0.292 HD
ENDBRANCH   2  12
TORSDOF 3
ENDMDL
MODEL 6
REMARK VINA RESULT:      -4.5      2.128      2.516
REMARK  Name = 
REMARK  3 active torsions:
REMARK  status: ('A' for Active; 'I' for Inactive)
REMARK    1  A    between atoms: O_1  and  C_2
REMARK    2  A    between atoms: C_5  and  N_9
REMARK    3  A    between atoms: C_7  and  O_8
REMARK                            x       y       z     vdW  Elec       q    Type
REMARK                         _______ _______ _______ _____ _____    ______ ____
ROOT
ATOM      1  C   UNL     1       8.342   2.092  22.104  0.00  0.00    +0.159 A 
ATOM      2  C   UNL     1       7.345   1.194  22.496  0.00  0.00    +0.165 A 
ATOM      3  C   UNL     1       7.640  -0.155  22.677  0.00  0.00    +0.133 A 
ATOM      4  C   UNL     1       8.954  -0.595  22.458  0.00  0.00    +0.277 A 
ATOM      5  C   UNL     1       9.959   0.303  22.069  0.00  0.00    +0.088 A 
ATOM      6  C   UNL     1       9.648   1.654  21.892  0.00  0.00    +0.056 A 
ENDROOT
BRANCH   4   7
ATOM      7  N   UNL     1       9.280  -2.016  22.637  0.00  0.00    +0.080 N 
ATOM      8  O   UNL     1      10.474  -2.319  22.775  0.00  0.00    +0.041 OA
ATOM      9  O   UNL     1       8.344  -2.826  22.641  0.00  0.00    -0.576 OA
ENDBRANCH   4   7
BRANCH   1  10
ATOM     10  O   UNL     1       8.020   3.408  21.928  0.00  0.00    -0.503 OA
ATOM     11  H   UNL     1       7.898   3.831  22.791  0.00  0.00    +0.292 HD
ENDBRANCH   1  10
BRANCH   2  12
ATOM     12  O   UNL     1       6.074   1.655  22.696  0.00  0.00    -0.503 OA
ATOM     13  H   UNL     1       5.431   0.977  22.434  0.00  0.00    +0.292 HD
ENDBRANCH   2  12
TORSDOF 3
ENDMDL
MODEL 7
REMARK VINA RESULT:      -4.4      3.275      5.623
REMARK  Name = 
REMARK  3 active torsions:
REMARK  status: ('A' for Active; 'I' for Inactive)
REMARK    1  A    between atoms: O_1  and  C_2
REMARK    2  A    between atoms: C_5  and  N_9
REMARK    3  A    between atoms: C_7  and  O_8
REMARK                            x       y       z     vdW  Elec       q    Type
REMARK                         _______ _______ _______ _____ _____    ______ ____
ROOT
ATOM      1  C   UNL     1       8.299  -4.761  26.452  0.00  0.00    +0.159 A 
ATOM      2  C   UNL     1       9.245  -4.826  25.424  0.00  0.00    +0.165 A 
ATOM      3  C   UNL     1       9.546  -3.695  24.669  0.00  0.00    +0.133 A 
ATOM      4  C   UNL     1       8.885  -2.493  24.957  0.00  0.00    +0.277 A 
ATOM      5  C   UNL     1       7.939  -2.421  25.990  0.00  0.00    +0.088 A 
ATOM      6  C   UNL     1       7.647  -3.563  26.740  0.00  0.00    +0.056 A 
ENDROOT
BRANCH   4   7
ATOM      7  N   UNL     1       9.186  -1.293  24.164  0.00  0.00    +0.080 N 
ATOM      8  O   UNL     1       9.800  -0.373  24.723  0.00  0.00    +0.041 OA
ATOM      9  O   UNL     1       8.811  -1.275  22.984  0.00  0.00    -0.576 OA
ENDBRANCH   4   7
BRANCH   1  10
ATOM     10  O   UNL     1       8.019  -5.888  27.171  0.00  0.00    -0.503 OA
ATOM     11  H   UNL     1       7.916  -5.659  28.107  0.00  0.00    +0.292 HD
ENDBRANCH   1  10
BRANCH   2  12
ATOM     12  O   UNL     1       9.867  -6.015  25.167  0.00  0.00    -0.503 OA
ATOM     13  H   UNL     1       9.621  -6.333  24.283  0.00  0.00    +0.292 HD
ENDBRANCH   2  12
TORSDOF 3
ENDMDL
MODEL 8
REMARK VINA RESULT:      -4.4      5.558      6.755
REMARK  Name = 
REMARK  3 active torsions:
REMARK  status: ('A' for Active; 'I' for Inactive)
REMARK    1  A    between atoms: O_1  and  C_2
REMARK    2  A    between atoms: C_5  and  N_9
REMARK    3  A    between atoms: C_7  and  O_8
REMARK                            x       y       z     vdW  Elec       q    Type
REMARK                         _______ _______ _______ _____ _____    ______ ____
ROOT
ATOM      1  C   UNL     1       5.462  -5.835  23.363  0.00  0.00    +0.159 A 
ATOM      2  C   UNL     1       6.744  -5.280  23.323  0.00  0.00    +0.165 A 
ATOM      3  C   UNL     1       7.468  -5.084  24.497  0.00  0.00    +0.133 A 
ATOM      4  C   UNL     1       6.887  -5.455  25.719  0.00  0.00    +0.277 A 
ATOM      5  C   UNL     1       5.603  -6.017  25.765  0.00  0.00    +0.088 A 
ATOM      6  C   UNL     1       4.889  -6.207  24.578  0.00  0.00    +0.056 A 
ENDROOT
BRANCH   4   7
ATOM      7  N   UNL     1       7.634  -5.248  26.967  0.00  0.00    +0.080 N 
ATOM      8  O   UNL     1       7.341  -5.962  27.937  0.00  0.00    +0.041 OA
ATOM      9  O   UNL     1       8.512  -4.376  26.974  0.00  0.00    -0.576 OA
ENDBRANCH   4   7
BRANCH   1  10
ATOM     10  O   UNL     1       4.775  -6.008  22.196  0.00  0.00    -0.503 OA
ATOM     11  H   UNL     1       4.597  -5.144  21.793  0.00  0.00    +0.292 HD
ENDBRANCH   1  10
BRANCH   2  12
ATOM     12  O   UNL     1       7.279  -4.926  22.116  0.00  0.00    -0.503 OA
ATOM     13  H   UNL     1       7.839  -4.140  22.219  0.00  0.00    +0.292 HD
ENDBRANCH   2  12
TORSDOF 3
ENDMDL
MODEL 9
REMARK VINA RESULT:      -4.4      5.565      7.108
REMARK  Name = 
REMARK  3 active torsions:
REMARK  status: ('A' for Active; 'I' for Inactive)
REMARK    1  A    between atoms: O_1  and  C_2
REMARK    2  A    between atoms: C_5  and  N_9
REMARK    3  A    between atoms: C_7  and  O_8
REMARK                            x       y       z     vdW  Elec       q    Type
REMARK                         _______ _______ _______ _____ _____    ______ ____
ROOT
ATOM      1  C   UNL     1       7.186  -5.419  26.259  0.00  0.00    +0.159 A 
ATOM      2  C   UNL     1       5.914  -5.988  26.140  0.00  0.00    +0.165 A 
ATOM      3  C   UNL     1       5.101  -5.679  25.052  0.00  0.00    +0.133 A 
ATOM      4  C   UNL     1       5.580  -4.788  24.080  0.00  0.00    +0.277 A 
ATOM      5  C   UNL     1       6.857  -4.218  24.193  0.00  0.00    +0.088 A 
ATOM      6  C   UNL     1       7.662  -4.538  25.289  0.00  0.00    +0.056 A 
ENDROOT
BRANCH   4   7
ATOM      7  N   UNL     1       4.731  -4.446  22.931  0.00  0.00    +0.080 N 
ATOM      8  O   UNL     1       5.135  -3.562  22.162  0.00  0.00    +0.041 OA
ATOM      9  O   UNL     1       3.666  -5.062  22.799  0.00  0.00    -0.576 OA
ENDBRANCH   4   7
BRANCH   1  10
ATOM     10  O   UNL     1       7.957  -5.736  27.341  0.00  0.00    -0.503 OA
ATOM     11  H   UNL     1       8.362  -6.606  27.208  0.00  0.00    +0.292 HD
ENDBRANCH   1  10
BRANCH   2  12
ATOM     12  O   UNL     1       5.476  -6.848  27.106  0.00  0.00    -0.503 OA
ATOM     13  H   UNL     1       5.366  -6.375  27.947  0.00  0.00    +0.292 HD
ENDBRANCH   2  12
TORSDOF 3
ENDMDL
