MODEL 1
REMARK VINA RESULT:      -7.8      0.000      0.000
REMARK  Name = 
REMARK  7 active torsions:
REMARK  status: ('A' for Active; 'I' for Inactive)
REMARK    1  A    between atoms: C_6  and  N_7
REMARK    2  A    between atoms: N_10  and  C_11
REMARK    3  A    between atoms: C_11  and  C_12
REMARK    4  A    between atoms: C_12  and  C_13
REMARK    5  A    between atoms: C_13  and  C_14
REMARK    6  A    between atoms: C_14  and  O_15
REMARK    7  A    between atoms: O_15  and  C_16
REMARK                            x       y       z     vdW  Elec       q    Type
REMARK                         _______ _______ _______ _____ _____    ______ ____
ROOT
ATOM      1  C   UNL     1      10.212  -1.180  22.482  0.00  0.00    +0.019 C 
ENDROOT
BRANCH   1   2
ATOM      2  C   UNL     1       9.423  -2.437  22.895  0.00  0.00    +0.084 C 
BRANCH   2   6
ATOM      3  N   UNL     1       7.015  -4.494  24.585  0.00  0.00    -0.326 N 
ATOM      4  C   UNL     1       8.371  -4.970  24.247  0.00  0.00    +0.120 C 
ATOM      5  C   UNL     1       9.445  -3.989  24.777  0.00  0.00    +0.103 C 
ATOM      6  N   UNL     1       9.254  -2.580  24.350  0.00  0.00    -0.299 NA
ATOM      7  C   UNL     1       7.903  -2.174  24.800  0.00  0.00    +0.103 C 
ATOM      8  C   UNL     1       6.751  -3.073  24.297  0.00  0.00    +0.120 C 
BRANCH   3  13
ATOM      9 CL   UNL     1       4.624  -7.163  28.447  0.00  0.00    -0.082 Cl
ATOM     10  C   UNL     1       4.864  -6.655  26.806  0.00  0.00    +0.061 A 
ATOM     11  C   UNL     1       5.810  -5.673  26.439  0.00  0.00    +0.080 A 
ATOM     12 CL   UNL     1       6.604  -4.797  27.727  0.00  0.00    -0.080 Cl
ATOM     13  C   UNL     1       6.026  -5.345  25.071  0.00  0.00    +0.050 A 
ATOM     14  C   UNL     1       5.186  -5.996  24.138  0.00  0.00    +0.025 A 
ATOM     15  C   UNL     1       4.216  -6.928  24.510  0.00  0.00    +0.003 A 
ATOM     16  C   UNL     1       4.071  -7.275  25.843  0.00  0.00    +0.021 A 
ENDBRANCH   3  13
ENDBRANCH   2   6
ENDBRANCH   1   2
BRANCH   1  17
ATOM     17  C   UNL     1       9.516  -0.310  21.430  0.00  0.00    +0.042 C 
BRANCH  17  18
ATOM     18  C   UNL     1       8.529   0.642  22.088  0.00  0.00    +0.229 C 
BRANCH  18  19
ATOM     19  O   UNL     1       8.894   0.885  23.445  0.00  0.00    -0.492 OA
BRANCH  19  20
ATOM     20  C   UNL     1       9.289   2.175  23.688  0.00  0.00    +0.122 A 
ATOM     21  C   UNL     1       8.536   3.128  24.386  0.00  0.00    +0.046 A 
ATOM     22  C   UNL     1       9.028   4.420  24.586  0.00  0.00    +0.009 A 
ATOM     23  C   UNL     1      10.279   4.770  24.084  0.00  0.00    -0.025 A 
ATOM     24  C   UNL     1      10.776   6.179  24.206  0.00  0.00    +0.046 C 
ATOM     25  C   UNL     1      12.289   6.253  24.113  0.00  0.00    +0.101 C 
ATOM     26  C   UNL     1      12.839   5.410  22.987  0.00  0.00    +0.218 C 
ATOM     27  N   UNL     1      12.228   4.207  22.774  0.00  0.00    -0.285 N 
ATOM     28  H   UNL     1      12.683   3.590  22.112  0.00  0.00    +0.155 HD
ATOM     29  O   UNL     1      13.849   5.729  22.366  0.00  0.00    -0.275 OA
ATOM     30  C   UNL     1      11.012   3.830  23.351  0.00  0.00    +0.040 A 
ATOM     31  C   UNL     1      10.523   2.535  23.154  0.00  0.00    +0.069 A 
ENDBRANCH  19  20
ENDBRANCH  18  19
ENDBRANCH  17  18
ENDBRANCH   1  17
TORSDOF 7
ENDMDL
MODEL 2
REMARK VINA RESULT:      -7.7      1.509      1.743
REMARK  Name = 
REMARK  7 active torsions:
REMARK  status: ('A' for Active; 'I' for Inactive)
REMARK    1  A    between atoms: C_6  and  N_7
REMARK    2  A    between atoms: N_10  and  C_11
REMARK    3  A    between atoms: C_11  and  C_12
REMARK    4  A    between atoms: C_12  and  C_13
REMARK    5  A    between atoms: C_13  and  C_14
REMARK    6  A    between atoms: C_14  and  O_15
REMARK    7  A    between atoms: O_15  and  C_16
REMARK                            x       y       z     vdW  Elec       q    Type
REMARK                         _______ _______ _______ _____ _____    ______ ____
ROOT
ATOM      1  C   UNL     1       9.967  -1.207  23.283  0.00  0.00    +0.019 C 
ENDROOT
BRANCH   1   2
ATOM      2  C   UNL     1       9.783  -2.701  23.612  0.00  0.00    +0.084 C 
BRANCH   2   6
ATOM      3  N   UNL     1       7.036  -4.731  24.717  0.00  0.00    -0.326 N 
ATOM      4  C   UNL     1       8.401  -5.265  24.544  0.00  0.00    +0.120 C 
ATOM      5  C   UNL     1       9.429  -4.406  25.320  0.00  0.00    +0.103 C 
ATOM      6  N   UNL     1       9.382  -2.957  25.005  0.00  0.00    -0.299 NA
ATOM      7  C   UNL     1       8.000  -2.501  25.283  0.00  0.00    +0.103 C 
ATOM      8  C   UNL     1       6.894  -3.275  24.529  0.00  0.00    +0.120 C 
BRANCH   3  13
ATOM      9 CL   UNL     1       2.546  -7.096  23.302  0.00  0.00    -0.082 Cl
ATOM     10  C   UNL     1       3.817  -6.673  24.404  0.00  0.00    +0.061 A 
ATOM     11  C   UNL     1       4.962  -5.946  24.009  0.00  0.00    +0.080 A 
ATOM     12 CL   UNL     1       5.187  -5.662  22.299  0.00  0.00    -0.080 Cl
ATOM     13  C   UNL     1       5.940  -5.553  24.966  0.00  0.00    +0.050 A 
ATOM     14  C   UNL     1       5.730  -6.006  26.288  0.00  0.00    +0.025 A 
ATOM     15  C   UNL     1       4.623  -6.769  26.664  0.00  0.00    +0.003 A 
ATOM     16  C   UNL     1       3.654  -7.082  25.726  0.00  0.00    +0.021 A 
ENDBRANCH   3  13
ENDBRANCH   2   6
ENDBRANCH   1   2
BRANCH   1  17
ATOM     17  C   UNL     1       9.557  -0.815  21.859  0.00  0.00    +0.042 C 
BRANCH  17  18
ATOM     18  C   UNL     1       8.960   0.583  21.839  0.00  0.00    +0.229 C 
BRANCH  18  19
ATOM     19  O   UNL     1       8.601   0.996  23.155  0.00  0.00    -0.492 OA
BRANCH  19  20
ATOM     20  C   UNL     1       9.048   2.250  23.482  0.00  0.00    +0.122 A 
ATOM     21  C   UNL     1       8.334   3.185  24.242  0.00  0.00    +0.046 A 
ATOM     22  C   UNL     1       8.877   4.440  24.525  0.00  0.00    +0.009 A 
ATOM     23  C   UNL     1      10.142   4.772  24.046  0.00  0.00    -0.025 A 
ATOM     24  C   UNL     1      10.695   6.149  24.259  0.00  0.00    +0.046 C 
ATOM     25  C   UNL     1      12.210   6.167  24.168  0.00  0.00    +0.101 C 
ATOM     26  C   UNL     1      12.727   5.378  22.988  0.00  0.00    +0.218 C 
ATOM     27  N   UNL     1      12.068   4.217  22.698  0.00  0.00    -0.285 N 
ATOM     28  H   UNL     1      12.498   3.626  21.996  0.00  0.00    +0.155 HD
ATOM     29  O   UNL     1      13.749   5.695  22.388  0.00  0.00    -0.275 OA
ATOM     30  C   UNL     1      10.837   3.853  23.251  0.00  0.00    +0.040 A 
ATOM     31  C   UNL     1      10.296   2.594  22.971  0.00  0.00    +0.069 A 
ENDBRANCH  19  20
ENDBRANCH  18  19
ENDBRANCH  17  18
ENDBRANCH   1  17
TORSDOF 7
ENDMDL
MODEL 3
REMARK VINA RESULT:      -7.4      4.369     10.238
REMARK  Name = 
REMARK  7 active torsions:
REMARK  status: ('A' for Active; 'I' for Inactive)
REMARK    1  A    between atoms: C_6  and  N_7
REMARK    2  A    between atoms: N_10  and  C_11
REMARK    3  A    between atoms: C_11  and  C_12
REMARK    4  A    between atoms: C_12  and  C_13
REMARK    5  A    between atoms: C_13  and  C_14
REMARK    6  A    between atoms: C_14  and  O_15
REMARK    7  A    between atoms: O_15  and  C_16
REMARK                            x       y       z     vdW  Elec       q    Type
REMARK                         _______ _______ _______ _____ _____    ______ ____
ROOT
ATOM      1  C   UNL     1       7.718  -2.789  22.895  0.00  0.00    +0.019 C 
ENDROOT
BRANCH   1   2
ATOM      2  C   UNL     1       8.026  -1.280  22.937  0.00  0.00    +0.084 C 
BRANCH   2   6
ATOM      3  N   UNL     1       9.608   1.924  23.279  0.00  0.00    -0.326 N 
ATOM      4  C   UNL     1       9.625   0.909  24.351  0.00  0.00    +0.120 C 
ATOM      5  C   UNL     1      10.144  -0.448  23.814  0.00  0.00    +0.103 C 
ATOM      6  N   UNL     1       9.424  -0.951  22.618  0.00  0.00    -0.299 NA
ATOM      7  C   UNL     1       9.530   0.100  21.580  0.00  0.00    +0.103 C 
ATOM      8  C   UNL     1       9.007   1.491  22.005  0.00  0.00    +0.120 C 
BRANCH   3  13
ATOM      9 CL   UNL     1       8.830   7.069  24.101  0.00  0.00    -0.082 Cl
ATOM     10  C   UNL     1       9.791   5.651  23.830  0.00  0.00    +0.061 A 
ATOM     11  C   UNL     1       9.242   4.351  23.783  0.00  0.00    +0.080 A 
ATOM     12 CL   UNL     1       7.562   4.168  24.232  0.00  0.00    -0.080 Cl
ATOM     13  C   UNL     1      10.059   3.226  23.479  0.00  0.00    +0.050 A 
ATOM     14  C   UNL     1      11.439   3.488  23.318  0.00  0.00    +0.025 A 
ATOM     15  C   UNL     1      11.986   4.769  23.416  0.00  0.00    +0.003 A 
ATOM     16  C   UNL     1      11.158   5.854  23.650  0.00  0.00    +0.021 A 
ENDBRANCH   3  13
ENDBRANCH   2   6
ENDBRANCH   1   2
BRANCH   1  17
ATOM     17  C   UNL     1       6.525  -3.170  22.012  0.00  0.00    +0.042 C 
BRANCH  17  18
ATOM     18  C   UNL     1       6.463  -4.677  21.814  0.00  0.00    +0.229 C 
BRANCH  18  19
ATOM     19  O   UNL     1       5.164  -5.172  22.132  0.00  0.00    -0.492 OA
BRANCH  19  20
ATOM     20  C   UNL     1       4.817  -5.007  23.448  0.00  0.00    +0.122 A 
ATOM     21  C   UNL     1       3.708  -4.283  23.902  0.00  0.00    +0.046 A 
ATOM     22  C   UNL     1       3.436  -4.175  25.268  0.00  0.00    +0.009 A 
ATOM     23  C   UNL     1       4.276  -4.791  26.193  0.00  0.00    -0.025 A 
ATOM     24  C   UNL     1       4.051  -4.601  27.663  0.00  0.00    +0.046 C 
ATOM     25  C   UNL     1       4.675  -5.720  28.477  0.00  0.00    +0.101 C 
ATOM     26  C   UNL     1       6.076  -6.054  28.018  0.00  0.00    +0.218 C 
ATOM     27  N   UNL     1       6.298  -6.023  26.670  0.00  0.00    -0.285 N 
ATOM     28  H   UNL     1       7.194  -6.377  26.360  0.00  0.00    +0.155 HD
ATOM     29  O   UNL     1       6.942  -6.443  28.795  0.00  0.00    -0.275 OA
ATOM     30  C   UNL     1       5.407  -5.479  25.740  0.00  0.00    +0.040 A 
ATOM     31  C   UNL     1       5.679  -5.591  24.373  0.00  0.00    +0.069 A 
ENDBRANCH  19  20
ENDBRANCH  18  19
ENDBRANCH  17  18
ENDBRANCH   1  17
TORSDOF 7
ENDMDL
MODEL 4
REMARK VINA RESULT:      -7.2      4.200     11.140
REMARK  Name = 
REMARK  7 active torsions:
REMARK  status: ('A' for Active; 'I' for Inactive)
REMARK    1  A    between atoms: C_6  and  N_7
REMARK    2  A    between atoms: N_10  and  C_11
REMARK    3  A    between atoms: C_11  and  C_12
REMARK    4  A    between atoms: C_12  and  C_13
REMARK    5  A    between atoms: C_13  and  C_14
REMARK    6  A    between atoms: C_14  and  O_15
REMARK    7  A    between atoms: O_15  and  C_16
REMARK                            x       y       z     vdW  Elec       q    Type
REMARK                         _______ _______ _______ _____ _____    ______ ____
ROOT
ATOM      1  C   UNL     1       7.571  -2.676  22.745  0.00  0.00    +0.019 C 
ENDROOT
BRANCH   1   2
ATOM      2  C   UNL     1       7.969  -1.211  23.004  0.00  0.00    +0.084 C 
BRANCH   2   6
ATOM      3  N   UNL     1       9.640   1.946  23.372  0.00  0.00    -0.326 N 
ATOM      4  C   UNL     1       9.387   1.041  24.511  0.00  0.00    +0.120 C 
ATOM      5  C   UNL     1       9.919  -0.382  24.211  0.00  0.00    +0.103 C 
ATOM      6  N   UNL     1       9.420  -0.970  22.944  0.00  0.00    -0.299 NA
ATOM      7  C   UNL     1       9.788  -0.031  21.859  0.00  0.00    +0.103 C 
ATOM      8  C   UNL     1       9.275   1.415  22.046  0.00  0.00    +0.120 C 
BRANCH   3  13
ATOM      9 CL   UNL     1       8.976   7.107  24.193  0.00  0.00    -0.082 Cl
ATOM     10  C   UNL     1       9.903   5.673  23.889  0.00  0.00    +0.061 A 
ATOM     11  C   UNL     1       9.333   4.381  23.875  0.00  0.00    +0.080 A 
ATOM     12 CL   UNL     1       7.673   4.227  24.400  0.00  0.00    -0.080 Cl
ATOM     13  C   UNL     1      10.119   3.242  23.543  0.00  0.00    +0.050 A 
ATOM     14  C   UNL     1      11.494   3.482  23.318  0.00  0.00    +0.025 A 
ATOM     15  C   UNL     1      12.064   4.755  23.384  0.00  0.00    +0.003 A 
ATOM     16  C   UNL     1      11.264   5.854  23.646  0.00  0.00    +0.021 A 
ENDBRANCH   3  13
ENDBRANCH   2   6
ENDBRANCH   1   2
BRANCH   1  17
ATOM     17  C   UNL     1       8.349  -3.702  23.575  0.00  0.00    +0.042 C 
BRANCH  17  18
ATOM     18  C   UNL     1       7.533  -4.972  23.761  0.00  0.00    +0.229 C 
BRANCH  18  19
ATOM     19  O   UNL     1       7.180  -5.146  25.132  0.00  0.00    -0.492 OA
BRANCH  19  20
ATOM     20  C   UNL     1       5.967  -5.758  25.317  0.00  0.00    +0.122 A 
ATOM     21  C   UNL     1       5.481  -6.223  26.544  0.00  0.00    +0.046 A 
ATOM     22  C   UNL     1       4.227  -6.832  26.631  0.00  0.00    +0.009 A 
ATOM     23  C   UNL     1       3.449  -6.984  25.486  0.00  0.00    -0.025 A 
ATOM     24  C   UNL     1       2.147  -7.723  25.548  0.00  0.00    +0.046 C 
ATOM     25  C   UNL     1       1.224  -7.335  24.407  0.00  0.00    +0.101 C 
ATOM     26  C   UNL     1       1.941  -7.286  23.078  0.00  0.00    +0.218 C 
ATOM     27  N   UNL     1       3.213  -6.787  23.090  0.00  0.00    -0.285 N 
ATOM     28  H   UNL     1       3.637  -6.630  22.184  0.00  0.00    +0.155 HD
ATOM     29  O   UNL     1       1.381  -7.572  22.023  0.00  0.00    -0.275 OA
ATOM     30  C   UNL     1       3.955  -6.556  24.252  0.00  0.00    +0.040 A 
ATOM     31  C   UNL     1       5.207  -5.942  24.165  0.00  0.00    +0.069 A 
ENDBRANCH  19  20
ENDBRANCH  18  19
ENDBRANCH  17  18
ENDBRANCH   1  17
TORSDOF 7
ENDMDL
MODEL 5
REMARK VINA RESULT:      -7.2      4.557     10.341
REMARK  Name = 
REMARK  7 active torsions:
REMARK  status: ('A' for Active; 'I' for Inactive)
REMARK    1  A    between atoms: C_6  and  N_7
REMARK    2  A    between atoms: N_10  and  C_11
REMARK    3  A    between atoms: C_11  and  C_12
REMARK    4  A    between atoms: C_12  and  C_13
REMARK    5  A    between atoms: C_13  and  C_14
REMARK    6  A    between atoms: C_14  and  O_15
REMARK    7  A    between atoms: O_15  and  C_16
REMARK                            x       y       z     vdW  Elec       q    Type
REMARK                         _______ _______ _______ _____ _____    ______ ____
ROOT
ATOM      1  C   UNL     1       8.659  -4.945  24.380  0.00  0.00    +0.019 C 
ENDROOT
BRANCH   1   2
ATOM      2  C   UNL     1       8.321  -3.505  23.951  0.00  0.00    +0.084 C 
BRANCH   2   6
ATOM      3  N   UNL     1       8.249   0.031  23.332  0.00  0.00    -0.326 N 
ATOM      4  C   UNL     1       7.979  -0.550  24.663  0.00  0.00    +0.120 C 
ATOM      5  C   UNL     1       9.124  -1.502  25.088  0.00  0.00    +0.103 C 
ATOM      6  N   UNL     1       9.441  -2.562  24.100  0.00  0.00    -0.299 NA
ATOM      7  C   UNL     1       9.771  -1.879  22.828  0.00  0.00    +0.103 C 
ATOM      8  C   UNL     1       8.676  -0.927  22.296  0.00  0.00    +0.120 C 
BRANCH   3  13
ATOM      9 CL   UNL     1       9.513   5.132  23.694  0.00  0.00    -0.082 Cl
ATOM     10  C   UNL     1       8.536   3.790  23.194  0.00  0.00    +0.061 A 
ATOM     11  C   UNL     1       8.913   2.446  23.409  0.00  0.00    +0.080 A 
ATOM     12 CL   UNL     1      10.528   2.148  24.009  0.00  0.00    -0.080 Cl
ATOM     13  C   UNL     1       8.041   1.378  23.052  0.00  0.00    +0.050 A 
ATOM     14  C   UNL     1       6.841   1.750  22.405  0.00  0.00    +0.025 A 
ATOM     15  C   UNL     1       6.495   3.078  22.147  0.00  0.00    +0.003 A 
ATOM     16  C   UNL     1       7.332   4.099  22.563  0.00  0.00    +0.021 A 
ENDBRANCH   3  13
ENDBRANCH   2   6
ENDBRANCH   1   2
BRANCH   1  17
ATOM     17  C   UNL     1       8.741  -5.155  25.895  0.00  0.00    +0.042 C 
BRANCH  17  18
ATOM     18  C   UNL     1       7.390  -4.905  26.546  0.00  0.00    +0.229 C 
BRANCH  18  19
ATOM     19  O   UNL     1       6.530  -6.027  26.367  0.00  0.00    -0.492 OA
BRANCH  19  20
ATOM     20  C   UNL     1       5.350  -5.725  25.738  0.00  0.00    +0.122 A 
ATOM     21  C   UNL     1       4.741  -4.464  25.736  0.00  0.00    +0.046 A 
ATOM     22  C   UNL     1       3.536  -4.254  25.061  0.00  0.00    +0.009 A 
ATOM     23  C   UNL     1       2.928  -5.308  24.383  0.00  0.00    -0.025 A 
ATOM     24  C   UNL     1       1.588  -5.121  23.739  0.00  0.00    +0.046 C 
ATOM     25  C   UNL     1       1.345  -6.140  22.639  0.00  0.00    +0.101 C 
ATOM     26  C   UNL     1       1.736  -7.539  23.053  0.00  0.00    +0.218 C 
ATOM     27  N   UNL     1       2.864  -7.655  23.815  0.00  0.00    -0.285 N 
ATOM     28  H   UNL     1       3.196  -8.599  23.975  0.00  0.00    +0.155 HD
ATOM     29  O   UNL     1       1.144  -8.532  22.639  0.00  0.00    -0.275 OA
ATOM     30  C   UNL     1       3.517  -6.578  24.421  0.00  0.00    +0.040 A 
ATOM     31  C   UNL     1       4.725  -6.789  25.093  0.00  0.00    +0.069 A 
ENDBRANCH  19  20
ENDBRANCH  18  19
ENDBRANCH  17  18
ENDBRANCH   1  17
TORSDOF 7
ENDMDL
MODEL 6
REMARK VINA RESULT:      -7.2      4.508      9.822
REMARK  Name = 
REMARK  7 active torsions:
REMARK  status: ('A' for Active; 'I' for Inactive)
REMARK    1  A    between atoms: C_6  and  N_7
REMARK    2  A    between atoms: N_10  and  C_11
REMARK    3  A    between atoms: C_11  and  C_12
REMARK    4  A    between atoms: C_12  and  C_13
REMARK    5  A    between atoms: C_13  and  C_14
REMARK    6  A    between atoms: C_14  and  O_15
REMARK    7  A    between atoms: O_15  and  C_16
REMARK                            x       y       z     vdW  Elec       q    Type
REMARK                         _______ _______ _______ _____ _____    ______ ____
ROOT
ATOM      1  C   UNL     1       7.937  -4.639  22.940  0.00  0.00    +0.019 C 
ENDROOT
BRANCH   1   2
ATOM      2  C   UNL     1       7.501  -3.694  24.075  0.00  0.00    +0.084 C 
BRANCH   2   6
ATOM      3  N   UNL     1       7.968  -0.173  23.547  0.00  0.00    -0.326 N 
ATOM      4  C   UNL     1       7.220  -0.713  24.701  0.00  0.00    +0.120 C 
ATOM      5  C   UNL     1       8.066  -1.766  25.458  0.00  0.00    +0.103 C 
ATOM      6  N   UNL     1       8.592  -2.861  24.607  0.00  0.00    -0.299 NA
ATOM      7  C   UNL     1       9.387  -2.224  23.531  0.00  0.00    +0.103 C 
ATOM      8  C   UNL     1       8.623  -1.177  22.689  0.00  0.00    +0.120 C 
BRANCH   3  13
ATOM      9 CL   UNL     1      10.100   4.638  23.795  0.00  0.00    -0.082 Cl
ATOM     10  C   UNL     1       8.897   3.477  23.334  0.00  0.00    +0.061 A 
ATOM     11  C   UNL     1       9.040   2.091  23.569  0.00  0.00    +0.080 A 
ATOM     12 CL   UNL     1      10.590   1.528  24.150  0.00  0.00    -0.080 Cl
ATOM     13  C   UNL     1       7.991   1.185  23.245  0.00  0.00    +0.050 A 
ATOM     14  C   UNL     1       6.861   1.749  22.609  0.00  0.00    +0.025 A 
ATOM     15  C   UNL     1       6.746   3.112  22.332  0.00  0.00    +0.003 A 
ATOM     16  C   UNL     1       7.754   3.979  22.716  0.00  0.00    +0.021 A 
ENDBRANCH   3  13
ENDBRANCH   2   6
ENDBRANCH   1   2
BRANCH   1  17
ATOM     17  C   UNL     1       6.903  -4.807  21.821  0.00  0.00    +0.042 C 
BRANCH  17  18
ATOM     18  C   UNL     1       6.059  -6.051  22.053  0.00  0.00    +0.229 C 
BRANCH  18  19
ATOM     19  O   UNL     1       4.688  -5.702  22.231  0.00  0.00    -0.492 OA
BRANCH  19  20
ATOM     20  C   UNL     1       4.345  -5.458  23.536  0.00  0.00    +0.122 A 
ATOM     21  C   UNL     1       3.479  -4.444  23.963  0.00  0.00    +0.046 A 
ATOM     22  C   UNL     1       3.189  -4.277  25.319  0.00  0.00    +0.009 A 
ATOM     23  C   UNL     1       3.767  -5.124  26.261  0.00  0.00    -0.025 A 
ATOM     24  C   UNL     1       3.541  -4.894  27.725  0.00  0.00    +0.046 C 
ATOM     25  C   UNL     1       3.770  -6.157  28.535  0.00  0.00    +0.101 C 
ATOM     26  C   UNL     1       5.029  -6.884  28.125  0.00  0.00    +0.218 C 
ATOM     27  N   UNL     1       5.312  -6.904  26.788  0.00  0.00    -0.285 N 
ATOM     28  H   UNL     1       6.078  -7.503  26.506  0.00  0.00    +0.155 HD
ATOM     29  O   UNL     1       5.706  -7.521  28.927  0.00  0.00    -0.275 OA
ATOM     30  C   UNL     1       4.665  -6.110  25.837  0.00  0.00    +0.040 A 
ATOM     31  C   UNL     1       4.953  -6.281  24.480  0.00  0.00    +0.069 A 
ENDBRANCH  19  20
ENDBRANCH  18  19
ENDBRANCH  17  18
ENDBRANCH   1  17
TORSDOF 7
ENDMDL
MODEL 7
REMARK VINA RESULT:      -7.0      1.803      2.688
REMARK  Name = 
REMARK  7 active torsions:
REMARK  status: ('A' for Active; 'I' for Inactive)
REMARK    1  A    between atoms: C_6  and  N_7
REMARK    2  A    between atoms: N_10  and  C_11
REMARK    3  A    between atoms: C_11  and  C_12
REMARK    4  A    between atoms: C_12  and  C_13
REMARK    5  A    between atoms: C_13  and  C_14
REMARK    6  A    between atoms: C_14  and  O_15
REMARK    7  A    between atoms: O_15  and  C_16
REMARK                            x       y       z     vdW  Elec       q    Type
REMARK                         _______ _______ _______ _____ _____    ______ ____
ROOT
ATOM      1  C   UNL     1       9.428  -1.588  24.330  0.00  0.00    +0.019 C 
ENDROOT
BRANCH   1   2
ATOM      2  C   UNL     1       9.141  -2.840  25.181  0.00  0.00    +0.084 C 
BRANCH   2   6
ATOM      3  N   UNL     1       6.354  -4.923  26.063  0.00  0.00    -0.326 N 
ATOM      4  C   UNL     1       6.211  -3.714  25.228  0.00  0.00    +0.120 C 
ATOM      5  C   UNL     1       7.194  -3.753  24.032  0.00  0.00    +0.103 C 
ATOM      6  N   UNL     1       8.611  -3.975  24.408  0.00  0.00    -0.299 NA
ATOM      7  C   UNL     1       8.661  -5.243  25.171  0.00  0.00    +0.103 C 
ATOM      8  C   UNL     1       7.737  -5.296  26.409  0.00  0.00    +0.120 C 
BRANCH   3  13
ATOM      9 CL   UNL     1       2.020  -7.856  25.451  0.00  0.00    -0.082 Cl
ATOM     10  C   UNL     1       3.197  -6.967  26.363  0.00  0.00    +0.061 A 
ATOM     11  C   UNL     1       4.358  -6.412  25.780  0.00  0.00    +0.080 A 
ATOM     12 CL   UNL     1       4.708  -6.835  24.121  0.00  0.00    -0.080 Cl
ATOM     13  C   UNL     1       5.255  -5.623  26.554  0.00  0.00    +0.050 A 
ATOM     14  C   UNL     1       4.952  -5.511  27.931  0.00  0.00    +0.025 A 
ATOM     15  C   UNL     1       3.831  -6.105  28.513  0.00  0.00    +0.003 A 
ATOM     16  C   UNL     1       2.941  -6.813  27.724  0.00  0.00    +0.021 A 
ENDBRANCH   3  13
ENDBRANCH   2   6
ENDBRANCH   1   2
BRANCH   1  17
ATOM     17  C   UNL     1      10.048  -1.880  22.959  0.00  0.00    +0.042 C 
BRANCH  17  18
ATOM     18  C   UNL     1       9.127  -1.415  21.842  0.00  0.00    +0.229 C 
BRANCH  18  19
ATOM     19  O   UNL     1       9.645  -0.242  21.219  0.00  0.00    -0.492 OA
BRANCH  19  20
ATOM     20  C   UNL     1       9.216   0.925  21.797  0.00  0.00    +0.122 A 
ATOM     21  C   UNL     1       7.876   1.294  21.965  0.00  0.00    +0.046 A 
ATOM     22  C   UNL     1       7.539   2.507  22.570  0.00  0.00    +0.009 A 
ATOM     23  C   UNL     1       8.545   3.365  23.009  0.00  0.00    -0.025 A 
ATOM     24  C   UNL     1       8.200   4.712  23.570  0.00  0.00    +0.046 C 
ATOM     25  C   UNL     1       9.305   5.252  24.458  0.00  0.00    +0.101 C 
ATOM     26  C   UNL     1      10.675   5.077  23.844  0.00  0.00    +0.218 C 
ATOM     27  N   UNL     1      10.892   3.913  23.164  0.00  0.00    -0.285 N 
ATOM     28  H   UNL     1      11.847   3.741  22.872  0.00  0.00    +0.155 HD
ATOM     29  O   UNL     1      11.584   5.880  24.036  0.00  0.00    -0.275 OA
ATOM     30  C   UNL     1       9.884   3.015  22.802  0.00  0.00    +0.040 A 
ATOM     31  C   UNL     1      10.223   1.799  22.201  0.00  0.00    +0.069 A 
ENDBRANCH  19  20
ENDBRANCH  18  19
ENDBRANCH  17  18
ENDBRANCH   1  17
TORSDOF 7
ENDMDL
MODEL 8
REMARK VINA RESULT:      -7.0      3.530      5.173
REMARK  Name = 
REMARK  7 active torsions:
REMARK  status: ('A' for Active; 'I' for Inactive)
REMARK    1  A    between atoms: C_6  and  N_7
REMARK    2  A    between atoms: N_10  and  C_11
REMARK    3  A    between atoms: C_11  and  C_12
REMARK    4  A    between atoms: C_12  and  C_13
REMARK    5  A    between atoms: C_13  and  C_14
REMARK    6  A    between atoms: C_14  and  O_15
REMARK    7  A    between atoms: O_15  and  C_16
REMARK                            x       y       z     vdW  Elec       q    Type
REMARK                         _______ _______ _______ _____ _____    ______ ____
ROOT
ATOM      1  C   UNL     1      10.734   1.268  24.467  0.00  0.00    +0.019 C 
ENDROOT
BRANCH   1   2
ATOM      2  C   UNL     1       9.575   0.275  24.259  0.00  0.00    +0.084 C 
BRANCH   2   6
ATOM      3  N   UNL     1       7.844  -2.727  23.318  0.00  0.00    -0.326 N 
ATOM      4  C   UNL     1       7.244  -1.385  23.180  0.00  0.00    +0.120 C 
ATOM      5  C   UNL     1       8.184  -0.442  22.389  0.00  0.00    +0.103 C 
ATOM      6  N   UNL     1       9.563  -0.354  22.929  0.00  0.00    -0.299 NA
ATOM      7  C   UNL     1      10.103  -1.733  22.956  0.00  0.00    +0.103 C 
ATOM      8  C   UNL     1       9.253  -2.751  23.751  0.00  0.00    +0.120 C 
BRANCH   3  13
ATOM      9 CL   UNL     1       4.827  -6.688  25.040  0.00  0.00    -0.082 Cl
ATOM     10  C   UNL     1       5.724  -5.801  23.849  0.00  0.00    +0.061 A 
ATOM     11  C   UNL     1       6.317  -4.547  24.114  0.00  0.00    +0.080 A 
ATOM     12 CL   UNL     1       5.937  -3.781  25.639  0.00  0.00    -0.080 Cl
ATOM     13  C   UNL     1       7.110  -3.894  23.128  0.00  0.00    +0.050 A 
ATOM     14  C   UNL     1       7.186  -4.535  21.870  0.00  0.00    +0.025 A 
ATOM     15  C   UNL     1       6.555  -5.750  21.597  0.00  0.00    +0.003 A 
ATOM     16  C   UNL     1       5.843  -6.395  22.594  0.00  0.00    +0.021 A 
ENDBRANCH   3  13
ENDBRANCH   2   6
ENDBRANCH   1   2
BRANCH   1  17
ATOM     17  C   UNL     1      10.746   2.445  23.485  0.00  0.00    +0.042 C 
BRANCH  17  18
ATOM     18  C   UNL     1       9.470   3.263  23.610  0.00  0.00    +0.229 C 
BRANCH  18  19
ATOM     19  O   UNL     1       8.649   3.094  22.457  0.00  0.00    -0.492 OA
BRANCH  19  20
ATOM     20  C   UNL     1       7.471   3.792  22.510  0.00  0.00    +0.122 A 
ATOM     21  C   UNL     1       7.364   5.187  22.559  0.00  0.00    +0.046 A 
ATOM     22  C   UNL     1       6.113   5.807  22.609  0.00  0.00    +0.009 A 
ATOM     23  C   UNL     1       4.956   5.032  22.613  0.00  0.00    -0.025 A 
ATOM     24  C   UNL     1       3.613   5.680  22.765  0.00  0.00    +0.046 C 
ATOM     25  C   UNL     1       2.500   4.802  22.222  0.00  0.00    +0.101 C 
ATOM     26  C   UNL     1       2.638   3.361  22.656  0.00  0.00    +0.218 C 
ATOM     27  N   UNL     1       3.907   2.858  22.698  0.00  0.00    -0.285 N 
ATOM     28  H   UNL     1       3.984   1.861  22.857  0.00  0.00    +0.155 HD
ATOM     29  O   UNL     1       1.663   2.642  22.853  0.00  0.00    -0.275 OA
ATOM     30  C   UNL     1       5.065   3.636  22.606  0.00  0.00    +0.040 A 
ATOM     31  C   UNL     1       6.316   3.015  22.552  0.00  0.00    +0.069 A 
ENDBRANCH  19  20
ENDBRANCH  18  19
ENDBRANCH  17  18
ENDBRANCH   1  17
TORSDOF 7
ENDMDL
MODEL 9
REMARK VINA RESULT:      -6.9      3.404      5.013
REMARK  Name = 
REMARK  7 active torsions:
REMARK  status: ('A' for Active; 'I' for Inactive)
REMARK    1  A    between atoms: C_6  and  N_7
REMARK    2  A    between atoms: N_10  and  C_11
REMARK    3  A    between atoms: C_11  and  C_12
REMARK    4  A    between atoms: C_12  and  C_13
REMARK    5  A    between atoms: C_13  and  C_14
REMARK    6  A    between atoms: C_14  and  O_15
REMARK    7  A    between atoms: O_15  and  C_16
REMARK                            x       y       z     vdW  Elec       q    Type
REMARK                         _______ _______ _______ _____ _____    ______ ____
ROOT
ATOM      1  C   UNL     1       4.471   2.634  25.097  0.00  0.00    +0.019 C 
ENDROOT
BRANCH   1   2
ATOM      2  C   UNL     1       5.822   2.105  25.613  0.00  0.00    +0.084 C 
BRANCH   2   6
ATOM      3  N   UNL     1       7.069  -1.259  25.488  0.00  0.00    -0.326 N 
ATOM      4  C   UNL     1       7.852  -0.140  26.051  0.00  0.00    +0.120 C 
ATOM      5  C   UNL     1       7.031   0.619  27.122  0.00  0.00    +0.103 C 
ATOM      6  N   UNL     1       5.698   1.081  26.662  0.00  0.00    -0.299 NA
ATOM      7  C   UNL     1       4.966  -0.118  26.192  0.00  0.00    +0.103 C 
ATOM      8  C   UNL     1       5.687  -0.932  25.093  0.00  0.00    +0.120 C 
BRANCH   3  13
ATOM      9 CL   UNL     1       7.705  -5.669  22.676  0.00  0.00    -0.082 Cl
ATOM     10  C   UNL     1       7.953  -4.629  24.042  0.00  0.00    +0.061 A 
ATOM     11  C   UNL     1       7.461  -3.307  24.098  0.00  0.00    +0.080 A 
ATOM     12 CL   UNL     1       6.767  -2.643  22.637  0.00  0.00    -0.080 Cl
ATOM     13  C   UNL     1       7.621  -2.519  25.273  0.00  0.00    +0.050 A 
ATOM     14  C   UNL     1       8.365  -3.112  26.319  0.00  0.00    +0.025 A 
ATOM     15  C   UNL     1       8.894  -4.401  26.240  0.00  0.00    +0.003 A 
ATOM     16  C   UNL     1       8.668  -5.169  25.110  0.00  0.00    +0.021 A 
ENDBRANCH   3  13
ENDBRANCH   2   6
ENDBRANCH   1   2
BRANCH   1  17
ATOM     17  C   UNL     1       4.581   3.735  24.037  0.00  0.00    +0.042 C 
BRANCH  17  18
ATOM     18  C   UNL     1       5.000   3.151  22.697  0.00  0.00    +0.229 C 
BRANCH  18  19
ATOM     19  O   UNL     1       6.181   3.791  22.218  0.00  0.00    -0.492 OA
BRANCH  19  20
ATOM     20  C   UNL     1       7.341   3.253  22.712  0.00  0.00    +0.122 A 
ATOM     21  C   UNL     1       8.264   3.934  23.514  0.00  0.00    +0.046 A 
ATOM     22  C   UNL     1       9.419   3.296  23.973  0.00  0.00    +0.009 A 
ATOM     23  C   UNL     1       9.661   1.969  23.629  0.00  0.00    -0.025 A 
ATOM     24  C   UNL     1      10.942   1.303  24.032  0.00  0.00    +0.046 C 
ATOM     25  C   UNL     1      10.808  -0.208  24.058  0.00  0.00    +0.101 C 
ATOM     26  C   UNL     1      10.092  -0.744  22.840  0.00  0.00    +0.218 C 
ATOM     27  N   UNL     1       9.043  -0.002  22.376  0.00  0.00    -0.285 N 
ATOM     28  H   UNL     1       8.484  -0.430  21.648  0.00  0.00    +0.155 HD
ATOM     29  O   UNL     1      10.358  -1.840  22.356  0.00  0.00    -0.275 OA
ATOM     30  C   UNL     1       8.758   1.302  22.792  0.00  0.00    +0.040 A 
ATOM     31  C   UNL     1       7.600   1.937  22.336  0.00  0.00    +0.069 A 
ENDBRANCH  19  20
ENDBRANCH  18  19
ENDBRANCH  17  18
ENDBRANCH   1  17
TORSDOF 7
ENDMDL
