MODEL 1
REMARK VINA RESULT:      -4.7      0.000      0.000
REMARK  Name = 
REMARK  2 active torsions:
REMARK  status: ('A' for Active; 'I' for Inactive)
REMARK    1  A    between atoms: N_1  and  C_2
REMARK    2  A    between atoms: C_3  and  N_10
REMARK                            x       y       z     vdW  Elec       q    Type
REMARK                         _______ _______ _______ _____ _____    ______ ____
ROOT
ATOM      1  C   UNL     1       9.740   1.349  22.960  0.00  0.00    +0.187 A 
ATOM      2  C   UNL     1       9.378   2.156  24.189  0.00  0.00    +0.282 A 
ATOM      3  O   UNL     1       9.290   3.381  24.127  0.00  0.00    -0.265 OA
ATOM      4  N   UNL     1       9.126   1.482  25.345  0.00  0.00    -0.273 N 
ATOM      5  H   UNL     1       8.890   2.028  26.160  0.00  0.00    +0.173 HD
ATOM      6  C   UNL     1       9.045   0.130  25.457  0.00  0.00    +0.332 A 
ATOM      7  O   UNL     1       8.749  -0.424  26.508  0.00  0.00    -0.247 OA
ATOM      8  N   UNL     1       9.296  -0.565  24.322  0.00  0.00    -0.248 N 
ATOM      9  H   UNL     1       9.251  -1.579  24.371  0.00  0.00    +0.176 HD
ATOM     10  C   UNL     1       9.634   0.013  23.118  0.00  0.00    +0.376 A 
ENDROOT
BRANCH   1  11
ATOM     11  N   UNL     1      10.108   2.109  21.857  0.00  0.00    -0.347 N 
ATOM     12  H   UNL     1      10.825   2.807  22.072  0.00  0.00    +0.143 HD
ATOM     13  H   UNL     1       9.331   2.453  21.288  0.00  0.00    +0.143 HD
ENDBRANCH   1  11
BRANCH  10  14
ATOM     14  N   UNL     1       9.895  -0.847  21.947  0.00  0.00    +0.101 N 
ATOM     15  O   UNL     1       9.348  -0.606  20.863  0.00  0.00    +0.043 OA
ATOM     16  O   UNL     1      10.640  -1.816  22.162  0.00  0.00    -0.575 OA
ENDBRANCH  10  14
TORSDOF 2
ENDMDL
MODEL 2
REMARK VINA RESULT:      -4.7      1.044      3.450
REMARK  Name = 
REMARK  2 active torsions:
REMARK  status: ('A' for Active; 'I' for Inactive)
REMARK    1  A    between atoms: N_1  and  C_2
REMARK    2  A    between atoms: C_3  and  N_10
REMARK                            x       y       z     vdW  Elec       q    Type
REMARK                         _______ _______ _______ _____ _____    ______ ____
ROOT
ATOM      1  C   UNL     1       9.794   1.482  22.766  0.00  0.00    +0.187 A 
ATOM      2  C   UNL     1       9.785  -0.031  22.785  0.00  0.00    +0.282 A 
ATOM      3  O   UNL     1      10.022  -0.669  21.761  0.00  0.00    -0.265 OA
ATOM      4  N   UNL     1       9.537  -0.655  23.970  0.00  0.00    -0.273 N 
ATOM      5  H   UNL     1       9.528  -1.663  23.972  0.00  0.00    +0.173 HD
ATOM      6  C   UNL     1       9.425  -0.029  25.171  0.00  0.00    +0.332 A 
ATOM      7  O   UNL     1       9.268  -0.643  26.218  0.00  0.00    -0.247 OA
ATOM      8  N   UNL     1       9.516   1.322  25.135  0.00  0.00    -0.248 N 
ATOM      9  H   UNL     1       9.430   1.823  26.015  0.00  0.00    +0.176 HD
ATOM     10  C   UNL     1       9.690   2.057  23.983  0.00  0.00    +0.376 A 
ENDROOT
BRANCH   1  11
ATOM     11  N   UNL     1       9.924   2.045  21.503  0.00  0.00    -0.347 N 
ATOM     12  H   UNL     1      10.882   2.336  21.291  0.00  0.00    +0.143 HD
ATOM     13  H   UNL     1       9.204   2.727  21.254  0.00  0.00    +0.143 HD
ENDBRANCH   1  11
BRANCH  10  14
ATOM     14  N   UNL     1       9.766   3.529  24.064  0.00  0.00    +0.101 N 
ATOM     15  O   UNL     1       8.844   4.173  24.582  0.00  0.00    +0.043 OA
ATOM     16  O   UNL     1      10.773   4.032  23.541  0.00  0.00    -0.575 OA
ENDBRANCH  10  14
TORSDOF 2
ENDMDL
MODEL 3
REMARK VINA RESULT:      -4.7      6.155      7.205
REMARK  Name = 
REMARK  2 active torsions:
REMARK  status: ('A' for Active; 'I' for Inactive)
REMARK    1  A    between atoms: N_1  and  C_2
REMARK    2  A    between atoms: C_3  and  N_10
REMARK                            x       y       z     vdW  Elec       q    Type
REMARK                         _______ _______ _______ _____ _____    ______ ____
ROOT
ATOM      1  C   UNL     1       6.406  -5.444  25.868  0.00  0.00    +0.187 A 
ATOM      2  C   UNL     1       7.515  -5.535  26.894  0.00  0.00    +0.282 A 
ATOM      3  O   UNL     1       7.269  -5.875  28.050  0.00  0.00    -0.265 OA
ATOM      4  N   UNL     1       8.786  -5.258  26.488  0.00  0.00    -0.273 N 
ATOM      5  H   UNL     1       9.518  -5.317  27.180  0.00  0.00    +0.173 HD
ATOM      6  C   UNL     1       9.162  -5.034  25.203  0.00  0.00    +0.332 A 
ATOM      7  O   UNL     1      10.330  -4.856  24.882  0.00  0.00    -0.247 OA
ATOM      8  N   UNL     1       8.158  -5.037  24.293  0.00  0.00    -0.248 N 
ATOM      9  H   UNL     1       8.403  -4.865  23.322  0.00  0.00    +0.176 HD
ATOM     10  C   UNL     1       6.831  -5.230  24.604  0.00  0.00    +0.376 A 
ENDROOT
BRANCH   1  11
ATOM     11  N   UNL     1       5.127  -5.612  26.382  0.00  0.00    -0.347 N 
ATOM     12  H   UNL     1       5.095  -6.259  27.174  0.00  0.00    +0.143 HD
ATOM     13  H   UNL     1       4.393  -5.753  25.683  0.00  0.00    +0.143 HD
ENDBRANCH   1  11
BRANCH  10  14
ATOM     14  N   UNL     1       5.820  -5.203  23.528  0.00  0.00    +0.101 N 
ATOM     15  O   UNL     1       4.811  -4.495  23.639  0.00  0.00    +0.043 OA
ATOM     16  O   UNL     1       6.048  -5.964  22.575  0.00  0.00    -0.575 OA
ENDBRANCH  10  14
TORSDOF 2
ENDMDL
MODEL 4
REMARK VINA RESULT:      -4.7      5.367      6.951
REMARK  Name = 
REMARK  2 active torsions:
REMARK  status: ('A' for Active; 'I' for Inactive)
REMARK    1  A    between atoms: N_1  and  C_2
REMARK    2  A    between atoms: C_3  and  N_10
REMARK                            x       y       z     vdW  Elec       q    Type
REMARK                         _______ _______ _______ _____ _____    ______ ____
ROOT
ATOM      1  C   UNL     1       7.513  -5.293  25.558  0.00  0.00    +0.187 A 
ATOM      2  C   UNL     1       6.068  -5.738  25.481  0.00  0.00    +0.282 A 
ATOM      3  O   UNL     1       5.516  -6.236  26.461  0.00  0.00    -0.265 OA
ATOM      4  N   UNL     1       5.400  -5.543  24.311  0.00  0.00    -0.273 N 
ATOM      5  H   UNL     1       4.439  -5.846  24.267  0.00  0.00    +0.173 HD
ATOM      6  C   UNL     1       5.886  -4.859  23.242  0.00  0.00    +0.332 A 
ATOM      7  O   UNL     1       5.218  -4.654  22.237  0.00  0.00    -0.247 OA
ATOM      8  N   UNL     1       7.155  -4.403  23.369  0.00  0.00    -0.248 N 
ATOM      9  H   UNL     1       7.552  -3.894  22.584  0.00  0.00    +0.176 HD
ATOM     10  C   UNL     1       7.945  -4.611  24.477  0.00  0.00    +0.376 A 
ENDROOT
BRANCH   1  11
ATOM     11  N   UNL     1       8.164  -5.642  26.734  0.00  0.00    -0.347 N 
ATOM     12  H   UNL     1       7.876  -5.074  27.535  0.00  0.00    +0.143 HD
ATOM     13  H   UNL     1       9.174  -5.780  26.647  0.00  0.00    +0.143 HD
ENDBRANCH   1  11
BRANCH  10  14
ATOM     14  N   UNL     1       9.320  -4.074  24.500  0.00  0.00    +0.101 N 
ATOM     15  O   UNL     1       9.543  -2.913  24.129  0.00  0.00    +0.043 OA
ATOM     16  O   UNL     1      10.193  -4.879  24.860  0.00  0.00    -0.575 OA
ENDBRANCH  10  14
TORSDOF 2
ENDMDL
MODEL 5
REMARK VINA RESULT:      -4.6      6.247      7.764
REMARK  Name = 
REMARK  2 active torsions:
REMARK  status: ('A' for Active; 'I' for Inactive)
REMARK    1  A    between atoms: N_1  and  C_2
REMARK    2  A    between atoms: C_3  and  N_10
REMARK                            x       y       z     vdW  Elec       q    Type
REMARK                         _______ _______ _______ _____ _____    ______ ____
ROOT
ATOM      1  C   UNL     1       6.132  -5.388  25.441  0.00  0.00    +0.187 A 
ATOM      2  C   UNL     1       6.867  -4.948  24.193  0.00  0.00    +0.282 A 
ATOM      3  O   UNL     1       6.245  -4.546  23.211  0.00  0.00    -0.265 OA
ATOM      4  N   UNL     1       8.229  -4.983  24.207  0.00  0.00    -0.273 N 
ATOM      5  H   UNL     1       8.710  -4.692  23.369  0.00  0.00    +0.173 HD
ATOM      6  C   UNL     1       8.990  -5.259  25.298  0.00  0.00    +0.332 A 
ATOM      7  O   UNL     1      10.213  -5.212  25.273  0.00  0.00    -0.247 OA
ATOM      8  N   UNL     1       8.304  -5.573  26.423  0.00  0.00    -0.248 N 
ATOM      9  H   UNL     1       8.842  -5.791  27.257  0.00  0.00    +0.176 HD
ATOM     10  C   UNL     1       6.931  -5.641  26.500  0.00  0.00    +0.376 A 
ENDROOT
BRANCH   1  11
ATOM     11  N   UNL     1       4.751  -5.448  25.308  0.00  0.00    -0.347 N 
ATOM     12  H   UNL     1       4.444  -5.487  24.333  0.00  0.00    +0.143 HD
ATOM     13  H   UNL     1       4.229  -4.794  25.897  0.00  0.00    +0.143 HD
ENDBRANCH   1  11
BRANCH  10  14
ATOM     14  N   UNL     1       6.291  -6.003  27.780  0.00  0.00    +0.101 N 
ATOM     15  O   UNL     1       6.474  -5.306  28.787  0.00  0.00    +0.043 OA
ATOM     16  O   UNL     1       5.628  -7.052  27.758  0.00  0.00    -0.575 OA
ENDBRANCH  10  14
TORSDOF 2
ENDMDL
MODEL 6
REMARK VINA RESULT:      -4.6      4.469      5.806
REMARK  Name = 
REMARK  2 active torsions:
REMARK  status: ('A' for Active; 'I' for Inactive)
REMARK    1  A    between atoms: N_1  and  C_2
REMARK    2  A    between atoms: C_3  and  N_10
REMARK                            x       y       z     vdW  Elec       q    Type
REMARK                         _______ _______ _______ _____ _____    ______ ____
ROOT
ATOM      1  C   UNL     1       8.535  -3.316  23.746  0.00  0.00    +0.187 A 
ATOM      2  C   UNL     1       7.867  -2.683  22.544  0.00  0.00    +0.282 A 
ATOM      3  O   UNL     1       8.276  -1.614  22.094  0.00  0.00    -0.265 OA
ATOM      4  N   UNL     1       6.828  -3.347  21.966  0.00  0.00    -0.273 N 
ATOM      5  H   UNL     1       6.386  -2.916  21.169  0.00  0.00    +0.173 HD
ATOM      6  C   UNL     1       6.422  -4.600  22.301  0.00  0.00    +0.332 A 
ATOM      7  O   UNL     1       5.523  -5.179  21.704  0.00  0.00    -0.247 OA
ATOM      8  N   UNL     1       7.090  -5.174  23.330  0.00  0.00    -0.248 N 
ATOM      9  H   UNL     1       6.807  -6.109  23.611  0.00  0.00    +0.176 HD
ATOM     10  C   UNL     1       8.105  -4.563  24.032  0.00  0.00    +0.376 A 
ENDROOT
BRANCH   1  11
ATOM     11  N   UNL     1       9.498  -2.523  24.358  0.00  0.00    -0.347 N 
ATOM     12  H   UNL     1       9.751  -1.701  23.802  0.00  0.00    +0.143 HD
ATOM     13  H   UNL     1      10.289  -3.032  24.758  0.00  0.00    +0.143 HD
ENDBRANCH   1  11
BRANCH  10  14
ATOM     14  N   UNL     1       8.756  -5.284  25.143  0.00  0.00    +0.101 N 
ATOM     15  O   UNL     1       8.080  -5.722  26.084  0.00  0.00    +0.043 OA
ATOM     16  O   UNL     1       9.993  -5.356  25.069  0.00  0.00    -0.575 OA
ENDBRANCH  10  14
TORSDOF 2
ENDMDL
MODEL 7
REMARK VINA RESULT:      -4.6      5.525      7.354
REMARK  Name = 
REMARK  2 active torsions:
REMARK  status: ('A' for Active; 'I' for Inactive)
REMARK    1  A    between atoms: N_1  and  C_2
REMARK    2  A    between atoms: C_3  and  N_10
REMARK                            x       y       z     vdW  Elec       q    Type
REMARK                         _______ _______ _______ _____ _____    ______ ____
ROOT
ATOM      1  C   UNL     1       7.737  -5.284  25.748  0.00  0.00    +0.187 A 
ATOM      2  C   UNL     1       8.758  -4.788  24.747  0.00  0.00    +0.282 A 
ATOM      3  O   UNL     1       9.961  -4.945  24.952  0.00  0.00    -0.265 OA
ATOM      4  N   UNL     1       8.302  -4.194  23.609  0.00  0.00    -0.273 N 
ATOM      5  H   UNL     1       8.990  -3.862  22.949  0.00  0.00    +0.173 HD
ATOM      6  C   UNL     1       6.998  -4.126  23.234  0.00  0.00    +0.332 A 
ATOM      7  O   UNL     1       6.647  -3.640  22.167  0.00  0.00    -0.247 OA
ATOM      8  N   UNL     1       6.111  -4.650  24.114  0.00  0.00    -0.248 N 
ATOM      9  H   UNL     1       5.126  -4.610  23.869  0.00  0.00    +0.176 HD
ATOM     10  C   UNL     1       6.457  -5.205  25.326  0.00  0.00    +0.376 A 
ENDROOT
BRANCH   1  11
ATOM     11  N   UNL     1       8.276  -5.758  26.937  0.00  0.00    -0.347 N 
ATOM     12  H   UNL     1       7.741  -6.534  27.337  0.00  0.00    +0.143 HD
ATOM     13  H   UNL     1       8.552  -5.037  27.607  0.00  0.00    +0.143 HD
ENDBRANCH   1  11
BRANCH  10  14
ATOM     14  N   UNL     1       5.402  -5.738  26.210  0.00  0.00    +0.101 N 
ATOM     15  O   UNL     1       5.568  -6.813  26.801  0.00  0.00    +0.043 OA
ATOM     16  O   UNL     1       4.364  -5.060  26.256  0.00  0.00    -0.575 OA
ENDBRANCH  10  14
TORSDOF 2
ENDMDL
MODEL 8
REMARK VINA RESULT:      -4.5      3.825      5.367
REMARK  Name = 
REMARK  2 active torsions:
REMARK  status: ('A' for Active; 'I' for Inactive)
REMARK    1  A    between atoms: N_1  and  C_2
REMARK    2  A    between atoms: C_3  and  N_10
REMARK                            x       y       z     vdW  Elec       q    Type
REMARK                         _______ _______ _______ _____ _____    ______ ____
ROOT
ATOM      1  C   UNL     1       7.798  -3.872  23.723  0.00  0.00    +0.187 A 
ATOM      2  C   UNL     1       9.237  -3.575  24.087  0.00  0.00    +0.282 A 
ATOM      3  O   UNL     1       9.846  -4.304  24.869  0.00  0.00    -0.265 OA
ATOM      4  N   UNL     1       9.837  -2.502  23.501  0.00  0.00    -0.273 N 
ATOM      5  H   UNL     1      10.794  -2.309  23.753  0.00  0.00    +0.173 HD
ATOM      6  C   UNL     1       9.290  -1.747  22.513  0.00  0.00    +0.332 A 
ATOM      7  O   UNL     1       9.898  -0.833  21.973  0.00  0.00    -0.247 OA
ATOM      8  N   UNL     1       8.029  -2.086  22.151  0.00  0.00    -0.248 N 
ATOM      9  H   UNL     1       7.586  -1.537  21.419  0.00  0.00    +0.176 HD
ATOM     10  C   UNL     1       7.303  -3.103  22.729  0.00  0.00    +0.376 A 
ENDROOT
BRANCH   1  11
ATOM     11  N   UNL     1       7.216  -4.900  24.454  0.00  0.00    -0.347 N 
ATOM     12  H   UNL     1       7.203  -4.717  25.461  0.00  0.00    +0.143 HD
ATOM     13  H   UNL     1       7.515  -5.842  24.193  0.00  0.00    +0.143 HD
ENDBRANCH   1  11
BRANCH  10  14
ATOM     14  N   UNL     1       5.931  -3.376  22.259  0.00  0.00    +0.101 N 
ATOM     15  O   UNL     1       5.725  -3.672  21.074  0.00  0.00    +0.043 OA
ATOM     16  O   UNL     1       5.044  -3.236  23.116  0.00  0.00    -0.575 OA
ENDBRANCH  10  14
TORSDOF 2
ENDMDL
MODEL 9
REMARK VINA RESULT:      -4.5      6.075      6.865
REMARK  Name = 
REMARK  2 active torsions:
REMARK  status: ('A' for Active; 'I' for Inactive)
REMARK    1  A    between atoms: N_1  and  C_2
REMARK    2  A    between atoms: C_3  and  N_10
REMARK                            x       y       z     vdW  Elec       q    Type
REMARK                         _______ _______ _______ _____ _____    ______ ____
ROOT
ATOM      1  C   UNL     1       7.512  -4.879  24.396  0.00  0.00    +0.187 A 
ATOM      2  C   UNL     1       8.697  -5.230  25.269  0.00  0.00    +0.282 A 
ATOM      3  O   UNL     1       9.844  -5.103  24.845  0.00  0.00    -0.265 OA
ATOM      4  N   UNL     1       8.451  -5.658  26.539  0.00  0.00    -0.273 N 
ATOM      5  H   UNL     1       9.247  -5.893  27.113  0.00  0.00    +0.173 HD
ATOM      6  C   UNL     1       7.230  -5.672  27.133  0.00  0.00    +0.332 A 
ATOM      7  O   UNL     1       7.073  -6.003  28.301  0.00  0.00    -0.247 OA
ATOM      8  N   UNL     1       6.197  -5.277  26.352  0.00  0.00    -0.248 N 
ATOM      9  H   UNL     1       5.267  -5.283  26.763  0.00  0.00    +0.176 HD
ATOM     10  C   UNL     1       6.322  -4.898  25.034  0.00  0.00    +0.376 A 
ENDROOT
BRANCH   1  11
ATOM     11  N   UNL     1       7.833  -4.577  23.078  0.00  0.00    -0.347 N 
ATOM     12  H   UNL     1       7.293  -3.792  22.705  0.00  0.00    +0.143 HD
ATOM     13  H   UNL     1       7.907  -5.383  22.453  0.00  0.00    +0.143 HD
ENDBRANCH   1  11
BRANCH  10  14
ATOM     14  N   UNL     1       5.122  -4.495  24.275  0.00  0.00    +0.101 N 
ATOM     15  O   UNL     1       4.802  -5.104  23.246  0.00  0.00    +0.043 OA
ATOM     16  O   UNL     1       4.527  -3.502  24.722  0.00  0.00    -0.575 OA
ENDBRANCH  10  14
TORSDOF 2
ENDMDL
