MODEL 1
REMARK VINA RESULT:      -6.7      0.000      0.000
REMARK  Name = 
REMARK  3 active torsions:
REMARK  status: ('A' for Active; 'I' for Inactive)
REMARK    1  A    between atoms: C_1  and  O_2
REMARK    2  A    between atoms: O_2  and  C_3
REMARK    3  A    between atoms: C_8  and  C_9
REMARK                            x       y       z     vdW  Elec       q    Type
REMARK                         _______ _______ _______ _____ _____    ______ ____
ROOT
ATOM      1  C   UNL     1       9.264   0.498  24.587  0.00  0.00    +0.133 A 
ATOM      2  C   UNL     1       9.805   1.783  24.439  0.00  0.00    +0.066 A 
ATOM      3  C   UNL     1      10.225   2.202  23.189  0.00  0.00    +0.117 A 
ATOM      4  N   UNL     1      10.151   1.478  22.056  0.00  0.00    -0.237 NA
ATOM      5  C   UNL     1       9.664   0.240  22.253  0.00  0.00    +0.142 A 
ATOM      6  N   UNL     1       9.524  -0.670  21.249  0.00  0.00    -0.345 N 
ATOM      7  H   UNL     1       9.759  -0.475  20.287  0.00  0.00    +0.167 HD
ATOM      8  C   UNL     1       9.089  -1.861  21.759  0.00  0.00    +0.095 A 
ATOM      9  C   UNL     1       8.929  -1.717  23.133  0.00  0.00    +0.031 A 
ATOM     10  C   UNL     1       9.237  -0.342  23.448  0.00  0.00    +0.069 A 
ENDROOT
BRANCH   9  11
ATOM     11  C   UNL     1       8.608  -2.852  24.000  0.00  0.00    +0.078 A 
ATOM     12  C   UNL     1       7.296  -3.136  24.322  0.00  0.00    +0.048 A 
ATOM     13  C   UNL     1       7.091  -4.273  25.063  0.00  0.00    +0.116 A 
ATOM     14  N   UNL     1       8.088  -5.076  25.466  0.00  0.00    -0.223 NA
ATOM     15  C   UNL     1       9.322  -4.714  25.107  0.00  0.00    +0.213 A 
ATOM     16  N   UNL     1      10.356  -5.519  25.537  0.00  0.00    -0.327 N 
ATOM     17  H   UNL     1      10.048  -6.051  26.338  0.00  0.00    +0.145 HD
ATOM     18  H   UNL     1      11.189  -4.956  25.640  0.00  0.00    +0.145 HD
ATOM     19  N   UNL     1       9.634  -3.613  24.416  0.00  0.00    -0.215 NA
ENDBRANCH   9  11
BRANCH   1  21
ATOM     20  C   UNL     1       7.426   0.289  26.039  0.00  0.00    +0.277 C 
ATOM     21  O   UNL     1       8.811   0.041  25.801  0.00  0.00    -0.494 OA
ENDBRANCH   1  21
TORSDOF 2
ENDMDL
MODEL 2
REMARK VINA RESULT:      -6.2      2.259      6.023
REMARK  Name = 
REMARK  3 active torsions:
REMARK  status: ('A' for Active; 'I' for Inactive)
REMARK    1  A    between atoms: C_1  and  O_2
REMARK    2  A    between atoms: O_2  and  C_3
REMARK    3  A    between atoms: C_8  and  C_9
REMARK                            x       y       z     vdW  Elec       q    Type
REMARK                         _______ _______ _______ _____ _____    ______ ____
ROOT
ATOM      1  C   UNL     1       5.674  -3.924  24.884  0.00  0.00    +0.133 A 
ATOM      2  C   UNL     1       4.614  -4.841  24.909  0.00  0.00    +0.066 A 
ATOM      3  C   UNL     1       4.747  -6.011  25.635  0.00  0.00    +0.117 A 
ATOM      4  N   UNL     1       5.827  -6.363  26.359  0.00  0.00    -0.237 NA
ATOM      5  C   UNL     1       6.831  -5.473  26.274  0.00  0.00    +0.142 A 
ATOM      6  N   UNL     1       8.025  -5.640  26.908  0.00  0.00    -0.345 N 
ATOM      7  H   UNL     1       8.234  -6.432  27.498  0.00  0.00    +0.167 HD
ATOM      8  C   UNL     1       8.877  -4.626  26.571  0.00  0.00    +0.095 A 
ATOM      9  C   UNL     1       8.211  -3.767  25.702  0.00  0.00    +0.031 A 
ATOM     10  C   UNL     1       6.868  -4.275  25.559  0.00  0.00    +0.069 A 
ENDROOT
BRANCH   9  11
ATOM     11  C   UNL     1       8.892  -2.653  25.041  0.00  0.00    +0.078 A 
ATOM     12  C   UNL     1       9.572  -2.852  23.856  0.00  0.00    +0.048 A 
ATOM     13  C   UNL     1      10.098  -1.730  23.267  0.00  0.00    +0.116 A 
ATOM     14  N   UNL     1       9.977  -0.500  23.792  0.00  0.00    -0.223 NA
ATOM     15  C   UNL     1       9.304  -0.411  24.941  0.00  0.00    +0.213 A 
ATOM     16  N   UNL     1       9.194   0.845  25.502  0.00  0.00    -0.327 N 
ATOM     17  H   UNL     1       9.930   1.433  25.138  0.00  0.00    +0.145 HD
ATOM     18  H   UNL     1       9.121   0.751  26.506  0.00  0.00    +0.145 HD
ATOM     19  N   UNL     1       8.781  -1.442  25.613  0.00  0.00    -0.215 NA
ENDBRANCH   9  11
BRANCH   1  21
ATOM     20  C   UNL     1       5.815  -2.854  22.794  0.00  0.00    +0.277 C 
ATOM     21  O   UNL     1       5.585  -2.736  24.197  0.00  0.00    -0.494 OA
ENDBRANCH   1  21
TORSDOF 2
ENDMDL
MODEL 3
REMARK VINA RESULT:      -6.0      3.138      5.305
REMARK  Name = 
REMARK  3 active torsions:
REMARK  status: ('A' for Active; 'I' for Inactive)
REMARK    1  A    between atoms: C_1  and  O_2
REMARK    2  A    between atoms: O_2  and  C_3
REMARK    3  A    between atoms: C_8  and  C_9
REMARK                            x       y       z     vdW  Elec       q    Type
REMARK                         _______ _______ _______ _____ _____    ______ ____
ROOT
ATOM      1  C   UNL     1       7.962   4.343  23.727  0.00  0.00    +0.133 A 
ATOM      2  C   UNL     1       7.389   5.577  24.063  0.00  0.00    +0.066 A 
ATOM      3  C   UNL     1       8.201   6.690  24.186  0.00  0.00    +0.117 A 
ATOM      4  N   UNL     1       9.534   6.710  23.993  0.00  0.00    -0.237 NA
ATOM      5  C   UNL     1      10.044   5.498  23.713  0.00  0.00    +0.142 A 
ATOM      6  N   UNL     1      11.373   5.284  23.503  0.00  0.00    -0.345 N 
ATOM      7  H   UNL     1      12.064   6.019  23.528  0.00  0.00    +0.167 HD
ATOM      8  C   UNL     1      11.606   3.949  23.326  0.00  0.00    +0.095 A 
ATOM      9  C   UNL     1      10.390   3.278  23.409  0.00  0.00    +0.031 A 
ATOM     10  C   UNL     1       9.370   4.282  23.593  0.00  0.00    +0.069 A 
ENDROOT
BRANCH   9  11
ATOM     11  C   UNL     1      10.309   1.817  23.402  0.00  0.00    +0.078 A 
ATOM     12  C   UNL     1      10.450   1.103  24.575  0.00  0.00    +0.048 A 
ATOM     13  C   UNL     1      10.267  -0.254  24.481  0.00  0.00    +0.116 A 
ATOM     14  N   UNL     1       9.971  -0.876  23.329  0.00  0.00    -0.223 NA
ATOM     15  C   UNL     1       9.859  -0.100  22.249  0.00  0.00    +0.213 A 
ATOM     16  N   UNL     1       9.580  -0.732  21.054  0.00  0.00    -0.327 N 
ATOM     17  H   UNL     1       9.848  -1.703  21.126  0.00  0.00    +0.145 HD
ATOM     18  H   UNL     1       9.974  -0.190  20.297  0.00  0.00    +0.145 HD
ATOM     19  N   UNL     1      10.049   1.223  22.225  0.00  0.00    -0.215 NA
ENDBRANCH   9  11
BRANCH   1  21
ATOM     20  C   UNL     1       6.664   3.043  22.257  0.00  0.00    +0.277 C 
ATOM     21  O   UNL     1       7.198   3.211  23.570  0.00  0.00    -0.494 OA
ENDBRANCH   1  21
TORSDOF 2
ENDMDL
MODEL 4
REMARK VINA RESULT:      -6.0      2.072      5.819
REMARK  Name = 
REMARK  3 active torsions:
REMARK  status: ('A' for Active; 'I' for Inactive)
REMARK    1  A    between atoms: C_1  and  O_2
REMARK    2  A    between atoms: O_2  and  C_3
REMARK    3  A    between atoms: C_8  and  C_9
REMARK                            x       y       z     vdW  Elec       q    Type
REMARK                         _______ _______ _______ _____ _____    ______ ____
ROOT
ATOM      1  C   UNL     1       5.657  -3.788  25.185  0.00  0.00    +0.133 A 
ATOM      2  C   UNL     1       4.635  -4.745  25.258  0.00  0.00    +0.066 A 
ATOM      3  C   UNL     1       4.898  -5.976  25.832  0.00  0.00    +0.117 A 
ATOM      4  N   UNL     1       6.077  -6.355  26.362  0.00  0.00    -0.237 NA
ATOM      5  C   UNL     1       7.036  -5.421  26.234  0.00  0.00    +0.142 A 
ATOM      6  N   UNL     1       8.311  -5.603  26.679  0.00  0.00    -0.345 N 
ATOM      7  H   UNL     1       8.620  -6.441  27.150  0.00  0.00    +0.167 HD
ATOM      8  C   UNL     1       9.081  -4.527  26.337  0.00  0.00    +0.095 A 
ATOM      9  C   UNL     1       8.278  -3.612  25.661  0.00  0.00    +0.031 A 
ATOM     10  C   UNL     1       6.942  -4.157  25.650  0.00  0.00    +0.069 A 
ENDROOT
BRANCH   9  11
ATOM     11  C   UNL     1       8.831  -2.411  25.034  0.00  0.00    +0.078 A 
ATOM     12  C   UNL     1       9.010  -1.258  25.770  0.00  0.00    +0.048 A 
ATOM     13  C   UNL     1       9.619  -0.215  25.118  0.00  0.00    +0.116 A 
ATOM     14  N   UNL     1      10.024  -0.285  23.840  0.00  0.00    -0.223 NA
ATOM     15  C   UNL     1       9.804  -1.442  23.212  0.00  0.00    +0.213 A 
ATOM     16  N   UNL     1      10.193  -1.517  21.890  0.00  0.00    -0.327 N 
ATOM     17  H   UNL     1      10.263  -0.583  21.515  0.00  0.00    +0.145 HD
ATOM     18  H   UNL     1       9.595  -2.174  21.409  0.00  0.00    +0.145 HD
ATOM     19  N   UNL     1       9.191  -2.505  23.743  0.00  0.00    -0.215 NA
ENDBRANCH   9  11
BRANCH   1  21
ATOM     20  C   UNL     1       5.185  -1.523  25.609  0.00  0.00    +0.277 C 
ATOM     21  O   UNL     1       5.442  -2.543  24.644  0.00  0.00    -0.494 OA
ENDBRANCH   1  21
TORSDOF 2
ENDMDL
MODEL 5
REMARK VINA RESULT:      -5.9      2.160      5.674
REMARK  Name = 
REMARK  3 active torsions:
REMARK  status: ('A' for Active; 'I' for Inactive)
REMARK    1  A    between atoms: C_1  and  O_2
REMARK    2  A    between atoms: O_2  and  C_3
REMARK    3  A    between atoms: C_8  and  C_9
REMARK                            x       y       z     vdW  Elec       q    Type
REMARK                         _______ _______ _______ _____ _____    ______ ____
ROOT
ATOM      1  C   UNL     1       7.936  -3.247  23.701  0.00  0.00    +0.133 A 
ATOM      2  C   UNL     1       8.200  -4.569  24.086  0.00  0.00    +0.066 A 
ATOM      3  C   UNL     1       8.603  -4.829  25.384  0.00  0.00    +0.117 A 
ATOM      4  N   UNL     1       8.758  -3.908  26.354  0.00  0.00    -0.237 NA
ATOM      5  C   UNL     1       8.534  -2.652  25.928  0.00  0.00    +0.142 A 
ATOM      6  N   UNL     1       8.655  -1.563  26.737  0.00  0.00    -0.345 N 
ATOM      7  H   UNL     1       8.906  -1.622  27.713  0.00  0.00    +0.167 HD
ATOM      8  C   UNL     1       8.451  -0.421  26.013  0.00  0.00    +0.095 A 
ATOM      9  C   UNL     1       8.174  -0.781  24.698  0.00  0.00    +0.031 A 
ATOM     10  C   UNL     1       8.162  -2.223  24.653  0.00  0.00    +0.069 A 
ENDROOT
BRANCH   9  11
ATOM     11  C   UNL     1       8.045   0.214  23.633  0.00  0.00    +0.078 A 
ATOM     12  C   UNL     1       6.799   0.654  23.234  0.00  0.00    +0.048 A 
ATOM     13  C   UNL     1       6.785   1.655  22.295  0.00  0.00    +0.116 A 
ATOM     14  N   UNL     1       7.902   2.189  21.776  0.00  0.00    -0.223 NA
ATOM     15  C   UNL     1       9.058   1.694  22.222  0.00  0.00    +0.213 A 
ATOM     16  N   UNL     1      10.212   2.218  21.678  0.00  0.00    -0.327 N 
ATOM     17  H   UNL     1       9.993   2.640  20.787  0.00  0.00    +0.145 HD
ATOM     18  H   UNL     1      10.935   1.512  21.698  0.00  0.00    +0.145 HD
ATOM     19  N   UNL     1       9.183   0.701  23.109  0.00  0.00    -0.215 NA
ENDBRANCH   9  11
BRANCH   1  21
ATOM     20  C   UNL     1       6.093  -2.946  22.270  0.00  0.00    +0.277 C 
ATOM     21  O   UNL     1       7.511  -2.936  22.431  0.00  0.00    -0.494 OA
ENDBRANCH   1  21
TORSDOF 2
ENDMDL
MODEL 6
REMARK VINA RESULT:      -5.9      1.712      2.533
REMARK  Name = 
REMARK  3 active torsions:
REMARK  status: ('A' for Active; 'I' for Inactive)
REMARK    1  A    between atoms: C_1  and  O_2
REMARK    2  A    between atoms: O_2  and  C_3
REMARK    3  A    between atoms: C_8  and  C_9
REMARK                            x       y       z     vdW  Elec       q    Type
REMARK                         _______ _______ _______ _____ _____    ______ ____
ROOT
ATOM      1  C   UNL     1       8.140   1.496  24.859  0.00  0.00    +0.133 A 
ATOM      2  C   UNL     1       8.187   2.817  25.327  0.00  0.00    +0.066 A 
ATOM      3  C   UNL     1       8.702   3.807  24.510  0.00  0.00    +0.117 A 
ATOM      4  N   UNL     1       9.166   3.626  23.258  0.00  0.00    -0.237 NA
ATOM      5  C   UNL     1       9.138   2.340  22.868  0.00  0.00    +0.142 A 
ATOM      6  N   UNL     1       9.581   1.927  21.647  0.00  0.00    -0.345 N 
ATOM      7  H   UNL     1       9.944   2.556  20.947  0.00  0.00    +0.167 HD
ATOM      8  C   UNL     1       9.510   0.564  21.564  0.00  0.00    +0.095 A 
ATOM      9  C   UNL     1       8.993   0.079  22.762  0.00  0.00    +0.031 A 
ATOM     10  C   UNL     1       8.690   1.228  23.582  0.00  0.00    +0.069 A 
ENDROOT
BRANCH   9  11
ATOM     11  C   UNL     1       8.921  -1.353  23.051  0.00  0.00    +0.078 A 
ATOM     12  C   UNL     1       9.749  -1.917  24.001  0.00  0.00    +0.048 A 
ATOM     13  C   UNL     1       9.543  -3.248  24.266  0.00  0.00    +0.116 A 
ATOM     14  N   UNL     1       8.601  -3.981  23.652  0.00  0.00    -0.223 NA
ATOM     15  C   UNL     1       7.853  -3.347  22.747  0.00  0.00    +0.213 A 
ATOM     16  N   UNL     1       6.899  -4.097  22.091  0.00  0.00    -0.327 N 
ATOM     17  H   UNL     1       7.151  -5.073  22.149  0.00  0.00    +0.145 HD
ATOM     18  H   UNL     1       6.747  -3.704  21.172  0.00  0.00    +0.145 HD
ATOM     19  N   UNL     1       7.992  -2.065  22.391  0.00  0.00    -0.215 NA
ENDBRANCH   9  11
BRANCH   1  21
ATOM     20  C   UNL     1       7.168   0.886  26.912  0.00  0.00    +0.277 C 
ATOM     21  O   UNL     1       7.618   0.478  25.621  0.00  0.00    -0.494 OA
ENDBRANCH   1  21
TORSDOF 2
ENDMDL
MODEL 7
REMARK VINA RESULT:      -5.9      3.176      5.972
REMARK  Name = 
REMARK  3 active torsions:
REMARK  status: ('A' for Active; 'I' for Inactive)
REMARK    1  A    between atoms: C_1  and  O_2
REMARK    2  A    between atoms: O_2  and  C_3
REMARK    3  A    between atoms: C_8  and  C_9
REMARK                            x       y       z     vdW  Elec       q    Type
REMARK                         _______ _______ _______ _____ _____    ______ ____
ROOT
ATOM      1  C   UNL     1       4.499  -3.822  24.202  0.00  0.00    +0.133 A 
ATOM      2  C   UNL     1       3.128  -4.115  24.204  0.00  0.00    +0.066 A 
ATOM      3  C   UNL     1       2.662  -5.182  23.455  0.00  0.00    +0.117 A 
ATOM      4  N   UNL     1       3.424  -6.005  22.709  0.00  0.00    -0.237 NA
ATOM      5  C   UNL     1       4.724  -5.661  22.706  0.00  0.00    +0.142 A 
ATOM      6  N   UNL     1       5.669  -6.343  22.000  0.00  0.00    -0.345 N 
ATOM      7  H   UNL     1       5.464  -7.161  21.445  0.00  0.00    +0.167 HD
ATOM      8  C   UNL     1       6.878  -5.717  22.118  0.00  0.00    +0.095 A 
ATOM      9  C   UNL     1       6.716  -4.603  22.936  0.00  0.00    +0.031 A 
ATOM     10  C   UNL     1       5.341  -4.601  23.371  0.00  0.00    +0.069 A 
ENDROOT
BRANCH   9  11
ATOM     11  C   UNL     1       7.793  -3.636  23.150  0.00  0.00    +0.078 A 
ATOM     12  C   UNL     1       8.562  -3.686  24.295  0.00  0.00    +0.048 A 
ATOM     13  C   UNL     1       9.605  -2.796  24.361  0.00  0.00    +0.116 A 
ATOM     14  N   UNL     1       9.881  -1.917  23.386  0.00  0.00    -0.223 NA
ATOM     15  C   UNL     1       9.079  -1.943  22.319  0.00  0.00    +0.213 A 
ATOM     16  N   UNL     1       9.338  -1.026  21.322  0.00  0.00    -0.327 N 
ATOM     17  H   UNL     1       9.870  -0.261  21.709  0.00  0.00    +0.145 HD
ATOM     18  H   UNL     1       8.474  -0.805  20.847  0.00  0.00    +0.145 HD
ATOM     19  N   UNL     1       8.019  -2.745  22.169  0.00  0.00    -0.215 NA
ENDBRANCH   9  11
BRANCH   1  21
ATOM     20  C   UNL     1       4.365  -2.587  26.200  0.00  0.00    +0.277 C 
ATOM     21  O   UNL     1       5.017  -2.788  24.946  0.00  0.00    -0.494 OA
ENDBRANCH   1  21
TORSDOF 2
ENDMDL
MODEL 8
REMARK VINA RESULT:      -5.8      3.171      5.806
REMARK  Name = 
REMARK  3 active torsions:
REMARK  status: ('A' for Active; 'I' for Inactive)
REMARK    1  A    between atoms: C_1  and  O_2
REMARK    2  A    between atoms: O_2  and  C_3
REMARK    3  A    between atoms: C_8  and  C_9
REMARK                            x       y       z     vdW  Elec       q    Type
REMARK                         _______ _______ _______ _____ _____    ______ ____
ROOT
ATOM      1  C   UNL     1       4.402  -4.089  24.862  0.00  0.00    +0.133 A 
ATOM      2  C   UNL     1       3.004  -3.996  24.893  0.00  0.00    +0.066 A 
ATOM      3  C   UNL     1       2.256  -4.715  23.978  0.00  0.00    +0.117 A 
ATOM      4  N   UNL     1       2.755  -5.539  23.036  0.00  0.00    -0.237 NA
ATOM      5  C   UNL     1       4.099  -5.565  23.018  0.00  0.00    +0.142 A 
ATOM      6  N   UNL     1       4.813  -6.313  22.131  0.00  0.00    -0.345 N 
ATOM      7  H   UNL     1       4.386  -6.910  21.439  0.00  0.00    +0.167 HD
ATOM      8  C   UNL     1       6.150  -6.076  22.294  0.00  0.00    +0.095 A 
ATOM      9  C   UNL     1       6.308  -5.156  23.326  0.00  0.00    +0.031 A 
ATOM     10  C   UNL     1       4.990  -4.874  23.840  0.00  0.00    +0.069 A 
ENDROOT
BRANCH   9  11
ATOM     11  C   UNL     1       7.613  -4.582  23.659  0.00  0.00    +0.078 A 
ATOM     12  C   UNL     1       7.984  -3.352  23.153  0.00  0.00    +0.048 A 
ATOM     13  C   UNL     1       9.185  -2.857  23.596  0.00  0.00    +0.116 A 
ATOM     14  N   UNL     1       9.972  -3.510  24.465  0.00  0.00    -0.223 NA
ATOM     15  C   UNL     1       9.528  -4.693  24.894  0.00  0.00    +0.213 A 
ATOM     16  N   UNL     1      10.341  -5.384  25.768  0.00  0.00    -0.327 N 
ATOM     17  H   UNL     1      11.288  -5.048  25.673  0.00  0.00    +0.145 HD
ATOM     18  H   UNL     1      10.180  -6.375  25.652  0.00  0.00    +0.145 HD
ATOM     19  N   UNL     1       8.392  -5.279  24.502  0.00  0.00    -0.215 NA
ENDBRANCH   9  11
BRANCH   1  21
ATOM     20  C   UNL     1       5.356  -2.026  25.469  0.00  0.00    +0.277 C 
ATOM     21  O   UNL     1       5.191  -3.413  25.762  0.00  0.00    -0.494 OA
ENDBRANCH   1  21
TORSDOF 2
ENDMDL
MODEL 9
REMARK VINA RESULT:      -5.7      1.958      5.620
REMARK  Name = 
REMARK  3 active torsions:
REMARK  status: ('A' for Active; 'I' for Inactive)
REMARK    1  A    between atoms: C_1  and  O_2
REMARK    2  A    between atoms: O_2  and  C_3
REMARK    3  A    between atoms: C_8  and  C_9
REMARK                            x       y       z     vdW  Elec       q    Type
REMARK                         _______ _______ _______ _____ _____    ______ ____
ROOT
ATOM      1  C   UNL     1       8.832  -0.930  25.201  0.00  0.00    +0.133 A 
ATOM      2  C   UNL     1       8.725  -2.266  25.611  0.00  0.00    +0.066 A 
ATOM      3  C   UNL     1       9.068  -3.276  24.729  0.00  0.00    +0.117 A 
ATOM      4  N   UNL     1       9.525  -3.097  23.475  0.00  0.00    -0.237 NA
ATOM      5  C   UNL     1       9.572  -1.803  23.112  0.00  0.00    +0.142 A 
ATOM      6  N   UNL     1       9.982  -1.394  21.879  0.00  0.00    -0.345 N 
ATOM      7  H   UNL     1      10.293  -2.029  21.159  0.00  0.00    +0.167 HD
ATOM      8  C   UNL     1       9.845  -0.039  21.769  0.00  0.00    +0.095 A 
ATOM      9  C   UNL     1       9.344   0.449  22.972  0.00  0.00    +0.031 A 
ATOM     10  C   UNL     1       9.228  -0.679  23.864  0.00  0.00    +0.069 A 
ENDROOT
BRANCH   9  11
ATOM     11  C   UNL     1       8.948   1.848  23.136  0.00  0.00    +0.078 A 
ATOM     12  C   UNL     1       9.708   2.703  23.909  0.00  0.00    +0.048 A 
ATOM     13  C   UNL     1       9.307   4.016  23.927  0.00  0.00    +0.116 A 
ATOM     14  N   UNL     1       8.242   4.467  23.246  0.00  0.00    -0.223 NA
ATOM     15  C   UNL     1       7.570   3.563  22.530  0.00  0.00    +0.213 A 
ATOM     16  N   UNL     1       6.459   4.011  21.845  0.00  0.00    -0.327 N 
ATOM     17  H   UNL     1       6.135   4.867  22.270  0.00  0.00    +0.145 HD
ATOM     18  H   UNL     1       5.800   3.251  21.757  0.00  0.00    +0.145 HD
ATOM     19  N   UNL     1       7.856   2.258  22.469  0.00  0.00    -0.215 NA
ENDBRANCH   9  11
BRANCH   1  21
ATOM     20  C   UNL     1       7.609  -0.228  27.083  0.00  0.00    +0.277 C 
ATOM     21  O   UNL     1       8.527   0.111  26.044  0.00  0.00    -0.494 OA
ENDBRANCH   1  21
TORSDOF 2
ENDMDL
