MODEL 1
REMARK VINA RESULT:      -5.4      0.000      0.000
REMARK  Name = 
REMARK  8 active torsions:
REMARK  status: ('A' for Active; 'I' for Inactive)
REMARK    1  A    between atoms: O_1  and  C_2
REMARK    2  A    between atoms: C_2  and  C_3
REMARK    3  A    between atoms: C_6  and  O_8
REMARK    4  A    between atoms: C_9  and  O_11
REMARK    5  A    between atoms: C_12  and  O_14
REMARK    6  A    between atoms: C_15  and  O_17
REMARK    7  A    between atoms: O_17  and  S_18
REMARK    8  A    between atoms: S_18  and  O_19
REMARK                            x       y       z     vdW  Elec       q    Type
REMARK                         _______ _______ _______ _____ _____    ______ ____
ROOT
ATOM      1  C   UNL     1       7.305  -4.989  23.279  0.00  0.00    +0.180 C 
ATOM      2  C   UNL     1       6.205  -5.475  24.249  0.00  0.00    +0.214 C 
ATOM      3  C   UNL     1       6.573  -5.125  25.694  0.00  0.00    +0.182 C 
ATOM      4  C   UNL     1       7.983  -5.598  26.043  0.00  0.00    +0.201 C 
ATOM      5  C   UNL     1       8.974  -5.078  24.985  0.00  0.00    +0.279 C 
ATOM      6  O   UNL     1       8.599  -5.486  23.679  0.00  0.00    -0.341 OA
ENDROOT
BRANCH   3   7
ATOM      7  O   UNL     1       5.638  -5.730  26.598  0.00  0.00    -0.386 OA
ATOM      8  H   UNL     1       5.023  -5.012  26.854  0.00  0.00    +0.210 HD
ENDBRANCH   3   7
BRANCH   4   9
ATOM      9  O   UNL     1       8.260  -5.136  27.379  0.00  0.00    -0.384 OA
ATOM     10  H   UNL     1       7.556  -4.516  27.639  0.00  0.00    +0.210 HD
ENDBRANCH   4   9
BRANCH   5  11
ATOM     11  O   UNL     1      10.255  -5.622  25.261  0.00  0.00    -0.365 OA
ATOM     12  H   UNL     1      10.160  -6.068  26.119  0.00  0.00    +0.213 HD
ENDBRANCH   5  11
BRANCH   1  13
ATOM     13  C   UNL     1       7.064  -5.467  21.835  0.00  0.00    +0.190 C 
BRANCH  13  14
ATOM     14  O   UNL     1       6.134  -6.533  21.763  0.00  0.00    -0.392 OA
ATOM     15  H   UNL     1       5.661  -6.459  20.916  0.00  0.00    +0.210 HD
ENDBRANCH  13  14
ENDBRANCH   1  13
BRANCH   2  16
ATOM     16  O   UNL     1       4.878  -5.064  23.921  0.00  0.00    -0.207 OA
BRANCH  16  17
ATOM     17  S   UNL     1       3.631  -6.098  23.903  0.00  0.00    +0.208 S 
ATOM     18  O   UNL     1       3.008  -6.102  22.598  0.00  0.00    -0.118 OA
ATOM     19  O   UNL     1       2.844  -5.884  25.095  0.00  0.00    -0.118 OA
BRANCH  17  20
ATOM     20  O   UNL     1       4.376  -7.509  24.117  0.00  0.00    -0.231 OA
ATOM     21  H   UNL     1       3.844  -8.188  23.648  0.00  0.00    +0.247 HD
ENDBRANCH  17  20
ENDBRANCH  16  17
ENDBRANCH   2  16
TORSDOF 8
ENDMDL
MODEL 2
REMARK VINA RESULT:      -5.0      3.968      5.972
REMARK  Name = 
REMARK  8 active torsions:
REMARK  status: ('A' for Active; 'I' for Inactive)
REMARK    1  A    between atoms: O_1  and  C_2
REMARK    2  A    between atoms: C_2  and  C_3
REMARK    3  A    between atoms: C_6  and  O_8
REMARK    4  A    between atoms: C_9  and  O_11
REMARK    5  A    between atoms: C_12  and  O_14
REMARK    6  A    between atoms: C_15  and  O_17
REMARK    7  A    between atoms: O_17  and  S_18
REMARK    8  A    between atoms: S_18  and  O_19
REMARK                            x       y       z     vdW  Elec       q    Type
REMARK                         _______ _______ _______ _____ _____    ______ ____
ROOT
ATOM      1  C   UNL     1       7.107  -2.752  25.981  0.00  0.00    +0.180 C 
ATOM      2  C   UNL     1       8.409  -2.407  25.223  0.00  0.00    +0.214 C 
ATOM      3  C   UNL     1       9.048  -3.677  24.651  0.00  0.00    +0.182 C 
ATOM      4  C   UNL     1       9.201  -4.756  25.721  0.00  0.00    +0.201 C 
ATOM      5  C   UNL     1       7.848  -4.979  26.422  0.00  0.00    +0.279 C 
ATOM      6  O   UNL     1       7.345  -3.771  26.973  0.00  0.00    -0.341 OA
ENDROOT
BRANCH   3   7
ATOM      7  O   UNL     1      10.337  -3.373  24.103  0.00  0.00    -0.386 OA
ATOM      8  H   UNL     1      10.405  -3.908  23.286  0.00  0.00    +0.210 HD
ENDBRANCH   3   7
BRANCH   4   9
ATOM      9  O   UNL     1       9.716  -5.928  25.061  0.00  0.00    -0.384 OA
ATOM     10  H   UNL     1       9.768  -6.648  25.714  0.00  0.00    +0.210 HD
ENDBRANCH   4   9
BRANCH   5  11
ATOM     11  O   UNL     1       8.037  -5.897  27.487  0.00  0.00    -0.365 OA
ATOM     12  H   UNL     1       7.194  -5.902  27.969  0.00  0.00    +0.213 HD
ENDBRANCH   5  11
BRANCH   1  13
ATOM     13  C   UNL     1       6.520  -1.534  26.717  0.00  0.00    +0.190 C 
BRANCH  13  14
ATOM     14  O   UNL     1       7.519  -0.642  27.177  0.00  0.00    -0.392 OA
ATOM     15  H   UNL     1       7.313  -0.413  28.100  0.00  0.00    +0.210 HD
ENDBRANCH  13  14
ENDBRANCH   1  13
BRANCH   2  16
ATOM     16  O   UNL     1       8.288  -1.381  24.238  0.00  0.00    -0.207 OA
BRANCH  16  17
ATOM     17  S   UNL     1       9.295  -0.114  24.180  0.00  0.00    +0.208 S 
ATOM     18  O   UNL     1       8.556   1.095  23.888  0.00  0.00    -0.118 OA
ATOM     19  O   UNL     1      10.448  -0.482  23.391  0.00  0.00    -0.118 OA
BRANCH  17  20
ATOM     20  O   UNL     1       9.812  -0.039  25.703  0.00  0.00    -0.231 OA
ATOM     21  H   UNL     1       9.015  -0.001  26.275  0.00  0.00    +0.247 HD
ENDBRANCH  17  20
ENDBRANCH  16  17
ENDBRANCH   2  16
TORSDOF 8
ENDMDL
MODEL 3
REMARK VINA RESULT:      -4.9      2.410      5.238
REMARK  Name = 
REMARK  8 active torsions:
REMARK  status: ('A' for Active; 'I' for Inactive)
REMARK    1  A    between atoms: O_1  and  C_2
REMARK    2  A    between atoms: C_2  and  C_3
REMARK    3  A    between atoms: C_6  and  O_8
REMARK    4  A    between atoms: C_9  and  O_11
REMARK    5  A    between atoms: C_12  and  O_14
REMARK    6  A    between atoms: C_15  and  O_17
REMARK    7  A    between atoms: O_17  and  S_18
REMARK    8  A    between atoms: S_18  and  O_19
REMARK                            x       y       z     vdW  Elec       q    Type
REMARK                         _______ _______ _______ _____ _____    ______ ____
ROOT
ATOM      1  C   UNL     1       6.104  -5.149  25.864  0.00  0.00    +0.180 C 
ATOM      2  C   UNL     1       6.856  -4.609  24.626  0.00  0.00    +0.214 C 
ATOM      3  C   UNL     1       5.954  -4.658  23.388  0.00  0.00    +0.182 C 
ATOM      4  C   UNL     1       5.334  -6.042  23.203  0.00  0.00    +0.201 C 
ATOM      5  C   UNL     1       4.650  -6.477  24.512  0.00  0.00    +0.279 C 
ATOM      6  O   UNL     1       5.559  -6.458  25.602  0.00  0.00    -0.341 OA
ENDROOT
BRANCH   3   7
ATOM      7  O   UNL     1       6.710  -4.322  22.218  0.00  0.00    -0.386 OA
ATOM      8  H   UNL     1       6.997  -5.178  21.840  0.00  0.00    +0.210 HD
ENDBRANCH   3   7
BRANCH   4   9
ATOM      9  O   UNL     1       4.438  -5.951  22.079  0.00  0.00    -0.384 OA
ATOM     10  H   UNL     1       4.671  -5.157  21.568  0.00  0.00    +0.210 HD
ENDBRANCH   4   9
BRANCH   5  11
ATOM     11  O   UNL     1       4.184  -7.808  24.357  0.00  0.00    -0.365 OA
ATOM     12  H   UNL     1       4.769  -8.203  23.689  0.00  0.00    +0.213 HD
ENDBRANCH   5  11
BRANCH   1  13
ATOM     13  C   UNL     1       7.021  -5.278  27.093  0.00  0.00    +0.190 C 
BRANCH  13  14
ATOM     14  O   UNL     1       8.314  -5.754  26.761  0.00  0.00    -0.392 OA
ATOM     15  H   UNL     1       8.944  -5.371  27.395  0.00  0.00    +0.210 HD
ENDBRANCH  13  14
ENDBRANCH   1  13
BRANCH   2  16
ATOM     16  O   UNL     1       7.464  -3.328  24.792  0.00  0.00    -0.207 OA
BRANCH  16  17
ATOM     17  S   UNL     1       9.018  -3.054  24.427  0.00  0.00    +0.208 S 
ATOM     18  O   UNL     1       9.784  -4.272  24.570  0.00  0.00    -0.118 OA
ATOM     19  O   UNL     1       9.434  -1.839  25.088  0.00  0.00    -0.118 OA
BRANCH  17  20
ATOM     20  O   UNL     1       8.925  -2.692  22.861  0.00  0.00    -0.231 OA
ATOM     21  H   UNL     1       8.870  -1.714  22.795  0.00  0.00    +0.247 HD
ENDBRANCH  17  20
ENDBRANCH  16  17
ENDBRANCH   2  16
TORSDOF 8
ENDMDL
MODEL 4
REMARK VINA RESULT:      -4.9      5.831      7.050
REMARK  Name = 
REMARK  8 active torsions:
REMARK  status: ('A' for Active; 'I' for Inactive)
REMARK    1  A    between atoms: O_1  and  C_2
REMARK    2  A    between atoms: C_2  and  C_3
REMARK    3  A    between atoms: C_6  and  O_8
REMARK    4  A    between atoms: C_9  and  O_11
REMARK    5  A    between atoms: C_12  and  O_14
REMARK    6  A    between atoms: C_15  and  O_17
REMARK    7  A    between atoms: O_17  and  S_18
REMARK    8  A    between atoms: S_18  and  O_19
REMARK                            x       y       z     vdW  Elec       q    Type
REMARK                         _______ _______ _______ _____ _____    ______ ____
ROOT
ATOM      1  C   UNL     1       9.313  -1.725  23.739  0.00  0.00    +0.180 C 
ATOM      2  C   UNL     1       9.091  -0.207  23.927  0.00  0.00    +0.214 C 
ATOM      3  C   UNL     1       9.178   0.167  25.410  0.00  0.00    +0.182 C 
ATOM      4  C   UNL     1       8.272  -0.719  26.264  0.00  0.00    +0.201 C 
ATOM      5  C   UNL     1       8.568  -2.199  25.958  0.00  0.00    +0.279 C 
ATOM      6  O   UNL     1       8.416  -2.483  24.576  0.00  0.00    -0.341 OA
ENDROOT
BRANCH   3   7
ATOM      7  O   UNL     1       8.799   1.538  25.592  0.00  0.00    -0.386 OA
ATOM      8  H   UNL     1       8.263   1.765  24.805  0.00  0.00    +0.210 HD
ENDBRANCH   3   7
BRANCH   4   9
ATOM      9  O   UNL     1       8.502  -0.350  27.637  0.00  0.00    -0.384 OA
ATOM     10  H   UNL     1       8.567   0.620  27.685  0.00  0.00    +0.210 HD
ENDBRANCH   4   9
BRANCH   5  11
ATOM     11  O   UNL     1       7.641  -3.001  26.672  0.00  0.00    -0.365 OA
ATOM     12  H   UNL     1       7.702  -2.698  27.594  0.00  0.00    +0.213 HD
ENDBRANCH   5  11
BRANCH   1  13
ATOM     13  C   UNL     1       9.068  -2.177  22.288  0.00  0.00    +0.190 C 
BRANCH  13  14
ATOM     14  O   UNL     1       9.997  -1.614  21.378  0.00  0.00    -0.392 OA
ATOM     15  H   UNL     1       9.878  -2.055  20.520  0.00  0.00    +0.210 HD
ENDBRANCH  13  14
ENDBRANCH   1  13
BRANCH   2  16
ATOM     16  O   UNL     1       9.910   0.634  23.115  0.00  0.00    -0.207 OA
BRANCH  16  17
ATOM     17  S   UNL     1       9.289   1.770  22.143  0.00  0.00    +0.208 S 
ATOM     18  O   UNL     1       8.563   2.748  22.923  0.00  0.00    -0.118 OA
ATOM     19  O   UNL     1       8.665   1.115  21.017  0.00  0.00    -0.118 OA
BRANCH  17  20
ATOM     20  O   UNL     1      10.620   2.466  21.563  0.00  0.00    -0.231 OA
ATOM     21  H   UNL     1      10.333   3.248  21.045  0.00  0.00    +0.247 HD
ENDBRANCH  17  20
ENDBRANCH  16  17
ENDBRANCH   2  16
TORSDOF 8
ENDMDL
MODEL 5
REMARK VINA RESULT:      -4.9      3.391      5.043
REMARK  Name = 
REMARK  8 active torsions:
REMARK  status: ('A' for Active; 'I' for Inactive)
REMARK    1  A    between atoms: O_1  and  C_2
REMARK    2  A    between atoms: C_2  and  C_3
REMARK    3  A    between atoms: C_6  and  O_8
REMARK    4  A    between atoms: C_9  and  O_11
REMARK    5  A    between atoms: C_12  and  O_14
REMARK    6  A    between atoms: C_15  and  O_17
REMARK    7  A    between atoms: O_17  and  S_18
REMARK    8  A    between atoms: S_18  and  O_19
REMARK                            x       y       z     vdW  Elec       q    Type
REMARK                         _______ _______ _______ _____ _____    ______ ____
ROOT
ATOM      1  C   UNL     1       6.432  -3.733  25.022  0.00  0.00    +0.180 C 
ATOM      2  C   UNL     1       7.701  -3.045  24.471  0.00  0.00    +0.214 C 
ATOM      3  C   UNL     1       8.874  -4.029  24.442  0.00  0.00    +0.182 C 
ATOM      4  C   UNL     1       9.060  -4.716  25.794  0.00  0.00    +0.201 C 
ATOM      5  C   UNL     1       7.721  -5.328  26.246  0.00  0.00    +0.279 C 
ATOM      6  O   UNL     1       6.696  -4.349  26.299  0.00  0.00    -0.341 OA
ENDROOT
BRANCH   3   7
ATOM      7  O   UNL     1      10.083  -3.339  24.097  0.00  0.00    -0.386 OA
ATOM      8  H   UNL     1      10.586  -3.262  24.933  0.00  0.00    +0.210 HD
ENDBRANCH   3   7
BRANCH   4   9
ATOM      9  O   UNL     1      10.116  -5.682  25.629  0.00  0.00    -0.384 OA
ATOM     10  H   UNL     1      10.246  -6.139  26.478  0.00  0.00    +0.210 HD
ENDBRANCH   4   9
BRANCH   5  11
ATOM     11  O   UNL     1       7.885  -5.859  27.551  0.00  0.00    -0.365 OA
ATOM     12  H   UNL     1       8.846  -5.924  27.678  0.00  0.00    +0.213 HD
ENDBRANCH   5  11
BRANCH   1  13
ATOM     13  C   UNL     1       5.272  -2.742  25.229  0.00  0.00    +0.190 C 
BRANCH  13  14
ATOM     14  O   UNL     1       5.699  -1.391  25.202  0.00  0.00    -0.392 OA
ATOM     15  H   UNL     1       5.854  -1.145  24.274  0.00  0.00    +0.210 HD
ENDBRANCH  13  14
ENDBRANCH   1  13
BRANCH   2  16
ATOM     16  O   UNL     1       7.537  -2.374  23.221  0.00  0.00    -0.207 OA
BRANCH  16  17
ATOM     17  S   UNL     1       8.088  -0.872  22.966  0.00  0.00    +0.208 S 
ATOM     18  O   UNL     1       6.984   0.022  22.695  0.00  0.00    -0.118 OA
ATOM     19  O   UNL     1       9.214  -0.946  22.065  0.00  0.00    -0.118 OA
BRANCH  17  20
ATOM     20  O   UNL     1       8.702  -0.501  24.407  0.00  0.00    -0.231 OA
ATOM     21  H   UNL     1       8.051  -0.796  25.081  0.00  0.00    +0.247 HD
ENDBRANCH  17  20
ENDBRANCH  16  17
ENDBRANCH   2  16
TORSDOF 8
ENDMDL
MODEL 6
REMARK VINA RESULT:      -4.9      2.009      3.988
REMARK  Name = 
REMARK  8 active torsions:
REMARK  status: ('A' for Active; 'I' for Inactive)
REMARK    1  A    between atoms: O_1  and  C_2
REMARK    2  A    between atoms: C_2  and  C_3
REMARK    3  A    between atoms: C_6  and  O_8
REMARK    4  A    between atoms: C_9  and  O_11
REMARK    5  A    between atoms: C_12  and  O_14
REMARK    6  A    between atoms: C_15  and  O_17
REMARK    7  A    between atoms: O_17  and  S_18
REMARK    8  A    between atoms: S_18  and  O_19
REMARK                            x       y       z     vdW  Elec       q    Type
REMARK                         _______ _______ _______ _____ _____    ______ ____
ROOT
ATOM      1  C   UNL     1       7.465  -4.988  26.704  0.00  0.00    +0.180 C 
ATOM      2  C   UNL     1       6.605  -5.555  25.552  0.00  0.00    +0.214 C 
ATOM      3  C   UNL     1       5.215  -5.945  26.063  0.00  0.00    +0.182 C 
ATOM      4  C   UNL     1       5.305  -6.848  27.293  0.00  0.00    +0.201 C 
ATOM      5  C   UNL     1       6.215  -6.189  28.347  0.00  0.00    +0.279 C 
ATOM      6  O   UNL     1       7.500  -5.905  27.816  0.00  0.00    -0.341 OA
ENDROOT
BRANCH   3   7
ATOM      7  O   UNL     1       4.487  -6.628  25.033  0.00  0.00    -0.386 OA
ATOM      8  H   UNL     1       5.166  -6.942  24.401  0.00  0.00    +0.210 HD
ENDBRANCH   3   7
BRANCH   4   9
ATOM      9  O   UNL     1       3.957  -7.073  27.745  0.00  0.00    -0.384 OA
ATOM     10  H   UNL     1       3.903  -6.819  28.683  0.00  0.00    +0.210 HD
ENDBRANCH   4   9
BRANCH   5  11
ATOM     11  O   UNL     1       6.379  -7.091  29.428  0.00  0.00    -0.365 OA
ATOM     12  H   UNL     1       5.559  -7.019  29.945  0.00  0.00    +0.213 HD
ENDBRANCH   5  11
BRANCH   1  13
ATOM     13  C   UNL     1       8.923  -4.740  26.276  0.00  0.00    +0.190 C 
BRANCH  13  14
ATOM     14  O   UNL     1       9.475  -5.832  25.562  0.00  0.00    -0.392 OA
ATOM     15  H   UNL     1      10.366  -5.577  25.268  0.00  0.00    +0.210 HD
ENDBRANCH  13  14
ENDBRANCH   1  13
BRANCH   2  16
ATOM     16  O   UNL     1       6.533  -4.736  24.384  0.00  0.00    -0.207 OA
BRANCH  16  17
ATOM     17  S   UNL     1       6.998  -5.264  22.926  0.00  0.00    +0.208 S 
ATOM     18  O   UNL     1       8.287  -5.913  23.021  0.00  0.00    -0.118 OA
ATOM     19  O   UNL     1       6.773  -4.209  21.965  0.00  0.00    -0.118 OA
BRANCH  17  20
ATOM     20  O   UNL     1       5.885  -6.385  22.616  0.00  0.00    -0.231 OA
ATOM     21  H   UNL     1       6.157  -6.839  21.789  0.00  0.00    +0.247 HD
ENDBRANCH  17  20
ENDBRANCH  16  17
ENDBRANCH   2  16
TORSDOF 8
ENDMDL
MODEL 7
REMARK VINA RESULT:      -4.8      3.490      4.305
REMARK  Name = 
REMARK  8 active torsions:
REMARK  status: ('A' for Active; 'I' for Inactive)
REMARK    1  A    between atoms: O_1  and  C_2
REMARK    2  A    between atoms: C_2  and  C_3
REMARK    3  A    between atoms: C_6  and  O_8
REMARK    4  A    between atoms: C_9  and  O_11
REMARK    5  A    between atoms: C_12  and  O_14
REMARK    6  A    between atoms: C_15  and  O_17
REMARK    7  A    between atoms: O_17  and  S_18
REMARK    8  A    between atoms: S_18  and  O_19
REMARK                            x       y       z     vdW  Elec       q    Type
REMARK                         _______ _______ _______ _____ _____    ______ ____
ROOT
ATOM      1  C   UNL     1       9.374  -2.823  24.599  0.00  0.00    +0.180 C 
ATOM      2  C   UNL     1       7.910  -2.633  25.054  0.00  0.00    +0.214 C 
ATOM      3  C   UNL     1       7.630  -3.455  26.316  0.00  0.00    +0.182 C 
ATOM      4  C   UNL     1       8.058  -4.911  26.141  0.00  0.00    +0.201 C 
ATOM      5  C   UNL     1       9.519  -4.960  25.654  0.00  0.00    +0.279 C 
ATOM      6  O   UNL     1       9.690  -4.222  24.454  0.00  0.00    -0.341 OA
ENDROOT
BRANCH   3   7
ATOM      7  O   UNL     1       6.231  -3.412  26.628  0.00  0.00    -0.386 OA
ATOM      8  H   UNL     1       5.857  -4.237  26.256  0.00  0.00    +0.210 HD
ENDBRANCH   3   7
BRANCH   4   9
ATOM      9  O   UNL     1       7.843  -5.564  27.406  0.00  0.00    -0.384 OA
ATOM     10  H   UNL     1       8.709  -5.720  27.820  0.00  0.00    +0.210 HD
ENDBRANCH   4   9
BRANCH   5  11
ATOM     11  O   UNL     1       9.859  -6.311  25.387  0.00  0.00    -0.365 OA
ATOM     12  H   UNL     1       9.839  -6.389  24.418  0.00  0.00    +0.213 HD
ENDBRANCH   5  11
BRANCH   1  13
ATOM     13  C   UNL     1       9.657  -2.152  23.242  0.00  0.00    +0.190 C 
BRANCH  13  14
ATOM     14  O   UNL     1       9.803  -0.747  23.349  0.00  0.00    -0.392 OA
ATOM     15  H   UNL     1       9.684  -0.367  22.462  0.00  0.00    +0.210 HD
ENDBRANCH  13  14
ENDBRANCH   1  13
BRANCH   2  16
ATOM     16  O   UNL     1       7.485  -1.277  25.195  0.00  0.00    -0.207 OA
BRANCH  16  17
ATOM     17  S   UNL     1       6.347  -0.623  24.247  0.00  0.00    +0.208 S 
ATOM     18  O   UNL     1       6.941   0.350  23.357  0.00  0.00    -0.118 OA
ATOM     19  O   UNL     1       5.213  -0.273  25.070  0.00  0.00    -0.118 OA
BRANCH  17  20
ATOM     20  O   UNL     1       5.881  -1.893  23.374  0.00  0.00    -0.231 OA
ATOM     21  H   UNL     1       5.048  -1.640  22.920  0.00  0.00    +0.247 HD
ENDBRANCH  17  20
ENDBRANCH  16  17
ENDBRANCH   2  16
TORSDOF 8
ENDMDL
MODEL 8
REMARK VINA RESULT:      -4.8      3.783      5.528
REMARK  Name = 
REMARK  8 active torsions:
REMARK  status: ('A' for Active; 'I' for Inactive)
REMARK    1  A    between atoms: O_1  and  C_2
REMARK    2  A    between atoms: C_2  and  C_3
REMARK    3  A    between atoms: C_6  and  O_8
REMARK    4  A    between atoms: C_9  and  O_11
REMARK    5  A    between atoms: C_12  and  O_14
REMARK    6  A    between atoms: C_15  and  O_17
REMARK    7  A    between atoms: O_17  and  S_18
REMARK    8  A    between atoms: S_18  and  O_19
REMARK                            x       y       z     vdW  Elec       q    Type
REMARK                         _______ _______ _______ _____ _____    ______ ____
ROOT
ATOM      1  C   UNL     1       6.804  -3.071  25.670  0.00  0.00    +0.180 C 
ATOM      2  C   UNL     1       8.107  -2.618  24.973  0.00  0.00    +0.214 C 
ATOM      3  C   UNL     1       8.944  -3.833  24.562  0.00  0.00    +0.182 C 
ATOM      4  C   UNL     1       9.149  -4.793  25.734  0.00  0.00    +0.201 C 
ATOM      5  C   UNL     1       7.785  -5.137  26.360  0.00  0.00    +0.279 C 
ATOM      6  O   UNL     1       7.091  -3.966  26.764  0.00  0.00    -0.341 OA
ENDROOT
BRANCH   3   7
ATOM      7  O   UNL     1      10.223  -3.405  24.077  0.00  0.00    -0.386 OA
ATOM      8  H   UNL     1      10.430  -2.589  24.576  0.00  0.00    +0.210 HD
ENDBRANCH   3   7
BRANCH   4   9
ATOM      9  O   UNL     1       9.859  -5.935  25.218  0.00  0.00    -0.384 OA
ATOM     10  H   UNL     1      10.804  -5.712  25.173  0.00  0.00    +0.210 HD
ENDBRANCH   4   9
BRANCH   5  11
ATOM     11  O   UNL     1       8.006  -5.932  27.513  0.00  0.00    -0.365 OA
ATOM     12  H   UNL     1       7.687  -6.818  27.273  0.00  0.00    +0.213 HD
ENDBRANCH   5  11
BRANCH   1  13
ATOM     13  C   UNL     1       6.011  -1.887  26.252  0.00  0.00    +0.190 C 
BRANCH  13  14
ATOM     14  O   UNL     1       5.411  -1.087  25.248  0.00  0.00    -0.392 OA
ATOM     15  H   UNL     1       6.109  -0.549  24.838  0.00  0.00    +0.210 HD
ENDBRANCH  13  14
ENDBRANCH   1  13
BRANCH   2  16
ATOM     16  O   UNL     1       7.934  -1.700  23.894  0.00  0.00    -0.207 OA
BRANCH  16  17
ATOM     17  S   UNL     1       8.642  -0.244  23.874  0.00  0.00    +0.208 S 
ATOM     18  O   UNL     1      10.019  -0.356  24.303  0.00  0.00    -0.118 OA
ATOM     19  O   UNL     1       7.751   0.706  24.498  0.00  0.00    -0.118 OA
BRANCH  17  20
ATOM     20  O   UNL     1       8.625   0.105  22.302  0.00  0.00    -0.231 OA
ATOM     21  H   UNL     1       9.315   0.786  22.152  0.00  0.00    +0.247 HD
ENDBRANCH  17  20
ENDBRANCH  16  17
ENDBRANCH   2  16
TORSDOF 8
ENDMDL
MODEL 9
REMARK VINA RESULT:      -4.8      5.899      7.374
REMARK  Name = 
REMARK  8 active torsions:
REMARK  status: ('A' for Active; 'I' for Inactive)
REMARK    1  A    between atoms: O_1  and  C_2
REMARK    2  A    between atoms: C_2  and  C_3
REMARK    3  A    between atoms: C_6  and  O_8
REMARK    4  A    between atoms: C_9  and  O_11
REMARK    5  A    between atoms: C_12  and  O_14
REMARK    6  A    between atoms: C_15  and  O_17
REMARK    7  A    between atoms: O_17  and  S_18
REMARK    8  A    between atoms: S_18  and  O_19
REMARK                            x       y       z     vdW  Elec       q    Type
REMARK                         _______ _______ _______ _____ _____    ______ ____
ROOT
ATOM      1  C   UNL     1       9.091   0.642  25.145  0.00  0.00    +0.180 C 
ATOM      2  C   UNL     1       9.227  -0.352  23.969  0.00  0.00    +0.214 C 
ATOM      3  C   UNL     1      10.006   0.288  22.815  0.00  0.00    +0.182 C 
ATOM      4  C   UNL     1       9.424   1.649  22.435  0.00  0.00    +0.201 C 
ATOM      5  C   UNL     1       9.307   2.527  23.695  0.00  0.00    +0.279 C 
ATOM      6  O   UNL     1       8.529   1.892  24.698  0.00  0.00    -0.341 OA
ENDROOT
BRANCH   3   7
ATOM      7  O   UNL     1       9.977  -0.572  21.668  0.00  0.00    -0.386 OA
ATOM      8  H   UNL     1      10.214  -0.001  20.910  0.00  0.00    +0.210 HD
ENDBRANCH   3   7
BRANCH   4   9
ATOM      9  O   UNL     1      10.281   2.199  21.417  0.00  0.00    -0.384 OA
ATOM     10  H   UNL     1       9.775   2.251  20.588  0.00  0.00    +0.210 HD
ENDBRANCH   4   9
BRANCH   5  11
ATOM     11  O   UNL     1       8.659   3.738  23.342  0.00  0.00    -0.365 OA
ATOM     12  H   UNL     1       8.154   3.994  24.132  0.00  0.00    +0.213 HD
ENDBRANCH   5  11
BRANCH   1  13
ATOM     13  C   UNL     1       8.172   0.106  26.258  0.00  0.00    +0.190 C 
BRANCH  13  14
ATOM     14  O   UNL     1       8.799  -0.887  27.051  0.00  0.00    -0.392 OA
ATOM     15  H   UNL     1       8.526  -0.748  27.974  0.00  0.00    +0.210 HD
ENDBRANCH  13  14
ENDBRANCH   1  13
BRANCH   2  16
ATOM     16  O   UNL     1       9.744  -1.637  24.313  0.00  0.00    -0.207 OA
BRANCH  16  17
ATOM     17  S   UNL     1       8.890  -2.998  24.105  0.00  0.00    +0.208 S 
ATOM     18  O   UNL     1       8.472  -3.115  22.725  0.00  0.00    -0.118 OA
ATOM     19  O   UNL     1       7.929  -3.102  25.178  0.00  0.00    -0.118 OA
BRANCH  17  20
ATOM     20  O   UNL     1      10.000  -4.126  24.399  0.00  0.00    -0.231 OA
ATOM     21  H   UNL     1       9.545  -4.995  24.357  0.00  0.00    +0.247 HD
ENDBRANCH  17  20
ENDBRANCH  16  17
ENDBRANCH   2  16
TORSDOF 8
ENDMDL
