MODEL 1
REMARK VINA RESULT:      -6.5      0.000      0.000
REMARK  Name = 
REMARK  5 active torsions:
REMARK  status: ('A' for Active; 'I' for Inactive)
REMARK    1  A    between atoms: C_2  and  C_8
REMARK    2  A    between atoms: C_10  and  O_11
REMARK    3  A    between atoms: O_11  and  C_12
REMARK    4  A    between atoms: C_17  and  O_18
REMARK    5  A    between atoms: O_18  and  C_19
REMARK                            x       y       z     vdW  Elec       q    Type
REMARK                         _______ _______ _______ _____ _____    ______ ____
ROOT
ATOM      1  C   UNL     1       9.760  -0.871  24.224  0.00  0.00    -0.039 A 
ATOM      2  C   UNL     1       9.319  -0.552  25.513  0.00  0.00    +0.008 A 
ATOM      3  C   UNL     1       8.607  -1.477  26.281  0.00  0.00    +0.049 A 
ATOM      4  C   UNL     1       8.306  -2.740  25.769  0.00  0.00    +0.162 A 
ATOM      5  C   UNL     1       8.751  -3.086  24.479  0.00  0.00    +0.163 A 
ATOM      6  C   UNL     1       9.468  -2.151  23.719  0.00  0.00    +0.053 A 
ENDROOT
BRANCH   1   7
ATOM      7  C   UNL     1      10.476   0.136  23.329  0.00  0.00    +0.045 C 
ATOM      8  C   UNL     1       9.809   0.227  21.947  0.00  0.00    +0.105 C 
ATOM      9  C   UNL     1       8.883   1.412  22.084  0.00  0.00    +0.214 C 
ATOM     10  O   UNL     1       7.982   1.723  21.327  0.00  0.00    -0.276 OA
ATOM     11  N   UNL     1       9.273   2.139  23.191  0.00  0.00    -0.315 N 
ATOM     12  H   UNL     1       8.835   3.027  23.409  0.00  0.00    +0.149 HD
ATOM     13  C   UNL     1      10.443   1.591  23.812  0.00  0.00    +0.112 C 
ENDBRANCH   1   7
BRANCH   4  14
ATOM     14  O   UNL     1       7.592  -3.699  26.444  0.00  0.00    -0.491 OA
ATOM     15  C   UNL     1       6.316  -3.329  26.950  0.00  0.00    +0.277 C 
ENDBRANCH   4  14
BRANCH   5  16
ATOM     16  O   UNL     1       8.378  -4.325  24.023  0.00  0.00    -0.485 OA
BRANCH  16  17
ATOM     17  C   UNL     1       7.479  -4.407  22.925  0.00  0.00    +0.174 C 
ATOM     18  C   UNL     1       6.016  -4.294  23.357  0.00  0.00    +0.044 C 
ATOM     19  C   UNL     1       5.223  -5.222  22.436  0.00  0.00    +0.004 C 
ATOM     20  C   UNL     1       6.250  -5.947  21.574  0.00  0.00    +0.004 C 
ATOM     21  C   UNL     1       7.547  -5.823  22.351  0.00  0.00    +0.044 C 
ENDBRANCH  16  17
ENDBRANCH   5  16
TORSDOF 4
ENDMDL
MODEL 2
REMARK VINA RESULT:      -6.3      1.415      1.728
REMARK  Name = 
REMARK  5 active torsions:
REMARK  status: ('A' for Active; 'I' for Inactive)
REMARK    1  A    between atoms: C_2  and  C_8
REMARK    2  A    between atoms: C_10  and  O_11
REMARK    3  A    between atoms: O_11  and  C_12
REMARK    4  A    between atoms: C_17  and  O_18
REMARK    5  A    between atoms: O_18  and  C_19
REMARK                            x       y       z     vdW  Elec       q    Type
REMARK                         _______ _______ _______ _____ _____    ______ ____
ROOT
ATOM      1  C   UNL     1       8.374  -0.121  23.649  0.00  0.00    -0.039 A 
ATOM      2  C   UNL     1       8.635  -0.083  25.023  0.00  0.00    +0.008 A 
ATOM      3  C   UNL     1       8.804  -1.259  25.758  0.00  0.00    +0.049 A 
ATOM      4  C   UNL     1       8.699  -2.505  25.136  0.00  0.00    +0.162 A 
ATOM      5  C   UNL     1       8.449  -2.565  23.752  0.00  0.00    +0.163 A 
ATOM      6  C   UNL     1       8.285  -1.378  23.024  0.00  0.00    +0.053 A 
ENDROOT
BRANCH   1   7
ATOM      7  C   UNL     1       8.112   1.138  22.829  0.00  0.00    +0.045 C 
ATOM      8  C   UNL     1       8.652   2.390  23.540  0.00  0.00    +0.105 C 
ATOM      9  C   UNL     1      10.012   2.588  22.914  0.00  0.00    +0.214 C 
ATOM     10  O   UNL     1      10.902   3.312  23.320  0.00  0.00    -0.276 OA
ATOM     11  N   UNL     1      10.061   1.853  21.747  0.00  0.00    -0.315 N 
ATOM     12  H   UNL     1      10.858   1.920  21.125  0.00  0.00    +0.149 HD
ATOM     13  C   UNL     1       8.816   1.198  21.468  0.00  0.00    +0.112 C 
ENDBRANCH   1   7
BRANCH   4  14
ATOM     14  O   UNL     1       8.827  -3.708  25.785  0.00  0.00    -0.491 OA
ATOM     15  C   UNL     1       7.781  -4.088  26.669  0.00  0.00    +0.277 C 
ENDBRANCH   4  14
BRANCH   5  16
ATOM     16  O   UNL     1       8.311  -3.821  23.216  0.00  0.00    -0.485 OA
BRANCH  16  17
ATOM     17  C   UNL     1       7.140  -4.121  22.469  0.00  0.00    +0.174 C 
ATOM     18  C   UNL     1       5.916  -4.340  23.362  0.00  0.00    +0.044 C 
ATOM     19  C   UNL     1       5.088  -5.437  22.693  0.00  0.00    +0.004 C 
ATOM     20  C   UNL     1       5.902  -5.919  21.498  0.00  0.00    +0.004 C 
ATOM     21  C   UNL     1       7.323  -5.491  21.815  0.00  0.00    +0.044 C 
ENDBRANCH  16  17
ENDBRANCH   5  16
TORSDOF 4
ENDMDL
MODEL 3
REMARK VINA RESULT:      -5.9      1.469      3.375
REMARK  Name = 
REMARK  5 active torsions:
REMARK  status: ('A' for Active; 'I' for Inactive)
REMARK    1  A    between atoms: C_2  and  C_8
REMARK    2  A    between atoms: C_10  and  O_11
REMARK    3  A    between atoms: O_11  and  C_12
REMARK    4  A    between atoms: C_17  and  O_18
REMARK    5  A    between atoms: O_18  and  C_19
REMARK                            x       y       z     vdW  Elec       q    Type
REMARK                         _______ _______ _______ _____ _____    ______ ____
ROOT
ATOM      1  C   UNL     1       9.496  -1.368  23.314  0.00  0.00    -0.039 A 
ATOM      2  C   UNL     1       8.727  -1.536  22.157  0.00  0.00    +0.008 A 
ATOM      3  C   UNL     1       7.869  -2.629  22.014  0.00  0.00    +0.049 A 
ATOM      4  C   UNL     1       7.772  -3.591  23.021  0.00  0.00    +0.162 A 
ATOM      5  C   UNL     1       8.528  -3.434  24.199  0.00  0.00    +0.163 A 
ATOM      6  C   UNL     1       9.382  -2.332  24.333  0.00  0.00    +0.053 A 
ENDROOT
BRANCH   1   7
ATOM      7  C   UNL     1      10.496  -0.227  23.476  0.00  0.00    +0.045 C 
ATOM      8  C   UNL     1      10.087   0.997  22.641  0.00  0.00    +0.105 C 
ATOM      9  C   UNL     1       9.345   1.863  23.632  0.00  0.00    +0.214 C 
ATOM     10  O   UNL     1       8.640   2.821  23.376  0.00  0.00    -0.276 OA
ATOM     11  N   UNL     1       9.656   1.427  24.903  0.00  0.00    -0.315 N 
ATOM     12  H   UNL     1       9.332   1.933  25.719  0.00  0.00    +0.149 HD
ATOM     13  C   UNL     1      10.610   0.356  24.890  0.00  0.00    +0.112 C 
ENDBRANCH   1   7
BRANCH   4  14
ATOM     14  O   UNL     1       6.975  -4.707  22.953  0.00  0.00    -0.491 OA
ATOM     15  C   UNL     1       7.213  -5.616  21.887  0.00  0.00    +0.277 C 
ENDBRANCH   4  14
BRANCH   5  16
ATOM     16  O   UNL     1       8.420  -4.441  25.125  0.00  0.00    -0.485 OA
BRANCH  16  17
ATOM     17  C   UNL     1       7.831  -4.151  26.385  0.00  0.00    +0.174 C 
ATOM     18  C   UNL     1       7.496  -5.415  27.179  0.00  0.00    +0.044 C 
ATOM     19  C   UNL     1       6.199  -5.118  27.933  0.00  0.00    +0.004 C 
ATOM     20  C   UNL     1       5.741  -3.741  27.468  0.00  0.00    +0.004 C 
ATOM     21  C   UNL     1       6.451  -3.536  26.143  0.00  0.00    +0.044 C 
ENDBRANCH  16  17
ENDBRANCH   5  16
TORSDOF 4
ENDMDL
MODEL 4
REMARK VINA RESULT:      -5.8      2.942      5.919
REMARK  Name = 
REMARK  5 active torsions:
REMARK  status: ('A' for Active; 'I' for Inactive)
REMARK    1  A    between atoms: C_2  and  C_8
REMARK    2  A    between atoms: C_10  and  O_11
REMARK    3  A    between atoms: O_11  and  C_12
REMARK    4  A    between atoms: C_17  and  O_18
REMARK    5  A    between atoms: O_18  and  C_19
REMARK                            x       y       z     vdW  Elec       q    Type
REMARK                         _______ _______ _______ _____ _____    ______ ____
ROOT
ATOM      1  C   UNL     1       6.366  -3.498  24.953  0.00  0.00    -0.039 A 
ATOM      2  C   UNL     1       5.518  -2.959  25.927  0.00  0.00    +0.008 A 
ATOM      3  C   UNL     1       5.149  -1.612  25.897  0.00  0.00    +0.049 A 
ATOM      4  C   UNL     1       5.636  -0.766  24.899  0.00  0.00    +0.162 A 
ATOM      5  C   UNL     1       6.481  -1.290  23.902  0.00  0.00    +0.163 A 
ATOM      6  C   UNL     1       6.841  -2.644  23.940  0.00  0.00    +0.053 A 
ENDROOT
BRANCH   1   7
ATOM      7  C   UNL     1       6.847  -4.945  24.993  0.00  0.00    +0.045 C 
ATOM      8  C   UNL     1       8.110  -5.137  24.136  0.00  0.00    +0.105 C 
ATOM      9  C   UNL     1       9.233  -5.017  25.139  0.00  0.00    +0.214 C 
ATOM     10  O   UNL     1      10.416  -4.869  24.893  0.00  0.00    -0.276 OA
ATOM     11  N   UNL     1       8.701  -5.172  26.403  0.00  0.00    -0.315 N 
ATOM     12  H   UNL     1       9.304  -5.216  27.217  0.00  0.00    +0.149 HD
ATOM     13  C   UNL     1       7.296  -5.455  26.368  0.00  0.00    +0.112 C 
ENDBRANCH   1   7
BRANCH   4  14
ATOM     14  O   UNL     1       5.345   0.573  24.809  0.00  0.00    -0.491 OA
ATOM     15  C   UNL     1       5.751   1.404  25.888  0.00  0.00    +0.277 C 
ENDBRANCH   4  14
BRANCH   5  16
ATOM     16  O   UNL     1       6.960  -0.392  22.982  0.00  0.00    -0.485 OA
BRANCH  16  17
ATOM     17  C   UNL     1       8.364  -0.198  22.881  0.00  0.00    +0.174 C 
ATOM     18  C   UNL     1       8.937   0.563  24.079  0.00  0.00    +0.044 C 
ATOM     19  C   UNL     1      10.056   1.447  23.530  0.00  0.00    +0.004 C 
ATOM     20  C   UNL     1      10.031   1.278  22.015  0.00  0.00    +0.004 C 
ATOM     21  C   UNL     1       8.637   0.758  21.719  0.00  0.00    +0.044 C 
ENDBRANCH  16  17
ENDBRANCH   5  16
TORSDOF 4
ENDMDL
MODEL 5
REMARK VINA RESULT:      -5.8      2.909      6.269
REMARK  Name = 
REMARK  5 active torsions:
REMARK  status: ('A' for Active; 'I' for Inactive)
REMARK    1  A    between atoms: C_2  and  C_8
REMARK    2  A    between atoms: C_10  and  O_11
REMARK    3  A    between atoms: O_11  and  C_12
REMARK    4  A    between atoms: C_17  and  O_18
REMARK    5  A    between atoms: O_18  and  C_19
REMARK                            x       y       z     vdW  Elec       q    Type
REMARK                         _______ _______ _______ _____ _____    ______ ____
ROOT
ATOM      1  C   UNL     1       7.453  -2.804  23.622  0.00  0.00    -0.039 A 
ATOM      2  C   UNL     1       8.741  -3.107  24.076  0.00  0.00    +0.008 A 
ATOM      3  C   UNL     1       9.785  -2.187  23.949  0.00  0.00    +0.049 A 
ATOM      4  C   UNL     1       9.568  -0.946  23.349  0.00  0.00    +0.162 A 
ATOM      5  C   UNL     1       8.276  -0.616  22.896  0.00  0.00    +0.163 A 
ATOM      6  C   UNL     1       7.235  -1.545  23.032  0.00  0.00    +0.053 A 
ENDROOT
BRANCH   1   7
ATOM      7  C   UNL     1       6.305  -3.807  23.678  0.00  0.00    +0.045 C 
ATOM      8  C   UNL     1       5.517  -3.828  22.357  0.00  0.00    +0.105 C 
ATOM      9  C   UNL     1       6.135  -4.981  21.602  0.00  0.00    +0.214 C 
ATOM     10  O   UNL     1       5.997  -5.232  20.419  0.00  0.00    -0.276 OA
ATOM     11  N   UNL     1       6.840  -5.757  22.498  0.00  0.00    -0.315 N 
ATOM     12  H   UNL     1       7.257  -6.634  22.209  0.00  0.00    +0.149 HD
ATOM     13  C   UNL     1       6.718  -5.275  23.843  0.00  0.00    +0.112 C 
ENDBRANCH   1   7
BRANCH   4  14
ATOM     14  O   UNL     1      10.540   0.005  23.162  0.00  0.00    -0.491 OA
ATOM     15  C   UNL     1      10.993   0.711  24.309  0.00  0.00    +0.277 C 
ENDBRANCH   4  14
BRANCH   5  16
ATOM     16  O   UNL     1       8.146   0.600  22.274  0.00  0.00    -0.485 OA
BRANCH  16  17
ATOM     17  C   UNL     1       7.122   1.484  22.707  0.00  0.00    +0.174 C 
ATOM     18  C   UNL     1       7.077   2.775  21.886  0.00  0.00    +0.044 C 
ATOM     19  C   UNL     1       6.696   3.890  22.860  0.00  0.00    +0.004 C 
ATOM     20  C   UNL     1       6.648   3.252  24.243  0.00  0.00    +0.004 C 
ATOM     21  C   UNL     1       7.482   1.992  24.104  0.00  0.00    +0.044 C 
ENDBRANCH  16  17
ENDBRANCH   5  16
TORSDOF 4
ENDMDL
MODEL 6
REMARK VINA RESULT:      -5.6      2.598      5.888
REMARK  Name = 
REMARK  5 active torsions:
REMARK  status: ('A' for Active; 'I' for Inactive)
REMARK    1  A    between atoms: C_2  and  C_8
REMARK    2  A    between atoms: C_10  and  O_11
REMARK    3  A    between atoms: O_11  and  C_12
REMARK    4  A    between atoms: C_17  and  O_18
REMARK    5  A    between atoms: O_18  and  C_19
REMARK                            x       y       z     vdW  Elec       q    Type
REMARK                         _______ _______ _______ _____ _____    ______ ____
ROOT
ATOM      1  C   UNL     1       7.255  -3.780  24.776  0.00  0.00    -0.039 A 
ATOM      2  C   UNL     1       6.548  -3.445  25.936  0.00  0.00    +0.008 A 
ATOM      3  C   UNL     1       6.840  -2.279  26.648  0.00  0.00    +0.049 A 
ATOM      4  C   UNL     1       7.862  -1.427  26.224  0.00  0.00    +0.162 A 
ATOM      5  C   UNL     1       8.578  -1.739  25.053  0.00  0.00    +0.163 A 
ATOM      6  C   UNL     1       8.273  -2.909  24.344  0.00  0.00    +0.053 A 
ENDROOT
BRANCH   1   7
ATOM      7  C   UNL     1       7.014  -5.078  24.013  0.00  0.00    +0.045 C 
ATOM      8  C   UNL     1       5.565  -5.565  24.185  0.00  0.00    +0.105 C 
ATOM      9  C   UNL     1       4.869  -5.027  22.957  0.00  0.00    +0.214 C 
ATOM     10  O   UNL     1       3.668  -4.961  22.773  0.00  0.00    -0.276 OA
ATOM     11  N   UNL     1       5.832  -4.678  22.033  0.00  0.00    -0.315 N 
ATOM     12  H   UNL     1       5.571  -4.379  21.100  0.00  0.00    +0.149 HD
ATOM     13  C   UNL     1       7.156  -4.986  22.489  0.00  0.00    +0.112 C 
ENDBRANCH   1   7
BRANCH   4  14
ATOM     14  O   UNL     1       8.231  -0.276  26.876  0.00  0.00    -0.491 OA
ATOM     15  C   UNL     1       7.243   0.376  27.662  0.00  0.00    +0.277 C 
ENDBRANCH   4  14
BRANCH   5  16
ATOM     16  O   UNL     1       9.598  -0.883  24.723  0.00  0.00    -0.485 OA
BRANCH  16  17
ATOM     17  C   UNL     1       9.295   0.288  23.978  0.00  0.00    +0.174 C 
ATOM     18  C   UNL     1       9.470   0.085  22.471  0.00  0.00    +0.044 C 
ATOM     19  C   UNL     1      10.002   1.407  21.918  0.00  0.00    +0.004 C 
ATOM     20  C   UNL     1      10.244   2.308  23.124  0.00  0.00    +0.004 C 
ATOM     21  C   UNL     1      10.352   1.348  24.294  0.00  0.00    +0.044 C 
ENDBRANCH  16  17
ENDBRANCH   5  16
TORSDOF 4
ENDMDL
MODEL 7
REMARK VINA RESULT:      -5.4      1.942      2.029
REMARK  Name = 
REMARK  5 active torsions:
REMARK  status: ('A' for Active; 'I' for Inactive)
REMARK    1  A    between atoms: C_2  and  C_8
REMARK    2  A    between atoms: C_10  and  O_11
REMARK    3  A    between atoms: O_11  and  C_12
REMARK    4  A    between atoms: C_17  and  O_18
REMARK    5  A    between atoms: O_18  and  C_19
REMARK                            x       y       z     vdW  Elec       q    Type
REMARK                         _______ _______ _______ _____ _____    ______ ____
ROOT
ATOM      1  C   UNL     1       8.432  -0.726  24.618  0.00  0.00    -0.039 A 
ATOM      2  C   UNL     1       8.591  -0.958  25.988  0.00  0.00    +0.008 A 
ATOM      3  C   UNL     1       8.698  -2.256  26.492  0.00  0.00    +0.049 A 
ATOM      4  C   UNL     1       8.633  -3.357  25.636  0.00  0.00    +0.162 A 
ATOM      5  C   UNL     1       8.485  -3.145  24.252  0.00  0.00    +0.163 A 
ATOM      6  C   UNL     1       8.383  -1.838  23.757  0.00  0.00    +0.053 A 
ENDROOT
BRANCH   1   7
ATOM      7  C   UNL     1       8.239   0.673  24.039  0.00  0.00    +0.045 C 
ATOM      8  C   UNL     1       6.851   0.824  23.396  0.00  0.00    +0.105 C 
ATOM      9  C   UNL     1       6.026   1.455  24.492  0.00  0.00    +0.214 C 
ATOM     10  O   UNL     1       4.813   1.550  24.528  0.00  0.00    -0.276 OA
ATOM     11  N   UNL     1       6.888   1.978  25.434  0.00  0.00    -0.315 N 
ATOM     12  H   UNL     1       6.537   2.527  26.211  0.00  0.00    +0.149 HD
ATOM     13  C   UNL     1       8.263   1.819  25.057  0.00  0.00    +0.112 C 
ENDBRANCH   1   7
BRANCH   4  14
ATOM     14  O   UNL     1       8.705  -4.665  26.047  0.00  0.00    -0.491 OA
ATOM     15  C   UNL     1       7.674  -5.138  26.903  0.00  0.00    +0.277 C 
ENDBRANCH   4  14
BRANCH   5  16
ATOM     16  O   UNL     1       8.380  -4.272  23.476  0.00  0.00    -0.485 OA
BRANCH  16  17
ATOM     17  C   UNL     1       7.241  -4.422  22.639  0.00  0.00    +0.174 C 
ATOM     18  C   UNL     1       5.949  -4.610  23.438  0.00  0.00    +0.044 C 
ATOM     19  C   UNL     1       5.087  -5.585  22.637  0.00  0.00    +0.004 C 
ATOM     20  C   UNL     1       5.939  -6.041  21.458  0.00  0.00    +0.004 C 
ATOM     21  C   UNL     1       7.364  -5.751  21.891  0.00  0.00    +0.044 C 
ENDBRANCH  16  17
ENDBRANCH   5  16
TORSDOF 4
ENDMDL
MODEL 8
REMARK VINA RESULT:      -5.4      2.531      6.273
REMARK  Name = 
REMARK  5 active torsions:
REMARK  status: ('A' for Active; 'I' for Inactive)
REMARK    1  A    between atoms: C_2  and  C_8
REMARK    2  A    between atoms: C_10  and  O_11
REMARK    3  A    between atoms: O_11  and  C_12
REMARK    4  A    between atoms: C_17  and  O_18
REMARK    5  A    between atoms: O_18  and  C_19
REMARK                            x       y       z     vdW  Elec       q    Type
REMARK                         _______ _______ _______ _____ _____    ______ ____
ROOT
ATOM      1  C   UNL     1       7.672  -3.057  23.168  0.00  0.00    -0.039 A 
ATOM      2  C   UNL     1       8.839  -3.356  23.879  0.00  0.00    +0.008 A 
ATOM      3  C   UNL     1       9.861  -2.414  24.018  0.00  0.00    +0.049 A 
ATOM      4  C   UNL     1       9.745  -1.152  23.432  0.00  0.00    +0.162 A 
ATOM      5  C   UNL     1       8.574  -0.826  22.723  0.00  0.00    +0.163 A 
ATOM      6  C   UNL     1       7.553  -1.778  22.594  0.00  0.00    +0.053 A 
ENDROOT
BRANCH   1   7
ATOM      7  C   UNL     1       6.567  -4.083  22.935  0.00  0.00    +0.045 C 
ATOM      8  C   UNL     1       6.401  -5.011  24.150  0.00  0.00    +0.105 C 
ATOM      9  C   UNL     1       5.275  -4.370  24.926  0.00  0.00    +0.214 C 
ATOM     10  O   UNL     1       4.949  -4.617  26.073  0.00  0.00    -0.276 OA
ATOM     11  N   UNL     1       4.618  -3.492  24.089  0.00  0.00    -0.315 N 
ATOM     12  H   UNL     1       3.771  -3.024  24.390  0.00  0.00    +0.149 HD
ATOM     13  C   UNL     1       5.157  -3.507  22.760  0.00  0.00    +0.112 C 
ENDBRANCH   1   7
BRANCH   4  14
ATOM     14  O   UNL     1      10.710  -0.176  23.498  0.00  0.00    -0.491 OA
ATOM     15  C   UNL     1      10.885   0.487  24.742  0.00  0.00    +0.277 C 
ENDBRANCH   4  14
BRANCH   5  16
ATOM     16  O   UNL     1       8.549   0.413  22.134  0.00  0.00    -0.485 OA
BRANCH  16  17
ATOM     17  C   UNL     1       7.903   1.481  22.814  0.00  0.00    +0.174 C 
ATOM     18  C   UNL     1       6.567   1.860  22.172  0.00  0.00    +0.044 C 
ATOM     19  C   UNL     1       6.437   3.376  22.313  0.00  0.00    +0.004 C 
ATOM     20  C   UNL     1       7.748   3.863  22.918  0.00  0.00    +0.004 C 
ATOM     21  C   UNL     1       8.735   2.750  22.620  0.00  0.00    +0.044 C 
ENDBRANCH  16  17
ENDBRANCH   5  16
TORSDOF 4
ENDMDL
MODEL 9
REMARK VINA RESULT:      -5.3      2.455      3.442
REMARK  Name = 
REMARK  5 active torsions:
REMARK  status: ('A' for Active; 'I' for Inactive)
REMARK    1  A    between atoms: C_2  and  C_8
REMARK    2  A    between atoms: C_10  and  O_11
REMARK    3  A    between atoms: O_11  and  C_12
REMARK    4  A    between atoms: C_17  and  O_18
REMARK    5  A    between atoms: O_18  and  C_19
REMARK                            x       y       z     vdW  Elec       q    Type
REMARK                         _______ _______ _______ _____ _____    ______ ____
ROOT
ATOM      1  C   UNL     1       8.167  -3.670  24.094  0.00  0.00    -0.039 A 
ATOM      2  C   UNL     1       8.982  -4.255  25.068  0.00  0.00    +0.008 A 
ATOM      3  C   UNL     1       8.452  -5.123  26.026  0.00  0.00    +0.049 A 
ATOM      4  C   UNL     1       7.086  -5.412  26.042  0.00  0.00    +0.162 A 
ATOM      5  C   UNL     1       6.250  -4.842  25.063  0.00  0.00    +0.163 A 
ATOM      6  C   UNL     1       6.793  -3.977  24.104  0.00  0.00    +0.053 A 
ENDROOT
BRANCH   1   7
ATOM      7  C   UNL     1       8.696  -2.663  23.077  0.00  0.00    +0.045 C 
ATOM      8  C   UNL     1       7.831  -1.392  23.046  0.00  0.00    +0.105 C 
ATOM      9  C   UNL     1       8.568  -0.448  23.965  0.00  0.00    +0.214 C 
ATOM     10  O   UNL     1       8.143   0.592  24.433  0.00  0.00    -0.276 OA
ATOM     11  N   UNL     1       9.850  -0.927  24.140  0.00  0.00    -0.315 N 
ATOM     12  H   UNL     1      10.540  -0.389  24.651  0.00  0.00    +0.149 HD
ATOM     13  C   UNL     1      10.096  -2.108  23.364  0.00  0.00    +0.112 C 
ENDBRANCH   1   7
BRANCH   4  14
ATOM     14  O   UNL     1       6.478  -6.231  26.961  0.00  0.00    -0.491 OA
ATOM     15  C   UNL     1       6.292  -5.718  28.273  0.00  0.00    +0.277 C 
ENDBRANCH   4  14
BRANCH   5  16
ATOM     16  O   UNL     1       4.913  -5.131  25.168  0.00  0.00    -0.485 OA
BRANCH  16  17
ATOM     17  C   UNL     1       4.315  -5.968  24.187  0.00  0.00    +0.174 C 
ATOM     18  C   UNL     1       3.256  -5.236  23.360  0.00  0.00    +0.044 C 
ATOM     19  C   UNL     1       2.157  -6.257  23.067  0.00  0.00    +0.004 C 
ATOM     20  C   UNL     1       2.534  -7.521  23.831  0.00  0.00    +0.004 C 
ATOM     21  C   UNL     1       3.491  -7.039  24.905  0.00  0.00    +0.044 C 
ENDBRANCH  16  17
ENDBRANCH   5  16
TORSDOF 4
ENDMDL
