MODEL 1
REMARK VINA RESULT:      71.9      0.000      0.000
REMARK  Name = 
REMARK  78 active torsions:
REMARK  status: ('A' for Active; 'I' for Inactive)
REMARK    1  A    between atoms: CD1_1  and  CG1_2
REMARK    2  A    between atoms: CG1_2  and  CB_3
REMARK    3  A    between atoms: CB_3  and  CG2_5
REMARK    4  A    between atoms: CB_3  and  CA_6
REMARK    5  A    between atoms: CA_6  and  N_8
REMARK    6  A    between atoms: CA_6  and  C_119
REMARK    7  A    between atoms: C_9  and  CA_11
REMARK    8  A    between atoms: CA_11  and  CB_13
REMARK    9  A    between atoms: CA_11  and  N_18
REMARK   10  A    between atoms: CB_13  and  CG_14
REMARK   11  A    between atoms: CG_14  and  CD_15
REMARK   12  A    between atoms: CD_15  and  OE1_16
REMARK   13  A    between atoms: C_19  and  CA_21
REMARK   14  A    between atoms: CA_21  and  CB_23
REMARK   15  A    between atoms: CA_21  and  N_28
REMARK   16  A    between atoms: CB_23  and  CG_24
REMARK   17  A    between atoms: CG_24  and  CD_25
REMARK   18  A    between atoms: CD_25  and  OE1_26
REMARK   19  A    between atoms: C_29  and  CA_31
REMARK   20  A    between atoms: CA_31  and  CB_33
REMARK   21  A    between atoms: CA_31  and  N_40
REMARK   22  A    between atoms: CB_33  and  CG_34
REMARK   23  A    between atoms: C_41  and  CA_43
REMARK   24  A    between atoms: CA_43  and  CB_45
REMARK   25  A    between atoms: CA_43  and  N_49
REMARK   26  A    between atoms: CB_45  and  CG_46
REMARK   27  A    between atoms: CG_46  and  OD1_47
REMARK   28  A    between atoms: C_50  and  CA_52
REMARK   29  A    between atoms: CA_52  and  N_53
REMARK   30  A    between atoms: C_54  and  CA_56
REMARK   31  A    between atoms: CA_56  and  CB_58
REMARK   32  A    between atoms: CA_56  and  N_62
REMARK   33  A    between atoms: CB_58  and  CG_59
REMARK   34  A    between atoms: C_63  and  CA_65
REMARK   35  A    between atoms: CA_65  and  N_66
REMARK   36  A    between atoms: C_67  and  CA_69
REMARK   37  A    between atoms: CA_69  and  N_70
REMARK   38  A    between atoms: C_71  and  CA_73
REMARK   39  A    between atoms: CA_73  and  N_74
REMARK   40  A    between atoms: C_75  and  CA_77
REMARK   41  A    between atoms: CA_77  and  N_78
REMARK   42  A    between atoms: C_79  and  CA_81
REMARK   43  A    between atoms: C_87  and  CA_89
REMARK   44  A    between atoms: CA_89  and  CB_91
REMARK   45  A    between atoms: CA_89  and  N_98
REMARK   46  A    between atoms: CB_91  and  CG_92
REMARK   47  A    between atoms: CG_92  and  CD_93
REMARK   48  A    between atoms: CD_93  and  NE_94
REMARK   49  A    between atoms: C_99  and  CA_101
REMARK   50  A    between atoms: C_107  and  CA_109
REMARK   51  A    between atoms: CA_109  and  N_111
REMARK   52  A    between atoms: CA_109  and  CB_112
REMARK   53  A    between atoms: CB_112  and  CG_113
REMARK   54  A    between atoms: CA_125  and  C_127
REMARK   55  A    between atoms: N_129  and  CA_130
REMARK   56  A    between atoms: CA_130  and  CB_132
REMARK   57  A    between atoms: CA_130  and  C_137
REMARK   58  A    between atoms: CB_132  and  CG_133
REMARK   59  A    between atoms: CG_133  and  CD_134
REMARK   60  A    between atoms: CD_134  and  OE1_135
REMARK   61  A    between atoms: N_139  and  CA_140
REMARK   62  A    between atoms: CA_140  and  CB_142
REMARK   63  A    between atoms: CA_140  and  C_147
REMARK   64  A    between atoms: CB_142  and  CG_143
REMARK   65  A    between atoms: CG_143  and  CD_144
REMARK   66  A    between atoms: CD_144  and  OE1_145
REMARK   67  A    between atoms: N_149  and  CA_150
REMARK   68  A    between atoms: CA_150  and  CB_152
REMARK   69  A    between atoms: CA_150  and  C_160
REMARK   70  A    between atoms: CB_152  and  CG_153
REMARK   71  A    between atoms: CZ_156  and  OH_157
REMARK   72  A    between atoms: N_162  and  CA_163
REMARK   73  A    between atoms: CA_163  and  CB_165
REMARK   74  A    between atoms: CA_163  and  C_169
REMARK   75  A    between atoms: CB_165  and  CG_166
REMARK   76  A    between atoms: CG_166  and  CD1_167
REMARK   77  A    between atoms: CG_166  and  CD2_168
REMARK   78  A    between atoms: C_169  and  O_170
REMARK                            x       y       z     vdW  Elec       q    Type
REMARK                         _______ _______ _______ _____ _____    ______ ____
ROOT
ATOM      1  CA  PHE A  12       9.508  -1.939  24.027  0.00  0.00    +0.163 C 
ENDROOT
BRANCH   1   4
ATOM      2  N   GLU A  13       8.031  -0.774  22.400  0.00  0.00    -0.302 N 
ATOM      3  H   GLU A  13       7.929  -0.052  23.106  0.00  0.00    +0.150 HD
ATOM      4  C   PHE A  12       8.677  -1.952  22.725  0.00  0.00    +0.234 C 
ATOM      5  O   PHE A  12       8.638  -2.941  21.986  0.00  0.00    -0.274 OA
BRANCH   2   6
ATOM      6  CA  GLU A  13       7.144  -0.691  21.232  0.00  0.00    +0.159 C 
BRANCH   6   9
ATOM      7  N   GLU A  14       5.411   0.724  22.272  0.00  0.00    -0.302 N 
ATOM      8  H   GLU A  14       5.199  -0.114  22.801  0.00  0.00    +0.150 HD
ATOM      9  C   GLU A  13       6.369   0.652  21.279  0.00  0.00    +0.234 C 
ATOM     10  O   GLU A  13       6.561   1.559  20.476  0.00  0.00    -0.274 OA
BRANCH   7  11
ATOM     11  CA  GLU A  14       4.550   1.900  22.506  0.00  0.00    +0.159 C 
BRANCH  11  14
ATOM     12  N   ILE A  15       3.573   3.064  24.468  0.00  0.00    -0.302 N 
ATOM     13  H   ILE A  15       3.094   3.623  23.770  0.00  0.00    +0.150 HD
ATOM     14  C   GLU A  14       4.166   1.900  24.016  0.00  0.00    +0.234 C 
ATOM     15  O   GLU A  14       4.411   0.957  24.765  0.00  0.00    -0.274 OA
BRANCH  12  16
ATOM     16  CA  ILE A  15       3.069   3.188  25.860  0.00  0.00    +0.162 C 
BRANCH  16  17
ATOM     17  C   ILE A  15       2.387   1.838  26.256  0.00  0.00    +0.237 C 
ATOM     18  N   PRO A  16       2.329   1.405  27.571  0.00  0.00    -0.288 N 
ATOM     19  CA  PRO A  16       2.623   2.133  28.821  0.00  0.00    +0.162 C 
ATOM     20  CB  PRO A  16       1.659   1.522  29.861  0.00  0.00    +0.033 C 
ATOM     21  CG  PRO A  16       0.757   0.580  29.071  0.00  0.00    +0.021 C 
ATOM     22  CD  PRO A  16       1.618   0.178  27.888  0.00  0.00    +0.109 C 
ATOM     23  O   ILE A  15       1.910   1.132  25.352  0.00  0.00    -0.274 OA
BRANCH  19  24
ATOM     24  C   PRO A  16       4.113   2.019  29.290  0.00  0.00    +0.234 C 
ATOM     25  N   GLU A  17       5.031   2.027  28.254  0.00  0.00    -0.302 N 
ATOM     26  H   GLU A  17       4.709   2.333  27.345  0.00  0.00    +0.150 HD
ATOM     27  O   PRO A  16       4.440   1.928  30.469  0.00  0.00    -0.274 OA
BRANCH  25  28
ATOM     28  CA  GLU A  17       6.489   2.085  28.482  0.00  0.00    +0.159 C 
BRANCH  28  29
ATOM     29  C   GLU A  17       7.022   3.499  28.102  0.00  0.00    +0.234 C 
ATOM     30  N   GLU A  18       6.288   4.210  27.167  0.00  0.00    -0.302 N 
ATOM     31  H   GLU A  18       5.539   3.720  26.684  0.00  0.00    +0.150 HD
ATOM     32  O   GLU A  17       8.109   3.882  28.531  0.00  0.00    -0.274 OA
BRANCH  30  33
ATOM     33  CA  GLU A  18       6.630   5.550  26.577  0.00  0.00    +0.159 C 
BRANCH  33  34
ATOM     34  C   GLU A  18       7.928   5.328  25.741  0.00  0.00    +0.234 C 
ATOM     35  N   TYR A  19       8.566   4.104  25.835  0.00  0.00    -0.302 N 
ATOM     36  H   TYR A  19       8.206   3.374  26.441  0.00  0.00    +0.150 HD
ATOM     37  O   GLU A  18       8.331   6.231  25.002  0.00  0.00    -0.274 OA
BRANCH  35  38
ATOM     38  CA  TYR A  19       9.620   3.666  24.879  0.00  0.00    +0.163 C 
BRANCH  38  39
ATOM     39  C   TYR A  19      10.913   4.567  24.935  0.00  0.00    +0.234 C 
ATOM     40  N   LEU A  20      10.753   5.848  25.463  0.00  0.00    -0.301 N 
ATOM     41  H   LEU A  20       9.841   6.250  25.267  0.00  0.00    +0.150 HD
ATOM     42  O   TYR A  19      12.011   4.132  24.588  0.00  0.00    -0.274 OA
BRANCH  40  43
ATOM     43  CA  LEU A  20      11.898   6.814  25.592  0.00  0.00    +0.182 C 
BRANCH  43  44
ATOM     44  C   LEU A  20      12.858   6.740  24.375  0.00  0.00    +0.325 C 
ATOM     45  OXT LEU A  20      14.019   6.362  24.423  0.00  0.00    -0.249 OA
BRANCH  44  46
ATOM     46  O   LEU A  20      12.292   7.099  23.199  0.00  0.00    -0.479 OA
ATOM     47  H   LEU A  20      11.425   7.527  23.350  0.00  0.00    +0.295 HD
ENDBRANCH  44  46
ENDBRANCH  43  44
BRANCH  43  48
ATOM     48  CB  LEU A  20      12.687   6.577  26.916  0.00  0.00    +0.036 C 
BRANCH  48  49
ATOM     49  CG  LEU A  20      12.031   7.105  28.225  0.00  0.00    -0.015 C 
ATOM     50  CD2 LEU A  20      12.506   6.329  29.462  0.00  0.00    +0.007 C 
ATOM     51  CD1 LEU A  20      10.500   7.096  28.195  0.00  0.00    +0.007 C 
ENDBRANCH  48  49
ENDBRANCH  43  48
ENDBRANCH  40  43
ENDBRANCH  38  39
BRANCH  38  52
ATOM     52  CB  TYR A  19       9.117   3.551  23.421  0.00  0.00    +0.067 C 
BRANCH  52  53
ATOM     53  CG  TYR A  19       9.535   2.335  22.616  0.00  0.00    -0.045 A 
ATOM     54  CD2 TYR A  19       8.529   1.461  22.174  0.00  0.00    +0.007 A 
ATOM     55  CE2 TYR A  19       8.859   0.254  21.556  0.00  0.00    +0.045 A 
ATOM     56  CZ  TYR A  19      10.193  -0.090  21.387  0.00  0.00    +0.117 A 
ATOM     57  CE1 TYR A  19      11.203   0.780  21.764  0.00  0.00    +0.045 A 
ATOM     58  CD1 TYR A  19      10.870   2.001  22.349  0.00  0.00    +0.007 A 
BRANCH  56  59
ATOM     59  OH  TYR A  19      10.485  -1.306  20.847  0.00  0.00    -0.507 OA
ATOM     60  HH  TYR A  19      11.422  -1.499  21.026  0.00  0.00    +0.292 HD
ENDBRANCH  56  59
ENDBRANCH  52  53
ENDBRANCH  38  52
ENDBRANCH  35  38
ENDBRANCH  33  34
BRANCH  33  61
ATOM     61  CB  GLU A  18       6.867   6.631  27.647  0.00  0.00    +0.043 C 
BRANCH  61  62
ATOM     62  CG  GLU A  18       5.632   7.108  28.406  0.00  0.00    +0.123 C 
BRANCH  62  63
ATOM     63  CD  GLU A  18       5.521   6.438  29.756  0.00  0.00    +0.305 C 
ATOM     64  OE2 GLU A  18       6.335   5.639  30.173  0.00  0.00    -0.251 OA
BRANCH  63  65
ATOM     65  OE1 GLU A  18       4.439   6.806  30.471  0.00  0.00    -0.481 OA
ATOM     66  HE1 GLU A  18       4.391   7.750  30.710  0.00  0.00    +0.295 HD
ENDBRANCH  63  65
ENDBRANCH  62  63
ENDBRANCH  61  62
ENDBRANCH  33  61
ENDBRANCH  30  33
ENDBRANCH  28  29
BRANCH  28  67
ATOM     67  CB  GLU A  17       7.248   0.974  27.724  0.00  0.00    +0.043 C 
BRANCH  67  68
ATOM     68  CG  GLU A  17       6.364   0.185  26.737  0.00  0.00    +0.123 C 
BRANCH  68  69
ATOM     69  CD  GLU A  17       7.081  -1.020  26.167  0.00  0.00    +0.305 C 
ATOM     70  OE2 GLU A  17       6.723  -1.643  25.180  0.00  0.00    -0.251 OA
BRANCH  69  71
ATOM     71  OE1 GLU A  17       8.171  -1.381  26.885  0.00  0.00    -0.481 OA
ATOM     72  HE1 GLU A  17       8.066  -1.322  27.853  0.00  0.00    +0.295 HD
ENDBRANCH  69  71
ENDBRANCH  68  69
ENDBRANCH  67  68
ENDBRANCH  28  67
ENDBRANCH  25  28
ENDBRANCH  19  24
ENDBRANCH  16  17
BRANCH  16  73
ATOM     73  CB  ILE A  15       2.223   4.479  25.985  0.00  0.00    +0.015 C 
ATOM     74  CG2 ILE A  15       3.058   5.629  26.535  0.00  0.00    +0.010 C 
BRANCH  73  76
ATOM     75  CD1 ILE A  15       2.327   5.697  23.754  0.00  0.00    +0.004 C 
ATOM     76  CG1 ILE A  15       1.461   4.874  24.708  0.00  0.00    +0.002 C 
ENDBRANCH  73  76
ENDBRANCH  16  73
ENDBRANCH  12  16
ENDBRANCH  11  14
BRANCH  11  77
ATOM     77  CB  GLU A  14       3.299   1.864  21.605  0.00  0.00    +0.043 C 
BRANCH  77  78
ATOM     78  CG  GLU A  14       3.588   1.398  20.176  0.00  0.00    +0.123 C 
BRANCH  78  79
ATOM     79  CD  GLU A  14       3.922   2.575  19.295  0.00  0.00    +0.305 C 
ATOM     80  OE2 GLU A  14       4.121   2.493  18.093  0.00  0.00    -0.251 OA
BRANCH  79  81
ATOM     81  OE1 GLU A  14       3.943   3.754  19.956  0.00  0.00    -0.481 OA
ATOM     82  HE1 GLU A  14       3.063   4.069  20.245  0.00  0.00    +0.295 HD
ENDBRANCH  79  81
ENDBRANCH  78  79
ENDBRANCH  77  78
ENDBRANCH  11  77
ENDBRANCH   7  11
ENDBRANCH   6   9
BRANCH   6  83
ATOM     83  CB  GLU A  13       6.237  -1.925  21.220  0.00  0.00    +0.043 C 
BRANCH  83  84
ATOM     84  CG  GLU A  13       4.816  -1.666  20.747  0.00  0.00    +0.123 C 
BRANCH  84  85
ATOM     85  CD  GLU A  13       3.815  -2.422  21.599  0.00  0.00    +0.305 C 
ATOM     86  OE2 GLU A  13       3.446  -3.570  21.395  0.00  0.00    -0.251 OA
BRANCH  85  87
ATOM     87  OE1 GLU A  13       3.338  -1.699  22.625  0.00  0.00    -0.481 OA
ATOM     88  HE1 GLU A  13       2.745  -0.962  22.349  0.00  0.00    +0.295 HD
ENDBRANCH  85  87
ENDBRANCH  84  85
ENDBRANCH  83  84
ENDBRANCH   6  83
ENDBRANCH   2   6
ENDBRANCH   1   4
BRANCH   1  89
ATOM     89  N   PHE A  12      10.923  -2.139  23.682  0.00  0.00    -0.302 N 
ATOM     90  H   PHE A  12      11.226  -1.742  22.797  0.00  0.00    +0.150 HD
ATOM     91  C   ASP A  11      11.778  -2.863  24.465  0.00  0.00    +0.234 C 
ATOM     92  O   ASP A  11      11.405  -3.467  25.473  0.00  0.00    -0.274 OA
BRANCH  91  93
ATOM     93  CA  ASP A  11      13.259  -2.883  24.057  0.00  0.00    +0.169 C 
BRANCH  93  94
ATOM     94  N   ASP A  11      13.659  -4.264  23.808  0.00  0.00    -0.302 N 
ATOM     95  H   ASP A  11      13.161  -4.797  23.096  0.00  0.00    +0.150 HD
ATOM     96  C   GLY A  10      14.595  -4.906  24.584  0.00  0.00    +0.231 C 
ATOM     97  O   GLY A  10      15.081  -4.385  25.587  0.00  0.00    -0.274 OA
BRANCH  96  98
ATOM     98  CA  GLY A  10      14.795  -6.383  24.254  0.00  0.00    +0.200 C 
BRANCH  98  99
ATOM     99  N   GLY A  10      15.559  -6.455  23.025  0.00  0.00    -0.305 N 
ATOM    100  H   GLY A  10      16.245  -7.193  22.913  0.00  0.00    +0.149 HD
ATOM    101  C   ASN A   9      15.513  -5.475  22.062  0.00  0.00    +0.234 C 
ATOM    102  O   ASN A   9      14.693  -4.556  22.106  0.00  0.00    -0.274 OA
BRANCH 101 103
ATOM    103  CA  ASN A   9      16.364  -5.782  20.802  0.00  0.00    +0.168 C 
BRANCH 103 104
ATOM    104  N   ASN A   9      15.645  -6.541  19.784  0.00  0.00    -0.302 N 
ATOM    105  H   ASN A   9      15.821  -7.549  19.745  0.00  0.00    +0.150 HD
ATOM    106  C   GLY A   8      14.322  -6.218  19.529  0.00  0.00    +0.231 C 
ATOM    107  O   GLY A   8      13.760  -5.256  20.043  0.00  0.00    -0.274 OA
BRANCH 106 108
ATOM    108  CA  GLY A   8      13.628  -7.174  18.572  0.00  0.00    +0.200 C 
BRANCH 108 109
ATOM    109  N   GLY A   8      12.261  -7.380  18.986  0.00  0.00    -0.305 N 
ATOM    110  H   GLY A   8      11.944  -8.348  19.081  0.00  0.00    +0.149 HD
ATOM    111  C   GLY A   7      11.276  -6.481  18.631  0.00  0.00    +0.231 C 
ATOM    112  O   GLY A   7      11.512  -5.493  17.937  0.00  0.00    -0.274 OA
BRANCH 111 113
ATOM    113  CA  GLY A   7       9.866  -6.886  19.094  0.00  0.00    +0.200 C 
BRANCH 113 114
ATOM    114  N   GLY A   7       9.761  -7.032  20.542  0.00  0.00    -0.305 N 
ATOM    115  H   GLY A   7       8.847  -7.216  20.926  0.00  0.00    +0.149 HD
ATOM    116  C   GLY A   6      10.671  -6.405  21.377  0.00  0.00    +0.231 C 
ATOM    117  O   GLY A   6      11.650  -5.806  20.931  0.00  0.00    -0.274 OA
BRANCH 116 118
ATOM    118  CA  GLY A   6      10.388  -6.530  22.894  0.00  0.00    +0.200 C 
BRANCH 118 119
ATOM    119  N   GLY A   6       9.413  -5.610  23.484  0.00  0.00    -0.305 N 
ATOM    120  H   GLY A   6       8.759  -5.119  22.877  0.00  0.00    +0.149 HD
ATOM    121  C   GLY A   5       9.193  -5.546  24.837  0.00  0.00    +0.231 C 
ATOM    122  O   GLY A   5       9.754  -6.354  25.589  0.00  0.00    -0.274 OA
BRANCH 121 123
ATOM    123  CA  GLY A   5       8.180  -4.499  25.429  0.00  0.00    +0.200 C 
BRANCH 123 124
ATOM    124  N   GLY A   5       7.172  -4.638  26.517  0.00  0.00    -0.305 N 
ATOM    125  H   GLY A   5       7.276  -3.962  27.263  0.00  0.00    +0.149 HD
ATOM    126  C   PRO A   4       6.723  -5.880  26.889  0.00  0.00    +0.234 C 
ATOM    127  O   PRO A   4       6.842  -6.799  26.071  0.00  0.00    -0.274 OA
BRANCH 126 128
ATOM    128  CA  PRO A   4       6.286  -6.178  28.406  0.00  0.00    +0.162 C 
ATOM    129  N   PRO A   4       5.801  -7.475  28.991  0.00  0.00    -0.288 N 
ATOM    130  C   ARG A   3       4.517  -7.822  29.429  0.00  0.00    +0.237 C 
ATOM    131  O   ARG A   3       4.343  -8.685  30.302  0.00  0.00    -0.274 OA
ATOM    132  CD  PRO A   4       6.878  -8.100  29.773  0.00  0.00    +0.109 C 
ATOM    133  CG  PRO A   4       8.121  -7.288  29.486  0.00  0.00    +0.021 C 
ATOM    134  CB  PRO A   4       7.537  -5.899  29.280  0.00  0.00    +0.033 C 
BRANCH 130 135
ATOM    135  CA  ARG A   3       3.270  -7.174  28.796  0.00  0.00    +0.159 C 
BRANCH 135 136
ATOM    136  N   ARG A   3       3.330  -7.386  27.339  0.00  0.00    -0.302 N 
ATOM    137  H   ARG A   3       3.212  -8.339  26.991  0.00  0.00    +0.150 HD
ATOM    138  C   PRO A   2       3.827  -6.426  26.491  0.00  0.00    +0.234 C 
ATOM    139  O   PRO A   2       4.200  -5.330  26.913  0.00  0.00    -0.274 OA
BRANCH 138 140
ATOM    140  CA  PRO A   2       3.697  -6.680  24.972  0.00  0.00    +0.162 C 
ATOM    141  N   PRO A   2       4.088  -5.567  24.099  0.00  0.00    -0.289 N 
ATOM    142  C   PHE A   1       3.209  -4.657  23.510  0.00  0.00    +0.233 C 
ATOM    143  O   PHE A   1       3.522  -4.098  22.454  0.00  0.00    -0.274 OA
ATOM    144  CD  PRO A   2       5.332  -5.872  23.399  0.00  0.00    +0.108 C 
ATOM    145  CG  PRO A   2       5.887  -7.108  24.085  0.00  0.00    +0.021 C 
ATOM    146  CB  PRO A   2       4.631  -7.824  24.559  0.00  0.00    +0.033 C 
BRANCH 142 147
ATOM    147  CA  PHE A   1       1.861  -4.365  24.227  0.00  0.00    +0.142 C 
BRANCH 147 148
ATOM    148  N   PHE A   1       0.730  -4.412  23.277  0.00  0.00    -0.320 NA
ATOM    149  H1  PHE A   1       0.078  -5.148  23.538  0.00  0.00    +0.119 HD
ATOM    150  H2  PHE A   1       0.230  -3.528  23.274  0.00  0.00    +0.119 HD
ENDBRANCH 147 148
BRANCH 147 151
ATOM    151  CB  PHE A   1       1.932  -3.046  25.019  0.00  0.00    +0.063 C 
BRANCH 151 152
ATOM    152  CG  PHE A   1       1.492  -3.106  26.465  0.00  0.00    -0.045 A 
ATOM    153  CD2 PHE A   1       1.679  -2.008  27.315  0.00  0.00    +0.004 A 
ATOM    154  CE2 PHE A   1       1.261  -2.064  28.646  0.00  0.00    +0.000 A 
ATOM    155  CZ  PHE A   1       0.653  -3.217  29.142  0.00  0.00    +0.000 A 
ATOM    156  CE1 PHE A   1       0.465  -4.315  28.308  0.00  0.00    +0.000 A 
ATOM    157  CD1 PHE A   1       0.880  -4.260  26.976  0.00  0.00    +0.004 A 
ENDBRANCH 151 152
ENDBRANCH 147 151
ENDBRANCH 142 147
ENDBRANCH 138 140
ENDBRANCH 135 136
BRANCH 135 158
ATOM    158  CB  ARG A   3       1.906  -7.625  29.370  0.00  0.00    +0.035 C 
BRANCH 158 159
ATOM    159  CG  ARG A   3       1.193  -6.674  30.351  0.00  0.00    +0.039 C 
BRANCH 159 160
ATOM    160  CD  ARG A   3       1.761  -5.240  30.330  0.00  0.00    +0.196 C 
BRANCH 160 161
ATOM    161  NE  ARG A   3       2.811  -5.054  29.333  0.00  0.00    -0.276 N 
ATOM    162  HE  ARG A   3       2.788  -4.128  28.918  0.00  0.00    +0.258 HD
ATOM    163  CZ  ARG A   3       4.098  -5.431  29.564  0.00  0.00    +0.376 C 
ATOM    164  NH2 ARG A   3       4.536  -6.311  30.386  0.00  0.00    -0.130 NA
ATOM    165  HH2 ARG A   3       3.764  -6.752  30.876  0.00  0.00    +0.306 HD
ATOM    166  NH1 ARG A   3       4.989  -4.762  28.811  0.00  0.00    -0.289 N 
ATOM    167 HH11 ARG A   3       5.909  -5.150  28.988  0.00  0.00    +0.255 HD
ATOM    168 HH12 ARG A   3       4.792  -4.816  27.818  0.00  0.00    +0.255 HD
ENDBRANCH 160 161
ENDBRANCH 159 160
ENDBRANCH 158 159
ENDBRANCH 135 158
ENDBRANCH 130 135
ENDBRANCH 126 128
ENDBRANCH 123 124
ENDBRANCH 121 123
ENDBRANCH 118 119
ENDBRANCH 116 118
ENDBRANCH 113 114
ENDBRANCH 111 113
ENDBRANCH 108 109
ENDBRANCH 106 108
ENDBRANCH 103 104
BRANCH 103 169
ATOM    169  CB  ASN A   9      16.899  -4.461  20.263  0.00  0.00    +0.127 C 
BRANCH 169 170
ATOM    170  CG  ASN A   9      16.435  -4.049  18.886  0.00  0.00    +0.213 C 
ATOM    171  OD1 ASN A   9      15.258  -3.899  18.573  0.00  0.00    -0.276 OA
ATOM    172  ND2 ASN A   9      17.402  -3.914  17.944  0.00  0.00    -0.329 N 
ATOM    173 HD21 ASN A   9      17.183  -3.455  17.072  0.00  0.00    +0.145 HD
ATOM    174 HD22 ASN A   9      18.378  -3.833  18.201  0.00  0.00    +0.145 HD
ENDBRANCH 169 170
ENDBRANCH 103 169
ENDBRANCH 101 103
ENDBRANCH  98  99
ENDBRANCH  96  98
ENDBRANCH  93  94
BRANCH  93 175
ATOM    175  CB  ASP A  11      13.510  -1.967  22.861  0.00  0.00    +0.152 C 
BRANCH 175 176
ATOM    176  CG  ASP A  11      13.718  -2.625  21.514  0.00  0.00    +0.307 C 
ATOM    177  OD2 ASP A  11      14.815  -2.647  20.969  0.00  0.00    -0.251 OA
BRANCH 176 178
ATOM    178  OD1 ASP A  11      12.634  -3.116  20.888  0.00  0.00    -0.481 OA
ATOM    179  HD1 ASP A  11      12.726  -3.429  19.959  0.00  0.00    +0.295 HD
ENDBRANCH 176 178
ENDBRANCH 175 176
ENDBRANCH  93 175
ENDBRANCH  91  93
ENDBRANCH   1  89
BRANCH   1 180
ATOM    180  CB  PHE A  12       9.300  -0.665  24.878  0.00  0.00    +0.067 C 
BRANCH 180 181
ATOM    181  CG  PHE A  12      10.538  -0.069  25.519  0.00  0.00    -0.045 A 
ATOM    182  CD2 PHE A  12      11.743   0.002  24.814  0.00  0.00    +0.004 A 
ATOM    183  CE2 PHE A  12      12.901   0.490  25.432  0.00  0.00    +0.000 A 
ATOM    184  CZ  PHE A  12      12.856   1.011  26.713  0.00  0.00    +0.000 A 
ATOM    185  CE1 PHE A  12      11.675   0.921  27.422  0.00  0.00    +0.000 A 
ATOM    186  CD1 PHE A  12      10.544   0.348  26.851  0.00  0.00    +0.004 A 
ENDBRANCH 180 181
ENDBRANCH   1 180
TORSDOF 74
ENDMDL
