MODEL 1
REMARK VINA RESULT:      -6.7      0.000      0.000
REMARK  Name = 
REMARK  3 active torsions:
REMARK  status: ('A' for Active; 'I' for Inactive)
REMARK    1  A    between atoms: N_1  and  N_2
REMARK    2  A    between atoms: C_3  and  C_5
REMARK    3  A    between atoms: C_8  and  C_10
REMARK                            x       y       z     vdW  Elec       q    Type
REMARK                         _______ _______ _______ _____ _____    ______ ____
ROOT
ATOM      1  C   UNL     1      11.104   4.533  23.496  0.00  0.00    +0.191 A 
ATOM      2  O   UNL     1      11.190   3.227  23.078  0.00  0.00    -0.450 OA
ATOM      3  C   UNL     1       9.954   2.654  23.240  0.00  0.00    +0.137 A 
ATOM      4  C   UNL     1       9.090   3.588  23.778  0.00  0.00    +0.051 A 
ATOM      5  C   UNL     1       9.817   4.793  23.921  0.00  0.00    +0.055 A 
ENDROOT
BRANCH   3   6
ATOM      6  C   UNL     1       9.845   1.253  22.831  0.00  0.00    +0.036 A 
ATOM      7  C   UNL     1      10.219   0.172  23.651  0.00  0.00    +0.052 A 
ATOM      8 CL   UNL     1      10.837   0.366  25.257  0.00  0.00    -0.083 Cl
ATOM      9  C   UNL     1      10.072  -1.150  23.202  0.00  0.00    +0.021 A 
ATOM     10  C   UNL     1       9.553  -1.416  21.938  0.00  0.00    +0.001 A 
ATOM     11  C   UNL     1       9.187  -0.362  21.109  0.00  0.00    +0.001 A 
ATOM     12  C   UNL     1       9.333   0.958  21.551  0.00  0.00    +0.013 A 
ENDBRANCH   3   6
BRANCH   1  15
ATOM     13  N   UNL     1      12.923   5.402  22.226  0.00  0.00    -0.247 N 
ATOM     14  H   UNL     1      12.452   4.957  21.441  0.00  0.00    +0.169 HD
ATOM     15  C   UNL     1      12.280   5.376  23.464  0.00  0.00    +0.293 C 
ATOM     16  O   UNL     1      12.701   6.001  24.439  0.00  0.00    -0.266 OA
BRANCH  13  17
ATOM     17  N   UNL     1      14.040   6.238  22.009  0.00  0.00    -0.254 NA
ATOM     18  H   UNL     1      14.824   5.632  21.730  0.00  0.00    +0.140 HD
ATOM     19  H   UNL     1      13.857   6.838  21.203  0.00  0.00    +0.140 HD
ENDBRANCH  13  17
ENDBRANCH   1  15
TORSDOF 3
ENDMDL
MODEL 2
REMARK VINA RESULT:      -6.0      5.767      7.777
REMARK  Name = 
REMARK  3 active torsions:
REMARK  status: ('A' for Active; 'I' for Inactive)
REMARK    1  A    between atoms: N_1  and  N_2
REMARK    2  A    between atoms: C_3  and  C_5
REMARK    3  A    between atoms: C_8  and  C_10
REMARK                            x       y       z     vdW  Elec       q    Type
REMARK                         _______ _______ _______ _____ _____    ______ ____
ROOT
ATOM      1  C   UNL     1       7.481  -3.517  22.678  0.00  0.00    +0.191 A 
ATOM      2  O   UNL     1       7.798  -2.193  22.495  0.00  0.00    -0.450 OA
ATOM      3  C   UNL     1       8.803  -1.878  23.373  0.00  0.00    +0.137 A 
ATOM      4  C   UNL     1       9.112  -2.995  24.125  0.00  0.00    +0.051 A 
ATOM      5  C   UNL     1       8.284  -4.047  23.667  0.00  0.00    +0.055 A 
ENDROOT
BRANCH   3   6
ATOM      6  C   UNL     1       9.288  -0.498  23.316  0.00  0.00    +0.036 A 
ATOM      7  C   UNL     1       9.526   0.290  24.457  0.00  0.00    +0.052 A 
ATOM      8 CL   UNL     1       9.291  -0.283  26.075  0.00  0.00    -0.083 Cl
ATOM      9  C   UNL     1      10.008   1.602  24.332  0.00  0.00    +0.021 A 
ATOM     10  C   UNL     1      10.261   2.148  23.076  0.00  0.00    +0.001 A 
ATOM     11  C   UNL     1      10.023   1.388  21.936  0.00  0.00    +0.001 A 
ATOM     12  C   UNL     1       9.541   0.080  22.056  0.00  0.00    +0.013 A 
ENDBRANCH   3   6
BRANCH   1  15
ATOM     13  N   UNL     1       6.594  -5.481  21.661  0.00  0.00    -0.247 N 
ATOM     14  H   UNL     1       7.347  -5.953  22.158  0.00  0.00    +0.169 HD
ATOM     15  C   UNL     1       6.421  -4.117  21.895  0.00  0.00    +0.293 C 
ATOM     16  O   UNL     1       5.460  -3.488  21.449  0.00  0.00    -0.266 OA
BRANCH  13  17
ATOM     17  N   UNL     1       5.609  -6.229  20.981  0.00  0.00    -0.254 NA
ATOM     18  H   UNL     1       5.910  -6.308  20.000  0.00  0.00    +0.140 HD
ATOM     19  H   UNL     1       5.603  -7.183  21.344  0.00  0.00    +0.140 HD
ENDBRANCH  13  17
ENDBRANCH   1  15
TORSDOF 3
ENDMDL
MODEL 3
REMARK VINA RESULT:      -6.0      3.774      6.064
REMARK  Name = 
REMARK  3 active torsions:
REMARK  status: ('A' for Active; 'I' for Inactive)
REMARK    1  A    between atoms: N_1  and  N_2
REMARK    2  A    between atoms: C_3  and  C_5
REMARK    3  A    between atoms: C_8  and  C_10
REMARK                            x       y       z     vdW  Elec       q    Type
REMARK                         _______ _______ _______ _____ _____    ______ ____
ROOT
ATOM      1  C   UNL     1       9.836   0.123  23.436  0.00  0.00    +0.191 A 
ATOM      2  O   UNL     1      10.110   1.333  24.025  0.00  0.00    -0.450 OA
ATOM      3  C   UNL     1      10.208   2.271  23.029  0.00  0.00    +0.137 A 
ATOM      4  C   UNL     1      10.015   1.654  21.808  0.00  0.00    +0.051 A 
ATOM      5  C   UNL     1       9.756   0.288  22.069  0.00  0.00    +0.055 A 
ENDROOT
BRANCH   3   6
ATOM      6  C   UNL     1      10.485   3.639  23.469  0.00  0.00    +0.036 A 
ATOM      7  C   UNL     1       9.523   4.472  24.070  0.00  0.00    +0.052 A 
ATOM      8 CL   UNL     1       7.895   3.973  24.382  0.00  0.00    -0.083 Cl
ATOM      9  C   UNL     1       9.860   5.770  24.484  0.00  0.00    +0.021 A 
ATOM     10  C   UNL     1      11.153   6.257  24.309  0.00  0.00    +0.001 A 
ATOM     11  C   UNL     1      12.115   5.453  23.708  0.00  0.00    +0.001 A 
ATOM     12  C   UNL     1      11.783   4.159  23.292  0.00  0.00    +0.013 A 
ENDBRANCH   3   6
BRANCH   1  15
ATOM     13  N   UNL     1       9.941  -2.254  23.569  0.00  0.00    -0.247 N 
ATOM     14  H   UNL     1      10.306  -2.187  22.620  0.00  0.00    +0.169 HD
ATOM     15  C   UNL     1       9.708  -1.063  24.257  0.00  0.00    +0.293 C 
ATOM     16  O   UNL     1       9.399  -1.040  25.449  0.00  0.00    -0.266 OA
BRANCH  13  17
ATOM     17  N   UNL     1       9.932  -3.494  24.245  0.00  0.00    -0.254 NA
ATOM     18  H   UNL     1      10.259  -4.206  23.578  0.00  0.00    +0.140 HD
ATOM     19  H   UNL     1      10.630  -3.473  24.990  0.00  0.00    +0.140 HD
ENDBRANCH  13  17
ENDBRANCH   1  15
TORSDOF 3
ENDMDL
MODEL 4
REMARK VINA RESULT:      -5.9      5.538      7.498
REMARK  Name = 
REMARK  3 active torsions:
REMARK  status: ('A' for Active; 'I' for Inactive)
REMARK    1  A    between atoms: N_1  and  N_2
REMARK    2  A    between atoms: C_3  and  C_5
REMARK    3  A    between atoms: C_8  and  C_10
REMARK                            x       y       z     vdW  Elec       q    Type
REMARK                         _______ _______ _______ _____ _____    ______ ____
ROOT
ATOM      1  C   UNL     1       8.372  -3.653  24.040  0.00  0.00    +0.191 A 
ATOM      2  O   UNL     1       8.976  -2.430  24.204  0.00  0.00    -0.450 OA
ATOM      3  C   UNL     1       8.520  -1.602  23.210  0.00  0.00    +0.137 A 
ATOM      4  C   UNL     1       7.643  -2.303  22.405  0.00  0.00    +0.051 A 
ATOM      5  C   UNL     1       7.531  -3.604  22.947  0.00  0.00    +0.055 A 
ENDROOT
BRANCH   3   6
ATOM      6  C   UNL     1       9.048  -0.237  23.228  0.00  0.00    +0.036 A 
ATOM      7  C   UNL     1       9.049   0.581  24.375  0.00  0.00    +0.052 A 
ATOM      8 CL   UNL     1       8.444   0.062  25.912  0.00  0.00    -0.083 Cl
ATOM      9  C   UNL     1       9.586   1.876  24.328  0.00  0.00    +0.021 A 
ATOM     10  C   UNL     1      10.129   2.377  23.148  0.00  0.00    +0.001 A 
ATOM     11  C   UNL     1      10.128   1.589  22.002  0.00  0.00    +0.001 A 
ATOM     12  C   UNL     1       9.592   0.297  22.043  0.00  0.00    +0.013 A 
ENDBRANCH   3   6
BRANCH   1  15
ATOM     13  N   UNL     1       8.051  -4.657  26.177  0.00  0.00    -0.247 N 
ATOM     14  H   UNL     1       7.330  -3.946  26.287  0.00  0.00    +0.169 HD
ATOM     15  C   UNL     1       8.693  -4.739  24.941  0.00  0.00    +0.293 C 
ATOM     16  O   UNL     1       9.479  -5.648  24.665  0.00  0.00    -0.266 OA
BRANCH  13  17
ATOM     17  N   UNL     1       8.198  -5.681  27.138  0.00  0.00    -0.254 NA
ATOM     18  H   UNL     1       9.195  -5.934  27.162  0.00  0.00    +0.140 HD
ATOM     19  H   UNL     1       7.988  -5.304  28.063  0.00  0.00    +0.140 HD
ENDBRANCH  13  17
ENDBRANCH   1  15
TORSDOF 3
ENDMDL
MODEL 5
REMARK VINA RESULT:      -5.9      4.311      5.373
REMARK  Name = 
REMARK  3 active torsions:
REMARK  status: ('A' for Active; 'I' for Inactive)
REMARK    1  A    between atoms: N_1  and  N_2
REMARK    2  A    between atoms: C_3  and  C_5
REMARK    3  A    between atoms: C_8  and  C_10
REMARK                            x       y       z     vdW  Elec       q    Type
REMARK                         _______ _______ _______ _____ _____    ______ ____
ROOT
ATOM      1  C   UNL     1       8.279   0.755  22.185  0.00  0.00    +0.191 A 
ATOM      2  O   UNL     1       7.924  -0.350  22.920  0.00  0.00    -0.450 OA
ATOM      3  C   UNL     1       8.792  -1.363  22.598  0.00  0.00    +0.137 A 
ATOM      4  C   UNL     1       9.684  -0.907  21.647  0.00  0.00    +0.051 A 
ATOM      5  C   UNL     1       9.371   0.449  21.399  0.00  0.00    +0.055 A 
ENDROOT
BRANCH   3   6
ATOM      6  C   UNL     1       8.578  -2.630  23.299  0.00  0.00    +0.036 A 
ATOM      7  C   UNL     1       7.471  -3.469  23.069  0.00  0.00    +0.052 A 
ATOM      8 CL   UNL     1       6.234  -3.114  21.910  0.00  0.00    -0.083 Cl
ATOM      9  C   UNL     1       7.335  -4.680  23.764  0.00  0.00    +0.021 A 
ATOM     10  C   UNL     1       8.293  -5.075  24.695  0.00  0.00    +0.001 A 
ATOM     11  C   UNL     1       9.388  -4.255  24.944  0.00  0.00    +0.001 A 
ATOM     12  C   UNL     1       9.527  -3.046  24.254  0.00  0.00    +0.013 A 
ENDBRANCH   3   6
BRANCH   1  15
ATOM     13  N   UNL     1       8.257   3.136  22.116  0.00  0.00    -0.247 N 
ATOM     14  H   UNL     1       9.214   3.032  21.784  0.00  0.00    +0.169 HD
ATOM     15  C   UNL     1       7.508   1.974  22.304  0.00  0.00    +0.293 C 
ATOM     16  O   UNL     1       6.305   2.000  22.570  0.00  0.00    -0.266 OA
BRANCH  13  17
ATOM     17  N   UNL     1       7.637   4.405  22.122  0.00  0.00    -0.254 NA
ATOM     18  H   UNL     1       7.031   4.451  21.291  0.00  0.00    +0.140 HD
ATOM     19  H   UNL     1       7.008   4.466  22.924  0.00  0.00    +0.140 HD
ENDBRANCH  13  17
ENDBRANCH   1  15
TORSDOF 3
ENDMDL
MODEL 6
REMARK VINA RESULT:      -5.8      4.488      6.293
REMARK  Name = 
REMARK  3 active torsions:
REMARK  status: ('A' for Active; 'I' for Inactive)
REMARK    1  A    between atoms: N_1  and  N_2
REMARK    2  A    between atoms: C_3  and  C_5
REMARK    3  A    between atoms: C_8  and  C_10
REMARK                            x       y       z     vdW  Elec       q    Type
REMARK                         _______ _______ _______ _____ _____    ______ ____
ROOT
ATOM      1  C   UNL     1       9.315  -1.286  22.660  0.00  0.00    +0.191 A 
ATOM      2  O   UNL     1       8.277  -2.164  22.466  0.00  0.00    -0.450 OA
ATOM      3  C   UNL     1       8.415  -3.182  23.376  0.00  0.00    +0.137 A 
ATOM      4  C   UNL     1       9.548  -2.959  24.134  0.00  0.00    +0.051 A 
ATOM      5  C   UNL     1      10.110  -1.738  23.692  0.00  0.00    +0.055 A 
ENDROOT
BRANCH   3   6
ATOM      6  C   UNL     1       7.382  -4.219  23.332  0.00  0.00    +0.036 A 
ATOM      7  C   UNL     1       6.532  -4.515  24.414  0.00  0.00    +0.052 A 
ATOM      8 CL   UNL     1       6.588  -3.674  25.926  0.00  0.00    -0.083 Cl
ATOM      9  C   UNL     1       5.550  -5.511  24.299  0.00  0.00    +0.021 A 
ATOM     10  C   UNL     1       5.399  -6.225  23.112  0.00  0.00    +0.001 A 
ATOM     11  C   UNL     1       6.237  -5.954  22.036  0.00  0.00    +0.001 A 
ATOM     12  C   UNL     1       7.218  -4.962  22.146  0.00  0.00    +0.013 A 
ENDBRANCH   3   6
BRANCH   1  15
ATOM     13  N   UNL     1       9.944   1.003  22.461  0.00  0.00    -0.247 N 
ATOM     14  H   UNL     1      10.305   0.878  23.406  0.00  0.00    +0.169 HD
ATOM     15  C   UNL     1       9.437  -0.120  21.809  0.00  0.00    +0.293 C 
ATOM     16  O   UNL     1       9.105  -0.101  20.623  0.00  0.00    -0.266 OA
BRANCH  13  17
ATOM     17  N   UNL     1      10.198   2.198  21.752  0.00  0.00    -0.254 NA
ATOM     18  H   UNL     1      11.188   2.181  21.472  0.00  0.00    +0.140 HD
ATOM     19  H   UNL     1       9.666   2.189  20.881  0.00  0.00    +0.140 HD
ENDBRANCH  13  17
ENDBRANCH   1  15
TORSDOF 3
ENDMDL
MODEL 7
REMARK VINA RESULT:      -5.7      5.441      7.304
REMARK  Name = 
REMARK  3 active torsions:
REMARK  status: ('A' for Active; 'I' for Inactive)
REMARK    1  A    between atoms: N_1  and  N_2
REMARK    2  A    between atoms: C_3  and  C_5
REMARK    3  A    between atoms: C_8  and  C_10
REMARK                            x       y       z     vdW  Elec       q    Type
REMARK                         _______ _______ _______ _____ _____    ______ ____
ROOT
ATOM      1  C   UNL     1       7.559  -2.963  24.314  0.00  0.00    +0.191 A 
ATOM      2  O   UNL     1       8.486  -1.962  24.155  0.00  0.00    -0.450 OA
ATOM      3  C   UNL     1       7.812  -0.818  23.812  0.00  0.00    +0.137 A 
ATOM      4  C   UNL     1       6.461  -1.096  23.736  0.00  0.00    +0.051 A 
ATOM      5  C   UNL     1       6.297  -2.458  24.077  0.00  0.00    +0.055 A 
ENDROOT
BRANCH   3   6
ATOM      6  C   UNL     1       8.640   0.373  23.611  0.00  0.00    +0.036 A 
ATOM      7  C   UNL     1       9.405   0.601  22.451  0.00  0.00    +0.052 A 
ATOM      8 CL   UNL     1       9.443  -0.490  21.107  0.00  0.00    -0.083 Cl
ATOM      9  C   UNL     1      10.164   1.773  22.316  0.00  0.00    +0.021 A 
ATOM     10  C   UNL     1      10.176   2.732  23.326  0.00  0.00    +0.001 A 
ATOM     11  C   UNL     1       9.436   2.519  24.483  0.00  0.00    +0.001 A 
ATOM     12  C   UNL     1       8.678   1.352  24.624  0.00  0.00    +0.013 A 
ENDBRANCH   3   6
BRANCH   1  15
ATOM     13  N   UNL     1       9.376  -4.416  24.829  0.00  0.00    -0.247 N 
ATOM     14  H   UNL     1       9.923  -3.557  24.843  0.00  0.00    +0.169 HD
ATOM     15  C   UNL     1       7.997  -4.300  24.653  0.00  0.00    +0.293 C 
ATOM     16  O   UNL     1       7.236  -5.264  24.756  0.00  0.00    -0.266 OA
BRANCH  13  17
ATOM     17  N   UNL     1       9.953  -5.638  25.238  0.00  0.00    -0.254 NA
ATOM     18  H   UNL     1      10.114  -5.573  26.253  0.00  0.00    +0.140 HD
ATOM     19  H   UNL     1       9.272  -6.388  25.115  0.00  0.00    +0.140 HD
ENDBRANCH  13  17
ENDBRANCH   1  15
TORSDOF 3
ENDMDL
MODEL 8
REMARK VINA RESULT:      -5.6      3.628      5.041
REMARK  Name = 
REMARK  3 active torsions:
REMARK  status: ('A' for Active; 'I' for Inactive)
REMARK    1  A    between atoms: N_1  and  N_2
REMARK    2  A    between atoms: C_3  and  C_5
REMARK    3  A    between atoms: C_8  and  C_10
REMARK                            x       y       z     vdW  Elec       q    Type
REMARK                         _______ _______ _______ _____ _____    ______ ____
ROOT
ATOM      1  C   UNL     1       8.606   0.714  22.538  0.00  0.00    +0.191 A 
ATOM      2  O   UNL     1       7.841  -0.343  22.967  0.00  0.00    -0.450 OA
ATOM      3  C   UNL     1       8.318  -1.478  22.360  0.00  0.00    +0.137 A 
ATOM      4  C   UNL     1       9.372  -1.139  21.534  0.00  0.00    +0.051 A 
ATOM      5  C   UNL     1       9.570   0.255  21.664  0.00  0.00    +0.055 A 
ENDROOT
BRANCH   3   6
ATOM      6  C   UNL     1       7.630  -2.722  22.709  0.00  0.00    +0.036 A 
ATOM      7  C   UNL     1       8.145  -3.668  23.616  0.00  0.00    +0.052 A 
ATOM      8 CL   UNL     1       9.651  -3.465  24.447  0.00  0.00    -0.083 Cl
ATOM      9  C   UNL     1       7.426  -4.833  23.919  0.00  0.00    +0.021 A 
ATOM     10  C   UNL     1       6.188  -5.076  23.329  0.00  0.00    +0.001 A 
ATOM     11  C   UNL     1       5.666  -4.159  22.424  0.00  0.00    +0.001 A 
ATOM     12  C   UNL     1       6.381  -2.996  22.117  0.00  0.00    +0.013 A 
ENDBRANCH   3   6
BRANCH   1  15
ATOM     13  N   UNL     1       8.300   3.011  21.987  0.00  0.00    -0.247 N 
ATOM     14  H   UNL     1       8.366   2.683  21.026  0.00  0.00    +0.169 HD
ATOM     15  C   UNL     1       8.305   2.052  23.000  0.00  0.00    +0.293 C 
ATOM     16  O   UNL     1       8.094   2.337  24.180  0.00  0.00    -0.266 OA
BRANCH  13  17
ATOM     17  N   UNL     1       7.947   4.351  22.262  0.00  0.00    -0.254 NA
ATOM     18  H   UNL     1       8.272   4.920  21.468  0.00  0.00    +0.140 HD
ATOM     19  H   UNL     1       6.929   4.436  22.262  0.00  0.00    +0.140 HD
ENDBRANCH  13  17
ENDBRANCH   1  15
TORSDOF 3
ENDMDL
MODEL 9
REMARK VINA RESULT:      -5.6      3.835      5.263
REMARK  Name = 
REMARK  3 active torsions:
REMARK  status: ('A' for Active; 'I' for Inactive)
REMARK    1  A    between atoms: N_1  and  N_2
REMARK    2  A    between atoms: C_3  and  C_5
REMARK    3  A    between atoms: C_8  and  C_10
REMARK                            x       y       z     vdW  Elec       q    Type
REMARK                         _______ _______ _______ _____ _____    ______ ____
ROOT
ATOM      1  C   UNL     1       9.073  -0.158  24.241  0.00  0.00    +0.191 A 
ATOM      2  O   UNL     1       8.545  -1.077  23.368  0.00  0.00    -0.450 OA
ATOM      3  C   UNL     1       8.224  -2.201  24.086  0.00  0.00    +0.137 A 
ATOM      4  C   UNL     1       8.565  -2.003  25.410  0.00  0.00    +0.051 A 
ATOM      5  C   UNL     1       9.086  -0.692  25.513  0.00  0.00    +0.055 A 
ENDROOT
BRANCH   3   6
ATOM      6  C   UNL     1       7.628  -3.297  23.320  0.00  0.00    +0.036 A 
ATOM      7  C   UNL     1       7.931  -4.654  23.540  0.00  0.00    +0.052 A 
ATOM      8 CL   UNL     1       9.033  -5.196  24.762  0.00  0.00    -0.083 Cl
ATOM      9  C   UNL     1       7.311  -5.657  22.781  0.00  0.00    +0.021 A 
ATOM     10  C   UNL     1       6.383  -5.329  21.794  0.00  0.00    +0.001 A 
ATOM     11  C   UNL     1       6.079  -3.994  21.555  0.00  0.00    +0.001 A 
ATOM     12  C   UNL     1       6.696  -2.990  22.309  0.00  0.00    +0.013 A 
ENDBRANCH   3   6
BRANCH   1  15
ATOM     13  N   UNL     1       9.846   1.123  22.387  0.00  0.00    -0.247 N 
ATOM     14  H   UNL     1       9.605   0.295  21.847  0.00  0.00    +0.169 HD
ATOM     15  C   UNL     1       9.530   1.123  23.746  0.00  0.00    +0.293 C 
ATOM     16  O   UNL     1       9.657   2.124  24.453  0.00  0.00    -0.266 OA
BRANCH  13  17
ATOM     17  N   UNL     1      10.232   2.315  21.735  0.00  0.00    -0.254 NA
ATOM     18  H   UNL     1       9.379   2.873  21.591  0.00  0.00    +0.140 HD
ATOM     19  H   UNL     1      10.818   2.866  22.364  0.00  0.00    +0.140 HD
ENDBRANCH  13  17
ENDBRANCH   1  15
TORSDOF 3
ENDMDL
