MODEL 1
REMARK VINA RESULT:      -6.8      0.000      0.000
REMARK  Name = 
REMARK  6 active torsions:
REMARK  status: ('A' for Active; 'I' for Inactive)
REMARK    1  A    between atoms: N_2  and  C_4
REMARK    2  A    between atoms: C_6  and  N_21
REMARK    3  A    between atoms: C_7  and  N_8
REMARK    4  A    between atoms: N_8  and  N_9
REMARK    5  A    between atoms: C_10  and  C_11
REMARK    6  A    between atoms: C_10  and  C_13
REMARK                            x       y       z     vdW  Elec       q    Type
REMARK                         _______ _______ _______ _____ _____    ______ ____
ROOT
ATOM      1  C   UNL     1       5.634  -5.819  23.945  0.00  0.00    +0.280 A 
ATOM      2  C   UNL     1       6.377  -5.399  22.836  0.00  0.00    +0.086 A 
ATOM      3  C   UNL     1       7.580  -4.702  23.025  0.00  0.00    +0.038 A 
ATOM      4  C   UNL     1       8.046  -4.370  24.310  0.00  0.00    +0.126 A 
ATOM      5  C   UNL     1       7.290  -4.850  25.396  0.00  0.00    +0.302 A 
ATOM      6  C   UNL     1       6.093  -5.566  25.239  0.00  0.00    +0.170 A 
ENDROOT
BRANCH   1   8
ATOM      7  O   UNL     1       4.146  -7.522  24.461  0.00  0.00    -0.576 OA
ATOM      8  N   UNL     1       4.363  -6.529  23.751  0.00  0.00    +0.080 N 
ATOM      9  O   UNL     1       3.580  -6.087  22.900  0.00  0.00    +0.041 OA
ENDBRANCH   1   8
BRANCH   5  10
ATOM     10  N   UNL     1       7.757  -4.638  26.753  0.00  0.00    +0.082 N 
ATOM     11  O   UNL     1       6.903  -4.379  27.610  0.00  0.00    +0.042 OA
ATOM     12  O   UNL     1       8.972  -4.763  26.957  0.00  0.00    -0.576 OA
ENDBRANCH   5  10
BRANCH   4  13
ATOM     13  N   UNL     1       9.265  -3.688  24.484  0.00  0.00    -0.231 N 
ATOM     14  H   UNL     1       9.937  -4.093  25.144  0.00  0.00    +0.175 HD
BRANCH  13  15
ATOM     15  N   UNL     1       9.459  -2.489  23.911  0.00  0.00    -0.185 NA
ATOM     16  C   UNL     1       9.239  -1.380  24.568  0.00  0.00    +0.081 C 
BRANCH  16  17
ATOM     17  C   UNL     1       9.620  -0.104  23.853  0.00  0.00    -0.001 A 
ATOM     18  C   UNL     1       9.983   1.018  24.614  0.00  0.00    +0.010 A 
ATOM     19  C   UNL     1      10.300   2.227  23.987  0.00  0.00    +0.001 A 
ATOM     20  C   UNL     1      10.263   2.324  22.598  0.00  0.00    +0.000 A 
ATOM     21  C   UNL     1       9.913   1.214  21.833  0.00  0.00    +0.001 A 
ATOM     22  C   UNL     1       9.591   0.005  22.455  0.00  0.00    +0.010 A 
ENDBRANCH  16  17
BRANCH  16  23
ATOM     23  C   UNL     1       8.686  -1.172  25.974  0.00  0.00    +0.166 C 
ATOM     24 CL   UNL     1       6.939  -1.211  26.193  0.00  0.00    -0.119 Cl
ENDBRANCH  16  23
ENDBRANCH  13  15
ENDBRANCH   4  13
TORSDOF 6
ENDMDL
MODEL 2
REMARK VINA RESULT:      -6.7      1.232      1.808
REMARK  Name = 
REMARK  6 active torsions:
REMARK  status: ('A' for Active; 'I' for Inactive)
REMARK    1  A    between atoms: N_2  and  C_4
REMARK    2  A    between atoms: C_6  and  N_21
REMARK    3  A    between atoms: C_7  and  N_8
REMARK    4  A    between atoms: N_8  and  N_9
REMARK    5  A    between atoms: C_10  and  C_11
REMARK    6  A    between atoms: C_10  and  C_13
REMARK                            x       y       z     vdW  Elec       q    Type
REMARK                         _______ _______ _______ _____ _____    ______ ____
ROOT
ATOM      1  C   UNL     1       6.161  -4.876  23.486  0.00  0.00    +0.280 A 
ATOM      2  C   UNL     1       6.434  -3.844  22.580  0.00  0.00    +0.086 A 
ATOM      3  C   UNL     1       7.604  -3.082  22.722  0.00  0.00    +0.038 A 
ATOM      4  C   UNL     1       8.499  -3.296  23.784  0.00  0.00    +0.126 A 
ATOM      5  C   UNL     1       8.207  -4.371  24.646  0.00  0.00    +0.302 A 
ATOM      6  C   UNL     1       7.055  -5.164  24.518  0.00  0.00    +0.170 A 
ENDROOT
BRANCH   1   8
ATOM      7  O   UNL     1       4.034  -5.207  22.624  0.00  0.00    -0.576 OA
ATOM      8  N   UNL     1       4.927  -5.661  23.354  0.00  0.00    +0.080 N 
ATOM      9  O   UNL     1       4.857  -6.733  23.969  0.00  0.00    +0.041 OA
ENDBRANCH   1   8
BRANCH   5  10
ATOM     10  N   UNL     1       9.134  -4.722  25.706  0.00  0.00    +0.082 N 
ATOM     11  O   UNL     1      10.244  -5.148  25.366  0.00  0.00    +0.042 OA
ATOM     12  O   UNL     1       8.754  -4.539  26.870  0.00  0.00    -0.576 OA
ENDBRANCH   5  10
BRANCH   4  13
ATOM     13  N   UNL     1       9.678  -2.537  23.902  0.00  0.00    -0.231 N 
ATOM     14  H   UNL     1      10.522  -3.028  24.213  0.00  0.00    +0.175 HD
BRANCH  13  15
ATOM     15  N   UNL     1       9.644  -1.202  23.749  0.00  0.00    -0.185 NA
ATOM     16  C   UNL     1       9.415  -0.410  24.764  0.00  0.00    +0.081 C 
BRANCH  16  17
ATOM     17  C   UNL     1       9.532   1.071  24.482  0.00  0.00    -0.001 A 
ATOM     18  C   UNL     1       8.536   1.934  24.963  0.00  0.00    +0.010 A 
ATOM     19  C   UNL     1       8.589   3.303  24.685  0.00  0.00    +0.001 A 
ATOM     20  C   UNL     1       9.639   3.823  23.931  0.00  0.00    +0.000 A 
ATOM     21  C   UNL     1      10.638   2.976  23.456  0.00  0.00    +0.001 A 
ATOM     22  C   UNL     1      10.587   1.606  23.728  0.00  0.00    +0.010 A 
ENDBRANCH  16  17
BRANCH  16  23
ATOM     23  C   UNL     1       9.082  -0.749  26.212  0.00  0.00    +0.166 C 
ATOM     24 CL   UNL     1       7.455  -1.317  26.579  0.00  0.00    -0.119 Cl
ENDBRANCH  16  23
ENDBRANCH  13  15
ENDBRANCH   4  13
TORSDOF 6
ENDMDL
MODEL 3
REMARK VINA RESULT:      -6.6      1.692      3.154
REMARK  Name = 
REMARK  6 active torsions:
REMARK  status: ('A' for Active; 'I' for Inactive)
REMARK    1  A    between atoms: N_2  and  C_4
REMARK    2  A    between atoms: C_6  and  N_21
REMARK    3  A    between atoms: C_7  and  N_8
REMARK    4  A    between atoms: N_8  and  N_9
REMARK    5  A    between atoms: C_10  and  C_11
REMARK    6  A    between atoms: C_10  and  C_13
REMARK                            x       y       z     vdW  Elec       q    Type
REMARK                         _______ _______ _______ _____ _____    ______ ____
ROOT
ATOM      1  C   UNL     1       6.542  -5.435  26.244  0.00  0.00    +0.280 A 
ATOM      2  C   UNL     1       7.840  -4.919  26.149  0.00  0.00    +0.086 A 
ATOM      3  C   UNL     1       8.278  -4.350  24.943  0.00  0.00    +0.038 A 
ATOM      4  C   UNL     1       7.460  -4.321  23.801  0.00  0.00    +0.126 A 
ATOM      5  C   UNL     1       6.149  -4.812  23.954  0.00  0.00    +0.302 A 
ATOM      6  C   UNL     1       5.674  -5.369  25.152  0.00  0.00    +0.170 A 
ENDROOT
BRANCH   1   8
ATOM      7  O   UNL     1       6.437  -5.517  28.559  0.00  0.00    -0.576 OA
ATOM      8  N   UNL     1       6.086  -6.051  27.497  0.00  0.00    +0.080 N 
ATOM      9  O   UNL     1       5.372  -7.059  27.417  0.00  0.00    +0.041 OA
ENDBRANCH   1   8
BRANCH   5  10
ATOM     10  N   UNL     1       5.209  -4.723  22.852  0.00  0.00    +0.082 N 
ATOM     11  O   UNL     1       5.496  -5.336  21.815  0.00  0.00    +0.042 OA
ATOM     12  O   UNL     1       4.176  -4.068  23.043  0.00  0.00    -0.576 OA
ENDBRANCH   5  10
BRANCH   4  13
ATOM     13  N   UNL     1       7.907  -3.730  22.604  0.00  0.00    -0.231 N 
ATOM     14  H   UNL     1       7.777  -4.266  21.740  0.00  0.00    +0.175 HD
BRANCH  13  15
ATOM     15  N   UNL     1       8.598  -2.577  22.634  0.00  0.00    -0.185 NA
ATOM     16  C   UNL     1       7.997  -1.433  22.827  0.00  0.00    +0.081 C 
BRANCH  16  17
ATOM     17  C   UNL     1       8.902  -0.230  22.968  0.00  0.00    -0.001 A 
ATOM     18  C   UNL     1       9.447   0.066  24.227  0.00  0.00    +0.010 A 
ATOM     19  C   UNL     1      10.254   1.193  24.403  0.00  0.00    +0.001 A 
ATOM     20  C   UNL     1      10.528   2.032  23.325  0.00  0.00    +0.000 A 
ATOM     21  C   UNL     1       9.999   1.743  22.069  0.00  0.00    +0.001 A 
ATOM     22  C   UNL     1       9.189   0.618  21.889  0.00  0.00    +0.010 A 
ENDBRANCH  16  17
BRANCH  16  23
ATOM     23  C   UNL     1       6.511  -1.121  22.971  0.00  0.00    +0.166 C 
ATOM     24 CL   UNL     1       5.796  -1.209  24.579  0.00  0.00    -0.119 Cl
ENDBRANCH  16  23
ENDBRANCH  13  15
ENDBRANCH   4  13
TORSDOF 6
ENDMDL
MODEL 4
REMARK VINA RESULT:      -6.6      2.257      2.995
REMARK  Name = 
REMARK  6 active torsions:
REMARK  status: ('A' for Active; 'I' for Inactive)
REMARK    1  A    between atoms: N_2  and  C_4
REMARK    2  A    between atoms: C_6  and  N_21
REMARK    3  A    between atoms: C_7  and  N_8
REMARK    4  A    between atoms: N_8  and  N_9
REMARK    5  A    between atoms: C_10  and  C_11
REMARK    6  A    between atoms: C_10  and  C_13
REMARK                            x       y       z     vdW  Elec       q    Type
REMARK                         _______ _______ _______ _____ _____    ______ ____
ROOT
ATOM      1  C   UNL     1       6.663  -4.535  22.503  0.00  0.00    +0.280 A 
ATOM      2  C   UNL     1       6.873  -3.252  21.983  0.00  0.00    +0.086 A 
ATOM      3  C   UNL     1       7.835  -2.412  22.564  0.00  0.00    +0.038 A 
ATOM      4  C   UNL     1       8.573  -2.806  23.694  0.00  0.00    +0.126 A 
ATOM      5  C   UNL     1       8.360  -4.119  24.157  0.00  0.00    +0.302 A 
ATOM      6  C   UNL     1       7.419  -4.990  23.585  0.00  0.00    +0.170 A 
ENDROOT
BRANCH   1   8
ATOM      7  O   UNL     1       4.569  -5.531  22.521  0.00  0.00    -0.576 OA
ATOM      8  N   UNL     1       5.641  -5.409  21.912  0.00  0.00    +0.080 N 
ATOM      9  O   UNL     1       5.908  -5.962  20.837  0.00  0.00    +0.041 OA
ENDBRANCH   1   8
BRANCH   5  10
ATOM     10  N   UNL     1       9.155  -4.637  25.254  0.00  0.00    +0.082 N 
ATOM     11  O   UNL     1      10.327  -4.947  25.005  0.00  0.00    +0.042 OA
ATOM     12  O   UNL     1       8.610  -4.701  26.364  0.00  0.00    -0.576 OA
ENDBRANCH   5  10
BRANCH   4  13
ATOM     13  N   UNL     1       9.548  -1.960  24.254  0.00  0.00    -0.231 N 
ATOM     14  H   UNL     1      10.493  -2.343  24.362  0.00  0.00    +0.175 HD
BRANCH  13  15
ATOM     15  N   UNL     1       9.202  -0.759  24.748  0.00  0.00    -0.185 NA
ATOM     16  C   UNL     1       9.418   0.339  24.072  0.00  0.00    +0.081 C 
BRANCH  16  17
ATOM     17  C   UNL     1       8.864   1.607  24.683  0.00  0.00    -0.001 A 
ATOM     18  C   UNL     1       7.828   1.511  25.625  0.00  0.00    +0.010 A 
ATOM     19  C   UNL     1       7.264   2.663  26.178  0.00  0.00    +0.001 A 
ATOM     20  C   UNL     1       7.732   3.920  25.801  0.00  0.00    +0.000 A 
ATOM     21  C   UNL     1       8.765   4.027  24.873  0.00  0.00    +0.001 A 
ATOM     22  C   UNL     1       9.330   2.877  24.314  0.00  0.00    +0.010 A 
ENDBRANCH  16  17
BRANCH  16  23
ATOM     23  C   UNL     1      10.116   0.540  22.732  0.00  0.00    +0.166 C 
ATOM     24 CL   UNL     1       9.115   0.737  21.296  0.00  0.00    -0.119 Cl
ENDBRANCH  16  23
ENDBRANCH  13  15
ENDBRANCH   4  13
TORSDOF 6
ENDMDL
MODEL 5
REMARK VINA RESULT:      -6.4      2.214      2.986
REMARK  Name = 
REMARK  6 active torsions:
REMARK  status: ('A' for Active; 'I' for Inactive)
REMARK    1  A    between atoms: N_2  and  C_4
REMARK    2  A    between atoms: C_6  and  N_21
REMARK    3  A    between atoms: C_7  and  N_8
REMARK    4  A    between atoms: N_8  and  N_9
REMARK    5  A    between atoms: C_10  and  C_11
REMARK    6  A    between atoms: C_10  and  C_13
REMARK                            x       y       z     vdW  Elec       q    Type
REMARK                         _______ _______ _______ _____ _____    ______ ____
ROOT
ATOM      1  C   UNL     1       4.982  -6.400  25.066  0.00  0.00    +0.280 A 
ATOM      2  C   UNL     1       5.903  -5.836  25.957  0.00  0.00    +0.086 A 
ATOM      3  C   UNL     1       6.990  -5.098  25.463  0.00  0.00    +0.038 A 
ATOM      4  C   UNL     1       7.210  -4.943  24.083  0.00  0.00    +0.126 A 
ATOM      5  C   UNL     1       6.237  -5.489  23.226  0.00  0.00    +0.302 A 
ATOM      6  C   UNL     1       5.128  -6.215  23.690  0.00  0.00    +0.170 A 
ENDROOT
BRANCH   1   8
ATOM      7  O   UNL     1       3.411  -8.091  24.851  0.00  0.00    -0.576 OA
ATOM      8  N   UNL     1       3.856  -7.191  25.577  0.00  0.00    +0.080 N 
ATOM      9  O   UNL     1       3.427  -6.921  26.706  0.00  0.00    +0.041 OA
ENDBRANCH   1   8
BRANCH   5  10
ATOM     10  N   UNL     1       6.336  -5.284  21.793  0.00  0.00    +0.082 N 
ATOM     11  O   UNL     1       5.545  -4.483  21.281  0.00  0.00    +0.042 OA
ATOM     12  O   UNL     1       7.227  -5.903  21.196  0.00  0.00    -0.576 OA
ENDBRANCH   5  10
BRANCH   4  13
ATOM     13  N   UNL     1       8.294  -4.183  23.604  0.00  0.00    -0.231 N 
ATOM     14  H   UNL     1       9.235  -4.558  23.763  0.00  0.00    +0.175 HD
BRANCH  13  15
ATOM     15  N   UNL     1       8.090  -2.958  23.091  0.00  0.00    -0.185 NA
ATOM     16  C   UNL     1       8.463  -1.884  23.736  0.00  0.00    +0.081 C 
BRANCH  16  17
ATOM     17  C   UNL     1       8.293  -0.578  22.993  0.00  0.00    -0.001 A 
ATOM     18  C   UNL     1       9.347  -0.110  22.193  0.00  0.00    +0.010 A 
ATOM     19  C   UNL     1       9.241   1.114  21.525  0.00  0.00    +0.001 A 
ATOM     20  C   UNL     1       8.082   1.877  21.645  0.00  0.00    +0.000 A 
ATOM     21  C   UNL     1       7.026   1.418  22.430  0.00  0.00    +0.001 A 
ATOM     22  C   UNL     1       7.129   0.196  23.102  0.00  0.00    +0.010 A 
ENDBRANCH  16  17
BRANCH  16  23
ATOM     23  C   UNL     1       9.084  -1.742  25.121  0.00  0.00    +0.166 C 
ATOM     24 CL   UNL     1       8.006  -1.512  26.495  0.00  0.00    -0.119 Cl
ENDBRANCH  16  23
ENDBRANCH  13  15
ENDBRANCH   4  13
TORSDOF 6
ENDMDL
MODEL 6
REMARK VINA RESULT:      -6.4      2.503      3.749
REMARK  Name = 
REMARK  6 active torsions:
REMARK  status: ('A' for Active; 'I' for Inactive)
REMARK    1  A    between atoms: N_2  and  C_4
REMARK    2  A    between atoms: C_6  and  N_21
REMARK    3  A    between atoms: C_7  and  N_8
REMARK    4  A    between atoms: N_8  and  N_9
REMARK    5  A    between atoms: C_10  and  C_11
REMARK    6  A    between atoms: C_10  and  C_13
REMARK                            x       y       z     vdW  Elec       q    Type
REMARK                         _______ _______ _______ _____ _____    ______ ____
ROOT
ATOM      1  C   UNL     1       6.710  -4.765  25.681  0.00  0.00    +0.280 A 
ATOM      2  C   UNL     1       6.918  -3.417  25.996  0.00  0.00    +0.086 A 
ATOM      3  C   UNL     1       7.009  -2.466  24.967  0.00  0.00    +0.038 A 
ATOM      4  C   UNL     1       6.941  -2.836  23.613  0.00  0.00    +0.126 A 
ATOM      5  C   UNL     1       6.689  -4.195  23.344  0.00  0.00    +0.302 A 
ATOM      6  C   UNL     1       6.573  -5.167  24.351  0.00  0.00    +0.170 A 
ENDROOT
BRANCH   1   8
ATOM      7  O   UNL     1       5.738  -6.616  26.683  0.00  0.00    -0.576 OA
ATOM      8  N   UNL     1       6.637  -5.767  26.753  0.00  0.00    +0.080 N 
ATOM      9  O   UNL     1       7.483  -5.709  27.654  0.00  0.00    +0.041 OA
ENDBRANCH   1   8
BRANCH   5  10
ATOM     10  N   UNL     1       6.503  -4.640  21.975  0.00  0.00    +0.082 N 
ATOM     11  O   UNL     1       7.226  -5.562  21.579  0.00  0.00    +0.042 OA
ATOM     12  O   UNL     1       5.613  -4.084  21.318  0.00  0.00    -0.576 OA
ENDBRANCH   5  10
BRANCH   4  13
ATOM     13  N   UNL     1       7.014  -1.868  22.593  0.00  0.00    -0.231 N 
ATOM     14  H   UNL     1       7.024  -2.208  21.626  0.00  0.00    +0.175 HD
BRANCH  13  15
ATOM     15  N   UNL     1       7.207  -0.574  22.899  0.00  0.00    -0.185 NA
ATOM     16  C   UNL     1       8.268   0.068  22.485  0.00  0.00    +0.081 C 
BRANCH  16  17
ATOM     17  C   UNL     1       8.300   1.550  22.787  0.00  0.00    -0.001 A 
ATOM     18  C   UNL     1       9.144   2.016  23.807  0.00  0.00    +0.010 A 
ATOM     19  C   UNL     1       9.168   3.373  24.141  0.00  0.00    +0.001 A 
ATOM     20  C   UNL     1       8.356   4.276  23.458  0.00  0.00    +0.000 A 
ATOM     21  C   UNL     1       7.520   3.825  22.439  0.00  0.00    +0.001 A 
ATOM     22  C   UNL     1       7.490   2.468  22.103  0.00  0.00    +0.010 A 
ENDBRANCH  16  17
BRANCH  16  23
ATOM     23  C   UNL     1       9.475  -0.439  21.704  0.00  0.00    +0.166 C 
ATOM     24 CL   UNL     1      10.546  -1.596  22.490  0.00  0.00    -0.119 Cl
ENDBRANCH  16  23
ENDBRANCH  13  15
ENDBRANCH   4  13
TORSDOF 6
ENDMDL
MODEL 7
REMARK VINA RESULT:      -6.4      1.589      2.118
REMARK  Name = 
REMARK  6 active torsions:
REMARK  status: ('A' for Active; 'I' for Inactive)
REMARK    1  A    between atoms: N_2  and  C_4
REMARK    2  A    between atoms: C_6  and  N_21
REMARK    3  A    between atoms: C_7  and  N_8
REMARK    4  A    between atoms: N_8  and  N_9
REMARK    5  A    between atoms: C_10  and  C_11
REMARK    6  A    between atoms: C_10  and  C_13
REMARK                            x       y       z     vdW  Elec       q    Type
REMARK                         _______ _______ _______ _____ _____    ______ ____
ROOT
ATOM      1  C   UNL     1       5.983  -5.330  23.707  0.00  0.00    +0.280 A 
ATOM      2  C   UNL     1       6.547  -4.508  22.725  0.00  0.00    +0.086 A 
ATOM      3  C   UNL     1       7.662  -3.714  23.035  0.00  0.00    +0.038 A 
ATOM      4  C   UNL     1       8.210  -3.686  24.330  0.00  0.00    +0.126 A 
ATOM      5  C   UNL     1       7.638  -4.559  25.273  0.00  0.00    +0.302 A 
ATOM      6  C   UNL     1       6.535  -5.380  24.988  0.00  0.00    +0.170 A 
ENDROOT
BRANCH   1   8
ATOM      7  O   UNL     1       4.644  -7.195  24.031  0.00  0.00    -0.576 OA
ATOM      8  N   UNL     1       4.802  -6.144  23.393  0.00  0.00    +0.080 N 
ATOM      9  O   UNL     1       4.030  -5.728  22.519  0.00  0.00    +0.041 OA
ENDBRANCH   1   8
BRANCH   5  10
ATOM     10  N   UNL     1       8.211  -4.665  26.603  0.00  0.00    +0.082 N 
ATOM     11  O   UNL     1       9.439  -4.793  26.680  0.00  0.00    +0.042 OA
ATOM     12  O   UNL     1       7.429  -4.587  27.561  0.00  0.00    -0.576 OA
ENDBRANCH   5  10
BRANCH   4  13
ATOM     13  N   UNL     1       9.341  -2.900  24.621  0.00  0.00    -0.231 N 
ATOM     14  H   UNL     1      10.225  -3.393  24.781  0.00  0.00    +0.175 HD
BRANCH  13  15
ATOM     15  N   UNL     1       9.215  -1.576  24.816  0.00  0.00    -0.185 NA
ATOM     16  C   UNL     1       9.575  -0.719  23.896  0.00  0.00    +0.081 C 
BRANCH  16  17
ATOM     17  C   UNL     1       9.261   0.731  24.189  0.00  0.00    -0.001 A 
ATOM     18  C   UNL     1      10.082   1.728  23.640  0.00  0.00    +0.010 A 
ATOM     19  C   UNL     1       9.846   3.076  23.923  0.00  0.00    +0.001 A 
ATOM     20  C   UNL     1       8.787   3.441  24.751  0.00  0.00    +0.000 A 
ATOM     21  C   UNL     1       7.961   2.460  25.295  0.00  0.00    +0.001 A 
ATOM     22  C   UNL     1       8.195   1.110  25.017  0.00  0.00    +0.010 A 
ENDBRANCH  16  17
BRANCH  16  23
ATOM     23  C   UNL     1      10.236  -0.958  22.543  0.00  0.00    +0.166 C 
ATOM     24 CL   UNL     1       9.297  -0.624  21.090  0.00  0.00    -0.119 Cl
ENDBRANCH  16  23
ENDBRANCH  13  15
ENDBRANCH   4  13
TORSDOF 6
ENDMDL
MODEL 8
REMARK VINA RESULT:      -6.3      3.725      7.529
REMARK  Name = 
REMARK  6 active torsions:
REMARK  status: ('A' for Active; 'I' for Inactive)
REMARK    1  A    between atoms: N_2  and  C_4
REMARK    2  A    between atoms: C_6  and  N_21
REMARK    3  A    between atoms: C_7  and  N_8
REMARK    4  A    between atoms: N_8  and  N_9
REMARK    5  A    between atoms: C_10  and  C_11
REMARK    6  A    between atoms: C_10  and  C_13
REMARK                            x       y       z     vdW  Elec       q    Type
REMARK                         _______ _______ _______ _____ _____    ______ ____
ROOT
ATOM      1  C   UNL     1       8.711   1.338  23.948  0.00  0.00    +0.280 A 
ATOM      2  C   UNL     1       7.336   1.139  23.776  0.00  0.00    +0.086 A 
ATOM      3  C   UNL     1       6.861  -0.111  23.350  0.00  0.00    +0.038 A 
ATOM      4  C   UNL     1       7.735  -1.169  23.046  0.00  0.00    +0.126 A 
ATOM      5  C   UNL     1       9.105  -0.938  23.275  0.00  0.00    +0.302 A 
ATOM      6  C   UNL     1       9.610   0.295  23.719  0.00  0.00    +0.170 A 
ENDROOT
BRANCH   1   8
ATOM      7  O   UNL     1      10.273   3.049  23.865  0.00  0.00    -0.576 OA
ATOM      8  N   UNL     1       9.215   2.651  24.371  0.00  0.00    +0.080 N 
ATOM      9  O   UNL     1       8.548   3.285  25.199  0.00  0.00    +0.041 OA
ENDBRANCH   1   8
BRANCH   5  10
ATOM     10  N   UNL     1      10.063  -2.011  23.084  0.00  0.00    +0.082 N 
ATOM     11  O   UNL     1      10.879  -1.881  22.164  0.00  0.00    +0.042 OA
ATOM     12  O   UNL     1      10.010  -2.961  23.877  0.00  0.00    -0.576 OA
ENDBRANCH   5  10
BRANCH   4  13
ATOM     13  N   UNL     1       7.242  -2.423  22.640  0.00  0.00    -0.231 N 
ATOM     14  H   UNL     1       7.275  -2.637  21.638  0.00  0.00    +0.175 HD
BRANCH  13  15
ATOM     15  N   UNL     1       6.629  -3.230  23.523  0.00  0.00    -0.185 NA
ATOM     16  C   UNL     1       6.663  -4.530  23.390  0.00  0.00    +0.081 C 
BRANCH  16  17
ATOM     17  C   UNL     1       6.046  -5.324  24.519  0.00  0.00    -0.001 A 
ATOM     18  C   UNL     1       5.021  -6.237  24.227  0.00  0.00    +0.010 A 
ATOM     19  C   UNL     1       4.400  -6.957  25.251  0.00  0.00    +0.001 A 
ATOM     20  C   UNL     1       4.799  -6.776  26.573  0.00  0.00    +0.000 A 
ATOM     21  C   UNL     1       5.821  -5.879  26.874  0.00  0.00    +0.001 A 
ATOM     22  C   UNL     1       6.443  -5.154  25.853  0.00  0.00    +0.010 A 
ENDBRANCH  16  17
BRANCH  16  23
ATOM     23  C   UNL     1       7.267  -5.382  22.280  0.00  0.00    +0.166 C 
ATOM     24 CL   UNL     1       6.290  -5.696  20.848  0.00  0.00    -0.119 Cl
ENDBRANCH  16  23
ENDBRANCH  13  15
ENDBRANCH   4  13
TORSDOF 6
ENDMDL
MODEL 9
REMARK VINA RESULT:      -6.3      3.525      7.082
REMARK  Name = 
REMARK  6 active torsions:
REMARK  status: ('A' for Active; 'I' for Inactive)
REMARK    1  A    between atoms: N_2  and  C_4
REMARK    2  A    between atoms: C_6  and  N_21
REMARK    3  A    between atoms: C_7  and  N_8
REMARK    4  A    between atoms: N_8  and  N_9
REMARK    5  A    between atoms: C_10  and  C_11
REMARK    6  A    between atoms: C_10  and  C_13
REMARK                            x       y       z     vdW  Elec       q    Type
REMARK                         _______ _______ _______ _____ _____    ______ ____
ROOT
ATOM      1  C   UNL     1       9.521   2.070  23.709  0.00  0.00    +0.280 A 
ATOM      2  C   UNL     1      10.116   1.372  22.652  0.00  0.00    +0.086 A 
ATOM      3  C   UNL     1      10.206  -0.028  22.702  0.00  0.00    +0.038 A 
ATOM      4  C   UNL     1       9.751  -0.757  23.815  0.00  0.00    +0.126 A 
ATOM      5  C   UNL     1       9.121  -0.018  24.835  0.00  0.00    +0.302 A 
ATOM      6  C   UNL     1       8.998   1.380  24.805  0.00  0.00    +0.170 A 
ENDROOT
BRANCH   1   8
ATOM      7  O   UNL     1       8.319   4.052  23.673  0.00  0.00    -0.576 OA
ATOM      8  N   UNL     1       9.445   3.536  23.670  0.00  0.00    +0.080 N 
ATOM      9  O   UNL     1      10.510   4.168  23.649  0.00  0.00    +0.041 OA
ENDBRANCH   1   8
BRANCH   5  10
ATOM     10  N   UNL     1       8.533  -0.706  25.970  0.00  0.00    +0.082 N 
ATOM     11  O   UNL     1       9.188  -0.723  27.020  0.00  0.00    +0.042 OA
ATOM     12  O   UNL     1       7.407  -1.196  25.810  0.00  0.00    -0.576 OA
ENDBRANCH   5  10
BRANCH   4  13
ATOM     13  N   UNL     1       9.829  -2.162  23.843  0.00  0.00    -0.231 N 
ATOM     14  H   UNL     1      10.723  -2.575  24.128  0.00  0.00    +0.175 HD
BRANCH  13  15
ATOM     15  N   UNL     1       8.814  -2.907  23.375  0.00  0.00    -0.185 NA
ATOM     16  C   UNL     1       8.510  -4.056  23.921  0.00  0.00    +0.081 C 
BRANCH  16  17
ATOM     17  C   UNL     1       7.268  -4.731  23.385  0.00  0.00    -0.001 A 
ATOM     18  C   UNL     1       6.170  -4.911  24.240  0.00  0.00    +0.010 A 
ATOM     19  C   UNL     1       5.022  -5.569  23.791  0.00  0.00    +0.001 A 
ATOM     20  C   UNL     1       4.957  -6.047  22.484  0.00  0.00    +0.000 A 
ATOM     21  C   UNL     1       6.038  -5.866  21.624  0.00  0.00    +0.001 A 
ATOM     22  C   UNL     1       7.190  -5.212  22.070  0.00  0.00    +0.010 A 
ENDBRANCH  16  17
BRANCH  16  23
ATOM     23  C   UNL     1       9.198  -4.812  25.052  0.00  0.00    +0.166 C 
ATOM     24 CL   UNL     1       8.852  -4.323  26.709  0.00  0.00    -0.119 Cl
ENDBRANCH  16  23
ENDBRANCH  13  15
ENDBRANCH   4  13
TORSDOF 6
ENDMDL
