MODEL 1
REMARK VINA RESULT:      -6.1      0.000      0.000
REMARK  Name = 
REMARK  13 active torsions:
REMARK  status: ('A' for Active; 'I' for Inactive)
REMARK    1  A    between atoms: CA_4  and  C_29
REMARK    2  A    between atoms: C_7  and  CA_9
REMARK    3  A    between atoms: CA_9  and  CB_11
REMARK    4  A    between atoms: CA_9  and  N_12
REMARK    5  A    between atoms: N_12  and  C_13
REMARK    6  A    between atoms: C_13  and  C_15
REMARK    7  A    between atoms: C_13  and  C_18
REMARK    8  A    between atoms: C_15  and  C_16
REMARK    9  A    between atoms: C_16  and  C_17
REMARK   10  A    between atoms: C_18  and  O_20
REMARK   11  A    between atoms: O_20  and  C_21
REMARK   12  A    between atoms: C_21  and  C_22
REMARK   13  A    between atoms: C_29  and  O_30
REMARK                            x       y       z     vdW  Elec       q    Type
REMARK                         _______ _______ _______ _____ _____    ______ ____
ROOT
ATOM      1  C   UNL     1       4.668  -4.747  22.997  0.00  0.00    +0.012 C 
ATOM      2  C   UNL     1       5.181  -6.014  22.270  0.00  0.00    +0.005 C 
ATOM      3  C   UNL     1       6.359  -5.763  21.323  0.00  0.00    +0.000 C 
ATOM      4  C   UNL     1       7.440  -4.907  21.960  0.00  0.00    +0.002 C 
ATOM      5  C   UNL     1       6.821  -3.644  22.538  0.00  0.00    +0.023 C 
ATOM      6  C   UNL     1       5.808  -3.945  23.623  0.00  0.00    +0.080 C 
ATOM      7  N   UNL     1       6.139  -4.755  24.810  0.00  0.00    -0.283 N 
ATOM      8  C   UNL     1       7.249  -4.612  25.642  0.00  0.00    +0.233 C 
ATOM      9  O   UNL     1       7.197  -5.070  26.792  0.00  0.00    -0.274 OA
ATOM     10  CA  UNL     1       4.844  -5.264  25.375  0.00  0.00    +0.185 C 
ATOM     11  C   UNL     1       3.823  -5.078  24.224  0.00  0.00    +0.039 C 
ENDROOT
BRANCH   8  12
ATOM     12  CA  UNL     1       8.605  -4.095  25.080  0.00  0.00    +0.138 C 
ATOM     13  CB  UNL     1       9.723  -5.119  25.333  0.00  0.00    +0.034 C 
BRANCH  12  14
ATOM     14  N   UNL     1       8.884  -2.738  25.575  0.00  0.00    -0.294 NA
ATOM     15  H   UNL     1       9.880  -2.681  25.811  0.00  0.00    +0.123 HD
BRANCH  14  16
ATOM     16  C   UNL     1       8.560  -1.641  24.621  0.00  0.00    +0.164 C 
BRANCH  16  17
ATOM     17  C   UNL     1       9.863  -0.880  24.324  0.00  0.00    +0.324 C 
ATOM     18  O   UNL     1      10.345   0.016  25.021  0.00  0.00    -0.249 OA
BRANCH  17  19
ATOM     19  O   UNL     1      10.375  -1.299  23.129  0.00  0.00    -0.464 OA
BRANCH  19  20
ATOM     20  C   UNL     1       9.493  -1.146  22.015  0.00  0.00    +0.229 C 
ATOM     21  C   UNL     1       9.526   0.312  21.595  0.00  0.00    +0.048 C 
ENDBRANCH  19  20
ENDBRANCH  17  19
ENDBRANCH  16  17
BRANCH  16  22
ATOM     22  C   UNL     1       7.516  -0.615  25.129  0.00  0.00    +0.030 C 
BRANCH  22  23
ATOM     23  C   UNL     1       6.410  -0.258  24.124  0.00  0.00    -0.001 C 
ATOM     24  C   UNL     1       6.541   1.188  23.654  0.00  0.00    +0.004 C 
ENDBRANCH  22  23
ENDBRANCH  16  22
ENDBRANCH  14  16
ENDBRANCH  12  14
ENDBRANCH   8  12
BRANCH  10  25
ATOM     25  C   UNL     1       4.706  -6.716  25.874  0.00  0.00    +0.325 C 
ATOM     26  OXT UNL     1       4.174  -7.607  25.221  0.00  0.00    -0.249 OA
BRANCH  25  27
ATOM     27  O   UNL     1       5.227  -6.956  27.099  0.00  0.00    -0.479 OA
ATOM     28  H   UNL     1       5.339  -6.118  27.582  0.00  0.00    +0.295 HD
ENDBRANCH  25  27
ENDBRANCH  10  25
TORSDOF 10
ENDMDL
MODEL 2
REMARK VINA RESULT:      -6.0      1.988      3.134
REMARK  Name = 
REMARK  13 active torsions:
REMARK  status: ('A' for Active; 'I' for Inactive)
REMARK    1  A    between atoms: CA_4  and  C_29
REMARK    2  A    between atoms: C_7  and  CA_9
REMARK    3  A    between atoms: CA_9  and  CB_11
REMARK    4  A    between atoms: CA_9  and  N_12
REMARK    5  A    between atoms: N_12  and  C_13
REMARK    6  A    between atoms: C_13  and  C_15
REMARK    7  A    between atoms: C_13  and  C_18
REMARK    8  A    between atoms: C_15  and  C_16
REMARK    9  A    between atoms: C_16  and  C_17
REMARK   10  A    between atoms: C_18  and  O_20
REMARK   11  A    between atoms: O_20  and  C_21
REMARK   12  A    between atoms: C_21  and  C_22
REMARK   13  A    between atoms: C_29  and  O_30
REMARK                            x       y       z     vdW  Elec       q    Type
REMARK                         _______ _______ _______ _____ _____    ______ ____
ROOT
ATOM      1  C   UNL     1       5.375  -4.809  24.240  0.00  0.00    +0.012 C 
ATOM      2  C   UNL     1       6.259  -5.831  23.485  0.00  0.00    +0.005 C 
ATOM      3  C   UNL     1       6.719  -5.363  22.099  0.00  0.00    +0.000 C 
ATOM      4  C   UNL     1       7.256  -3.943  22.119  0.00  0.00    +0.002 C 
ATOM      5  C   UNL     1       6.247  -3.021  22.787  0.00  0.00    +0.023 C 
ATOM      6  C   UNL     1       5.984  -3.407  24.228  0.00  0.00    +0.080 C 
ATOM      7  N   UNL     1       7.066  -3.532  25.223  0.00  0.00    -0.283 N 
ATOM      8  C   UNL     1       8.090  -2.618  25.470  0.00  0.00    +0.233 C 
ATOM      9  O   UNL     1       8.669  -2.651  26.565  0.00  0.00    -0.274 OA
ATOM     10  CA  UNL     1       6.545  -4.389  26.340  0.00  0.00    +0.185 C 
ATOM     11  C   UNL     1       5.302  -5.093  25.738  0.00  0.00    +0.039 C 
ENDROOT
BRANCH   8  12
ATOM     12  CA  UNL     1       8.654  -1.725  24.328  0.00  0.00    +0.138 C 
ATOM     13  CB  UNL     1      10.030  -2.235  23.870  0.00  0.00    +0.034 C 
BRANCH  12  14
ATOM     14  N   UNL     1       8.617  -0.307  24.716  0.00  0.00    -0.294 NA
ATOM     15  H   UNL     1       9.572  -0.010  24.939  0.00  0.00    +0.123 HD
BRANCH  14  16
ATOM     16  C   UNL     1       8.064   0.614  23.684  0.00  0.00    +0.164 C 
BRANCH  16  17
ATOM     17  C   UNL     1       6.588   0.873  24.030  0.00  0.00    +0.324 C 
ATOM     18  O   UNL     1       5.911   0.213  24.821  0.00  0.00    -0.249 OA
BRANCH  17  19
ATOM     19  O   UNL     1       6.117   1.908  23.273  0.00  0.00    -0.464 OA
BRANCH  19  20
ATOM     20  C   UNL     1       6.731   3.170  23.537  0.00  0.00    +0.229 C 
ATOM     21  C   UNL     1       6.959   3.863  22.205  0.00  0.00    +0.048 C 
ENDBRANCH  19  20
ENDBRANCH  17  19
ENDBRANCH  16  17
BRANCH  16  22
ATOM     22  C   UNL     1       8.124   0.083  22.230  0.00  0.00    +0.030 C 
BRANCH  22  23
ATOM     23  C   UNL     1       9.327   0.569  21.407  0.00  0.00    -0.001 C 
ATOM     24  C   UNL     1      10.027   1.738  22.094  0.00  0.00    +0.004 C 
ENDBRANCH  22  23
ENDBRANCH  16  22
ENDBRANCH  14  16
ENDBRANCH  12  14
ENDBRANCH   8  12
BRANCH  10  25
ATOM     25  C   UNL     1       7.419  -5.483  26.984  0.00  0.00    +0.325 C 
ATOM     26  OXT UNL     1       7.149  -6.020  28.052  0.00  0.00    -0.249 OA
BRANCH  25  27
ATOM     27  O   UNL     1       8.520  -5.831  26.278  0.00  0.00    -0.479 OA
ATOM     28  H   UNL     1       8.458  -6.764  26.007  0.00  0.00    +0.295 HD
ENDBRANCH  25  27
ENDBRANCH  10  25
TORSDOF 10
ENDMDL
MODEL 3
REMARK VINA RESULT:      -6.0      2.182      3.613
REMARK  Name = 
REMARK  13 active torsions:
REMARK  status: ('A' for Active; 'I' for Inactive)
REMARK    1  A    between atoms: CA_4  and  C_29
REMARK    2  A    between atoms: C_7  and  CA_9
REMARK    3  A    between atoms: CA_9  and  CB_11
REMARK    4  A    between atoms: CA_9  and  N_12
REMARK    5  A    between atoms: N_12  and  C_13
REMARK    6  A    between atoms: C_13  and  C_15
REMARK    7  A    between atoms: C_13  and  C_18
REMARK    8  A    between atoms: C_15  and  C_16
REMARK    9  A    between atoms: C_16  and  C_17
REMARK   10  A    between atoms: C_18  and  O_20
REMARK   11  A    between atoms: O_20  and  C_21
REMARK   12  A    between atoms: C_21  and  C_22
REMARK   13  A    between atoms: C_29  and  O_30
REMARK                            x       y       z     vdW  Elec       q    Type
REMARK                         _______ _______ _______ _____ _____    ______ ____
ROOT
ATOM      1  C   UNL     1       5.805  -5.088  24.060  0.00  0.00    +0.012 C 
ATOM      2  C   UNL     1       6.527  -5.944  22.992  0.00  0.00    +0.005 C 
ATOM      3  C   UNL     1       6.230  -5.529  21.546  0.00  0.00    +0.000 C 
ATOM      4  C   UNL     1       6.336  -4.028  21.344  0.00  0.00    +0.002 C 
ATOM      5  C   UNL     1       5.495  -3.308  22.387  0.00  0.00    +0.023 C 
ATOM      6  C   UNL     1       5.966  -3.591  23.798  0.00  0.00    +0.080 C 
ATOM      7  N   UNL     1       7.354  -3.349  24.231  0.00  0.00    -0.283 N 
ATOM      8  C   UNL     1       8.112  -2.196  24.022  0.00  0.00    +0.233 C 
ATOM      9  O   UNL     1       9.080  -1.974  24.763  0.00  0.00    -0.274 OA
ATOM     10  CA  UNL     1       7.588  -4.182  25.458  0.00  0.00    +0.185 C 
ATOM     11  C   UNL     1       6.438  -5.221  25.443  0.00  0.00    +0.039 C 
ENDROOT
BRANCH   8  12
ATOM     12  CA  UNL     1       7.895  -1.320  22.754  0.00  0.00    +0.138 C 
ATOM     13  CB  UNL     1       9.078  -1.468  21.785  0.00  0.00    +0.034 C 
BRANCH  12  14
ATOM     14  N   UNL     1       7.574   0.064  23.133  0.00  0.00    -0.294 NA
ATOM     15  H   UNL     1       7.397   0.087  24.143  0.00  0.00    +0.123 HD
BRANCH  14  16
ATOM     16  C   UNL     1       8.630   1.066  22.814  0.00  0.00    +0.164 C 
BRANCH  16  17
ATOM     17  C   UNL     1       8.981   1.805  24.116  0.00  0.00    +0.324 C 
ATOM     18  O   UNL     1       9.901   2.615  24.256  0.00  0.00    -0.249 OA
BRANCH  17  19
ATOM     19  O   UNL     1       8.160   1.376  25.120  0.00  0.00    -0.464 OA
BRANCH  19  20
ATOM     20  C   UNL     1       7.539   2.420  25.872  0.00  0.00    +0.229 C 
ATOM     21  C   UNL     1       6.047   2.365  25.596  0.00  0.00    +0.048 C 
ENDBRANCH  19  20
ENDBRANCH  17  19
ENDBRANCH  16  17
BRANCH  16  22
ATOM     22  C   UNL     1       8.231   2.127  21.758  0.00  0.00    +0.030 C 
BRANCH  22  23
ATOM     23  C   UNL     1       6.936   2.895  22.062  0.00  0.00    -0.001 C 
ATOM     24  C   UNL     1       7.215   4.380  22.275  0.00  0.00    +0.004 C 
ENDBRANCH  22  23
ENDBRANCH  16  22
ENDBRANCH  14  16
ENDBRANCH  12  14
ENDBRANCH   8  12
BRANCH  10  25
ATOM     25  C   UNL     1       8.903  -4.962  25.657  0.00  0.00    +0.325 C 
ATOM     26  OXT UNL     1       9.469  -5.570  24.755  0.00  0.00    -0.249 OA
BRANCH  25  27
ATOM     27  O   UNL     1       9.411  -4.926  26.910  0.00  0.00    -0.479 OA
ATOM     28  H   UNL     1       8.910  -5.529  27.488  0.00  0.00    +0.295 HD
ENDBRANCH  25  27
ENDBRANCH  10  25
TORSDOF 10
ENDMDL
MODEL 4
REMARK VINA RESULT:      -6.0      1.152      1.940
REMARK  Name = 
REMARK  13 active torsions:
REMARK  status: ('A' for Active; 'I' for Inactive)
REMARK    1  A    between atoms: CA_4  and  C_29
REMARK    2  A    between atoms: C_7  and  CA_9
REMARK    3  A    between atoms: CA_9  and  CB_11
REMARK    4  A    between atoms: CA_9  and  N_12
REMARK    5  A    between atoms: N_12  and  C_13
REMARK    6  A    between atoms: C_13  and  C_15
REMARK    7  A    between atoms: C_13  and  C_18
REMARK    8  A    between atoms: C_15  and  C_16
REMARK    9  A    between atoms: C_16  and  C_17
REMARK   10  A    between atoms: C_18  and  O_20
REMARK   11  A    between atoms: O_20  and  C_21
REMARK   12  A    between atoms: C_21  and  C_22
REMARK   13  A    between atoms: C_29  and  O_30
REMARK                            x       y       z     vdW  Elec       q    Type
REMARK                         _______ _______ _______ _____ _____    ______ ____
ROOT
ATOM      1  C   UNL     1       4.567  -4.776  22.998  0.00  0.00    +0.012 C 
ATOM      2  C   UNL     1       5.132  -5.996  22.231  0.00  0.00    +0.005 C 
ATOM      3  C   UNL     1       6.331  -5.674  21.333  0.00  0.00    +0.000 C 
ATOM      4  C   UNL     1       7.372  -4.825  22.043  0.00  0.00    +0.002 C 
ATOM      5  C   UNL     1       6.706  -3.604  22.658  0.00  0.00    +0.023 C 
ATOM      6  C   UNL     1       5.668  -3.978  23.696  0.00  0.00    +0.080 C 
ATOM      7  N   UNL     1       5.982  -4.834  24.855  0.00  0.00    -0.283 N 
ATOM      8  C   UNL     1       7.063  -4.705  25.727  0.00  0.00    +0.233 C 
ATOM      9  O   UNL     1       6.987  -5.217  26.852  0.00  0.00    -0.274 OA
ATOM     10  CA  UNL     1       4.684  -5.398  25.355  0.00  0.00    +0.185 C 
ATOM     11  C   UNL     1       3.693  -5.182  24.183  0.00  0.00    +0.039 C 
ENDROOT
BRANCH   8  12
ATOM     12  CA  UNL     1       8.423  -4.132  25.231  0.00  0.00    +0.138 C 
ATOM     13  CB  UNL     1       9.527  -5.196  25.329  0.00  0.00    +0.034 C 
BRANCH  12  14
ATOM     14  N   UNL     1       8.723  -2.861  25.909  0.00  0.00    -0.294 NA
ATOM     15  H   UNL     1       9.367  -3.056  26.683  0.00  0.00    +0.123 HD
BRANCH  14  16
ATOM     16  C   UNL     1       9.329  -1.813  25.041  0.00  0.00    +0.164 C 
BRANCH  16  17
ATOM     17  C   UNL     1       8.334  -0.644  24.957  0.00  0.00    +0.324 C 
ATOM     18  O   UNL     1       7.227  -0.682  24.415  0.00  0.00    -0.249 OA
BRANCH  17  19
ATOM     19  O   UNL     1       8.893   0.471  25.514  0.00  0.00    -0.464 OA
BRANCH  19  20
ATOM     20  C   UNL     1       8.579   1.695  24.846  0.00  0.00    +0.229 C 
ATOM     21  C   UNL     1       9.823   2.150  24.104  0.00  0.00    +0.048 C 
ENDBRANCH  19  20
ENDBRANCH  17  19
ENDBRANCH  16  17
BRANCH  16  22
ATOM     22  C   UNL     1       9.654  -2.265  23.595  0.00  0.00    +0.030 C 
BRANCH  22  23
ATOM     23  C   UNL     1      10.305  -1.194  22.707  0.00  0.00    -0.001 C 
ATOM     24  C   UNL     1       9.441  -0.890  21.487  0.00  0.00    +0.004 C 
ENDBRANCH  22  23
ENDBRANCH  16  22
ENDBRANCH  14  16
ENDBRANCH  12  14
ENDBRANCH   8  12
BRANCH  10  25
ATOM     25  C   UNL     1       4.565  -6.875  25.783  0.00  0.00    +0.325 C 
ATOM     26  OXT UNL     1       4.166  -7.763  25.038  0.00  0.00    -0.249 OA
BRANCH  25  27
ATOM     27  O   UNL     1       4.947  -7.139  27.054  0.00  0.00    -0.479 OA
ATOM     28  H   UNL     1       5.572  -6.458  27.360  0.00  0.00    +0.295 HD
ENDBRANCH  25  27
ENDBRANCH  10  25
TORSDOF 10
ENDMDL
MODEL 5
REMARK VINA RESULT:      -5.9      1.969      6.830
REMARK  Name = 
REMARK  13 active torsions:
REMARK  status: ('A' for Active; 'I' for Inactive)
REMARK    1  A    between atoms: CA_4  and  C_29
REMARK    2  A    between atoms: C_7  and  CA_9
REMARK    3  A    between atoms: CA_9  and  CB_11
REMARK    4  A    between atoms: CA_9  and  N_12
REMARK    5  A    between atoms: N_12  and  C_13
REMARK    6  A    between atoms: C_13  and  C_15
REMARK    7  A    between atoms: C_13  and  C_18
REMARK    8  A    between atoms: C_15  and  C_16
REMARK    9  A    between atoms: C_16  and  C_17
REMARK   10  A    between atoms: C_18  and  O_20
REMARK   11  A    between atoms: O_20  and  C_21
REMARK   12  A    between atoms: C_21  and  C_22
REMARK   13  A    between atoms: C_29  and  O_30
REMARK                            x       y       z     vdW  Elec       q    Type
REMARK                         _______ _______ _______ _____ _____    ______ ____
ROOT
ATOM      1  C   UNL     1      10.473   0.398  23.343  0.00  0.00    +0.012 C 
ATOM      2  C   UNL     1       9.780   0.759  22.007  0.00  0.00    +0.005 C 
ATOM      3  C   UNL     1       9.454  -0.449  21.122  0.00  0.00    +0.000 C 
ATOM      4  C   UNL     1       8.797  -1.575  21.901  0.00  0.00    +0.002 C 
ATOM      5  C   UNL     1       9.632  -1.906  23.128  0.00  0.00    +0.023 C 
ATOM      6  C   UNL     1       9.751  -0.732  24.076  0.00  0.00    +0.080 C 
ATOM      7  N   UNL     1       8.571  -0.038  24.626  0.00  0.00    -0.283 N 
ATOM      8  C   UNL     1       7.449  -0.624  25.212  0.00  0.00    +0.233 C 
ATOM      9  O   UNL     1       6.746   0.059  25.971  0.00  0.00    -0.274 OA
ATOM     10  CA  UNL     1       9.025   1.320  25.077  0.00  0.00    +0.185 C 
ATOM     11  C   UNL     1      10.389   1.526  24.369  0.00  0.00    +0.039 C 
ENDROOT
BRANCH   8  12
ATOM     12  CA  UNL     1       6.952  -2.026  24.755  0.00  0.00    +0.138 C 
ATOM     13  CB  UNL     1       5.437  -2.007  24.498  0.00  0.00    +0.034 C 
BRANCH  12  14
ATOM     14  N   UNL     1       7.409  -3.064  25.692  0.00  0.00    -0.294 NA
ATOM     15  H   UNL     1       6.949  -2.907  26.594  0.00  0.00    +0.123 HD
BRANCH  14  16
ATOM     16  C   UNL     1       7.139  -4.464  25.260  0.00  0.00    +0.164 C 
BRANCH  16  17
ATOM     17  C   UNL     1       7.125  -5.347  26.519  0.00  0.00    +0.324 C 
ATOM     18  O   UNL     1       7.852  -5.202  27.505  0.00  0.00    -0.249 OA
BRANCH  17  19
ATOM     19  O   UNL     1       6.230  -6.365  26.352  0.00  0.00    -0.464 OA
BRANCH  19  20
ATOM     20  C   UNL     1       4.862  -5.957  26.306  0.00  0.00    +0.229 C 
ATOM     21  C   UNL     1       4.065  -7.077  25.662  0.00  0.00    +0.048 C 
ENDBRANCH  19  20
ENDBRANCH  17  19
ENDBRANCH  16  17
BRANCH  16  22
ATOM     22  C   UNL     1       8.176  -5.059  24.275  0.00  0.00    +0.030 C 
BRANCH  22  23
ATOM     23  C   UNL     1       7.600  -5.542  22.935  0.00  0.00    -0.001 C 
ATOM     24  C   UNL     1       6.103  -5.264  22.848  0.00  0.00    +0.004 C 
ENDBRANCH  22  23
ENDBRANCH  16  22
ENDBRANCH  14  16
ENDBRANCH  12  14
ENDBRANCH   8  12
BRANCH  10  25
ATOM     25  C   UNL     1       8.178   2.579  24.805  0.00  0.00    +0.325 C 
ATOM     26  OXT UNL     1       8.347   3.645  25.386  0.00  0.00    -0.249 OA
BRANCH  25  27
ATOM     27  O   UNL     1       7.222   2.436  23.858  0.00  0.00    -0.479 OA
ATOM     28  H   UNL     1       7.569   1.916  23.112  0.00  0.00    +0.295 HD
ENDBRANCH  25  27
ENDBRANCH  10  25
TORSDOF 10
ENDMDL
MODEL 6
REMARK VINA RESULT:      -5.9      1.970      2.722
REMARK  Name = 
REMARK  13 active torsions:
REMARK  status: ('A' for Active; 'I' for Inactive)
REMARK    1  A    between atoms: CA_4  and  C_29
REMARK    2  A    between atoms: C_7  and  CA_9
REMARK    3  A    between atoms: CA_9  and  CB_11
REMARK    4  A    between atoms: CA_9  and  N_12
REMARK    5  A    between atoms: N_12  and  C_13
REMARK    6  A    between atoms: C_13  and  C_15
REMARK    7  A    between atoms: C_13  and  C_18
REMARK    8  A    between atoms: C_15  and  C_16
REMARK    9  A    between atoms: C_16  and  C_17
REMARK   10  A    between atoms: C_18  and  O_20
REMARK   11  A    between atoms: O_20  and  C_21
REMARK   12  A    between atoms: C_21  and  C_22
REMARK   13  A    between atoms: C_29  and  O_30
REMARK                            x       y       z     vdW  Elec       q    Type
REMARK                         _______ _______ _______ _____ _____    ______ ____
ROOT
ATOM      1  C   UNL     1       5.061  -4.704  24.400  0.00  0.00    +0.012 C 
ATOM      2  C   UNL     1       5.805  -5.925  23.806  0.00  0.00    +0.005 C 
ATOM      3  C   UNL     1       6.255  -5.740  22.352  0.00  0.00    +0.000 C 
ATOM      4  C   UNL     1       6.934  -4.402  22.123  0.00  0.00    +0.002 C 
ATOM      5  C   UNL     1       6.052  -3.281  22.652  0.00  0.00    +0.023 C 
ATOM      6  C   UNL     1       5.809  -3.397  24.142  0.00  0.00    +0.080 C 
ATOM      7  N   UNL     1       6.910  -3.473  25.119  0.00  0.00    -0.283 N 
ATOM      8  C   UNL     1       8.032  -2.646  25.189  0.00  0.00    +0.233 C 
ATOM      9  O   UNL     1       8.647  -2.562  26.261  0.00  0.00    -0.274 OA
ATOM     10  CA  UNL     1       6.349  -4.076  26.375  0.00  0.00    +0.185 C 
ATOM     11  C   UNL     1       5.018  -4.731  25.926  0.00  0.00    +0.039 C 
ENDROOT
BRANCH   8  12
ATOM     12  CA  UNL     1       8.638  -2.017  23.901  0.00  0.00    +0.138 C 
ATOM     13  CB  UNL     1      10.041  -2.583  23.630  0.00  0.00    +0.034 C 
BRANCH  12  14
ATOM     14  N   UNL     1       8.563  -0.549  23.961  0.00  0.00    -0.294 NA
ATOM     15  H   UNL     1       8.939  -0.245  24.865  0.00  0.00    +0.123 HD
BRANCH  14  16
ATOM     16  C   UNL     1       9.298   0.164  22.879  0.00  0.00    +0.164 C 
BRANCH  16  17
ATOM     17  C   UNL     1      10.302   1.118  23.546  0.00  0.00    +0.324 C 
ATOM     18  O   UNL     1      10.898   0.906  24.605  0.00  0.00    -0.249 OA
BRANCH  17  19
ATOM     19  O   UNL     1      10.384   2.273  22.822  0.00  0.00    -0.464 OA
BRANCH  19  20
ATOM     20  C   UNL     1      10.887   3.398  23.546  0.00  0.00    +0.229 C 
ATOM     21  C   UNL     1       9.718   4.321  23.840  0.00  0.00    +0.048 C 
ENDBRANCH  19  20
ENDBRANCH  17  19
ENDBRANCH  16  17
BRANCH  16  22
ATOM     22  C   UNL     1       8.411   1.000  21.923  0.00  0.00    +0.030 C 
BRANCH  22  23
ATOM     23  C   UNL     1       6.996   1.300  22.442  0.00  0.00    -0.001 C 
ATOM     24  C   UNL     1       6.646   2.774  22.264  0.00  0.00    +0.004 C 
ENDBRANCH  22  23
ENDBRANCH  16  22
ENDBRANCH  14  16
ENDBRANCH  12  14
ENDBRANCH   8  12
BRANCH  10  25
ATOM     25  C   UNL     1       7.132  -5.138  27.172  0.00  0.00    +0.325 C 
ATOM     26  OXT UNL     1       6.831  -5.487  28.308  0.00  0.00    -0.249 OA
BRANCH  25  27
ATOM     27  O   UNL     1       8.188  -5.682  26.524  0.00  0.00    -0.479 OA
ATOM     28  H   UNL     1       8.075  -5.580  25.563  0.00  0.00    +0.295 HD
ENDBRANCH  25  27
ENDBRANCH  10  25
TORSDOF 10
ENDMDL
MODEL 7
REMARK VINA RESULT:      -5.7      2.354      3.931
REMARK  Name = 
REMARK  13 active torsions:
REMARK  status: ('A' for Active; 'I' for Inactive)
REMARK    1  A    between atoms: CA_4  and  C_29
REMARK    2  A    between atoms: C_7  and  CA_9
REMARK    3  A    between atoms: CA_9  and  CB_11
REMARK    4  A    between atoms: CA_9  and  N_12
REMARK    5  A    between atoms: N_12  and  C_13
REMARK    6  A    between atoms: C_13  and  C_15
REMARK    7  A    between atoms: C_13  and  C_18
REMARK    8  A    between atoms: C_15  and  C_16
REMARK    9  A    between atoms: C_16  and  C_17
REMARK   10  A    between atoms: C_18  and  O_20
REMARK   11  A    between atoms: O_20  and  C_21
REMARK   12  A    between atoms: C_21  and  C_22
REMARK   13  A    between atoms: C_29  and  O_30
REMARK                            x       y       z     vdW  Elec       q    Type
REMARK                         _______ _______ _______ _____ _____    ______ ____
ROOT
ATOM      1  C   UNL     1       7.717  -4.933  24.606  0.00  0.00    +0.012 C 
ATOM      2  C   UNL     1       6.359  -5.337  25.230  0.00  0.00    +0.005 C 
ATOM      3  C   UNL     1       6.200  -4.941  26.703  0.00  0.00    +0.000 C 
ATOM      4  C   UNL     1       6.625  -3.506  26.964  0.00  0.00    +0.002 C 
ATOM      5  C   UNL     1       8.018  -3.272  26.399  0.00  0.00    +0.023 C 
ATOM      6  C   UNL     1       8.071  -3.476  24.900  0.00  0.00    +0.080 C 
ATOM      7  N   UNL     1       7.184  -2.750  23.972  0.00  0.00    -0.283 N 
ATOM      8  C   UNL     1       6.927  -1.379  23.953  0.00  0.00    +0.233 C 
ATOM      9  O   UNL     1       6.502  -0.865  22.909  0.00  0.00    -0.274 OA
ATOM     10  CA  UNL     1       7.144  -3.534  22.692  0.00  0.00    +0.185 C 
ATOM     11  C   UNL     1       7.683  -4.934  23.080  0.00  0.00    +0.039 C 
ENDROOT
BRANCH   8  12
ATOM     12  CA  UNL     1       6.953  -0.546  25.267  0.00  0.00    +0.138 C 
ATOM     13  CB  UNL     1       5.746   0.403  25.331  0.00  0.00    +0.034 C 
BRANCH  12  14
ATOM     14  N   UNL     1       8.262   0.103  25.440  0.00  0.00    -0.294 NA
ATOM     15  H   UNL     1       8.971  -0.629  25.546  0.00  0.00    +0.123 HD
BRANCH  14  16
ATOM     16  C   UNL     1       8.672   1.001  24.323  0.00  0.00    +0.164 C 
BRANCH  16  17
ATOM     17  C   UNL     1      10.157   0.732  24.028  0.00  0.00    +0.324 C 
ATOM     18  O   UNL     1      11.027   0.512  24.874  0.00  0.00    -0.249 OA
BRANCH  17  19
ATOM     19  O   UNL     1      10.383   0.844  22.686  0.00  0.00    -0.464 OA
BRANCH  19  20
ATOM     20  C   UNL     1       9.728  -0.142  21.885  0.00  0.00    +0.229 C 
ATOM     21  C   UNL     1      10.244  -1.504  22.313  0.00  0.00    +0.048 C 
ENDBRANCH  19  20
ENDBRANCH  17  19
ENDBRANCH  16  17
BRANCH  16  22
ATOM     22  C   UNL     1       8.510   2.515  24.605  0.00  0.00    +0.030 C 
BRANCH  22  23
ATOM     23  C   UNL     1       8.102   3.365  23.391  0.00  0.00    -0.001 C 
ATOM     24  C   UNL     1       7.170   2.590  22.466  0.00  0.00    +0.004 C 
ENDBRANCH  22  23
ENDBRANCH  16  22
ENDBRANCH  14  16
ENDBRANCH  12  14
ENDBRANCH   8  12
BRANCH  10  25
ATOM     25  C   UNL     1       5.823  -3.751  21.927  0.00  0.00    +0.325 C 
ATOM     26  OXT UNL     1       5.760  -3.866  20.708  0.00  0.00    -0.249 OA
BRANCH  25  27
ATOM     27  O   UNL     1       4.715  -3.820  22.700  0.00  0.00    -0.479 OA
ATOM     28  H   UNL     1       3.960  -4.133  22.170  0.00  0.00    +0.295 HD
ENDBRANCH  25  27
ENDBRANCH  10  25
TORSDOF 10
ENDMDL
MODEL 8
REMARK VINA RESULT:      -5.6      2.315      3.582
REMARK  Name = 
REMARK  13 active torsions:
REMARK  status: ('A' for Active; 'I' for Inactive)
REMARK    1  A    between atoms: CA_4  and  C_29
REMARK    2  A    between atoms: C_7  and  CA_9
REMARK    3  A    between atoms: CA_9  and  CB_11
REMARK    4  A    between atoms: CA_9  and  N_12
REMARK    5  A    between atoms: N_12  and  C_13
REMARK    6  A    between atoms: C_13  and  C_15
REMARK    7  A    between atoms: C_13  and  C_18
REMARK    8  A    between atoms: C_15  and  C_16
REMARK    9  A    between atoms: C_16  and  C_17
REMARK   10  A    between atoms: C_18  and  O_20
REMARK   11  A    between atoms: O_20  and  C_21
REMARK   12  A    between atoms: C_21  and  C_22
REMARK   13  A    between atoms: C_29  and  O_30
REMARK                            x       y       z     vdW  Elec       q    Type
REMARK                         _______ _______ _______ _____ _____    ______ ____
ROOT
ATOM      1  C   UNL     1       5.125  -6.383  26.060  0.00  0.00    +0.012 C 
ATOM      2  C   UNL     1       4.139  -5.571  26.936  0.00  0.00    +0.005 C 
ATOM      3  C   UNL     1       4.812  -4.547  27.856  0.00  0.00    +0.000 C 
ATOM      4  C   UNL     1       5.857  -3.718  27.130  0.00  0.00    +0.002 C 
ATOM      5  C   UNL     1       6.827  -4.636  26.402  0.00  0.00    +0.023 C 
ATOM      6  C   UNL     1       6.137  -5.482  25.353  0.00  0.00    +0.080 C 
ATOM      7  N   UNL     1       5.324  -4.894  24.272  0.00  0.00    -0.283 N 
ATOM      8  C   UNL     1       5.676  -3.833  23.438  0.00  0.00    +0.233 C 
ATOM      9  O   UNL     1       5.096  -3.711  22.350  0.00  0.00    -0.274 OA
ATOM     10  CA  UNL     1       4.416  -5.975  23.762  0.00  0.00    +0.185 C 
ATOM     11  C   UNL     1       4.438  -7.055  24.874  0.00  0.00    +0.039 C 
ENDROOT
BRANCH   8  12
ATOM     12  CA  UNL     1       6.608  -2.695  23.946  0.00  0.00    +0.138 C 
ATOM     13  CB  UNL     1       5.790  -1.448  24.315  0.00  0.00    +0.034 C 
BRANCH  12  14
ATOM     14  N   UNL     1       7.701  -2.460  22.989  0.00  0.00    -0.294 NA
ATOM     15  H   UNL     1       7.287  -2.262  22.073  0.00  0.00    +0.123 HD
BRANCH  14  16
ATOM     16  C   UNL     1       8.619  -1.341  23.346  0.00  0.00    +0.164 C 
BRANCH  16  17
ATOM     17  C   UNL     1       9.668  -1.224  22.228  0.00  0.00    +0.324 C 
ATOM     18  O   UNL     1      10.711  -1.876  22.152  0.00  0.00    -0.249 OA
BRANCH  17  19
ATOM     19  O   UNL     1       9.302  -0.232  21.362  0.00  0.00    -0.464 OA
BRANCH  19  20
ATOM     20  C   UNL     1       9.584   1.093  21.818  0.00  0.00    +0.229 C 
ATOM     21  C   UNL     1       8.308   1.906  21.696  0.00  0.00    +0.048 C 
ENDBRANCH  19  20
ENDBRANCH  17  19
ENDBRANCH  16  17
BRANCH  16  22
ATOM     22  C   UNL     1       9.373  -1.513  24.688  0.00  0.00    +0.030 C 
BRANCH  22  23
ATOM     23  C   UNL     1       9.219  -0.347  25.677  0.00  0.00    -0.001 C 
ATOM     24  C   UNL     1       8.553  -0.807  26.970  0.00  0.00    +0.004 C 
ENDBRANCH  22  23
ENDBRANCH  16  22
ENDBRANCH  14  16
ENDBRANCH  12  14
ENDBRANCH   8  12
BRANCH  10  25
ATOM     25  C   UNL     1       2.937  -5.689  23.436  0.00  0.00    +0.325 C 
ATOM     26  OXT UNL     1       2.230  -6.451  22.784  0.00  0.00    -0.249 OA
BRANCH  25  27
ATOM     27  O   UNL     1       2.451  -4.528  23.932  0.00  0.00    -0.479 OA
ATOM     28  H   UNL     1       1.488  -4.601  24.061  0.00  0.00    +0.295 HD
ENDBRANCH  25  27
ENDBRANCH  10  25
TORSDOF 10
ENDMDL
MODEL 9
REMARK VINA RESULT:      -5.5      2.323      7.042
REMARK  Name = 
REMARK  13 active torsions:
REMARK  status: ('A' for Active; 'I' for Inactive)
REMARK    1  A    between atoms: CA_4  and  C_29
REMARK    2  A    between atoms: C_7  and  CA_9
REMARK    3  A    between atoms: CA_9  and  CB_11
REMARK    4  A    between atoms: CA_9  and  N_12
REMARK    5  A    between atoms: N_12  and  C_13
REMARK    6  A    between atoms: C_13  and  C_15
REMARK    7  A    between atoms: C_13  and  C_18
REMARK    8  A    between atoms: C_15  and  C_16
REMARK    9  A    between atoms: C_16  and  C_17
REMARK   10  A    between atoms: C_18  and  O_20
REMARK   11  A    between atoms: O_20  and  C_21
REMARK   12  A    between atoms: C_21  and  C_22
REMARK   13  A    between atoms: C_29  and  O_30
REMARK                            x       y       z     vdW  Elec       q    Type
REMARK                         _______ _______ _______ _____ _____    ______ ____
ROOT
ATOM      1  C   UNL     1       6.341   1.395  24.627  0.00  0.00    +0.012 C 
ATOM      2  C   UNL     1       7.340   1.622  25.788  0.00  0.00    +0.005 C 
ATOM      3  C   UNL     1       7.372   0.491  26.822  0.00  0.00    +0.000 C 
ATOM      4  C   UNL     1       7.443  -0.881  26.174  0.00  0.00    +0.002 C 
ATOM      5  C   UNL     1       6.342  -1.015  25.133  0.00  0.00    +0.023 C 
ATOM      6  C   UNL     1       6.480   0.000  24.018  0.00  0.00    +0.080 C 
ATOM      7  N   UNL     1       7.711   0.134  23.219  0.00  0.00    -0.283 N 
ATOM      8  C   UNL     1       8.435  -0.893  22.611  0.00  0.00    +0.233 C 
ATOM      9  O   UNL     1       9.187  -0.616  21.666  0.00  0.00    -0.274 OA
ATOM     10  CA  UNL     1       7.692   1.501  22.598  0.00  0.00    +0.185 C 
ATOM     11  C   UNL     1       6.635   2.282  23.420  0.00  0.00    +0.039 C 
ENDROOT
BRANCH   8  12
ATOM     12  CA  UNL     1       8.479  -2.316  23.238  0.00  0.00    +0.138 C 
ATOM     13  CB  UNL     1       9.896  -2.647  23.733  0.00  0.00    +0.034 C 
BRANCH  12  14
ATOM     14  N   UNL     1       7.897  -3.304  22.316  0.00  0.00    -0.294 NA
ATOM     15  H   UNL     1       8.608  -3.548  21.619  0.00  0.00    +0.123 HD
BRANCH  14  16
ATOM     16  C   UNL     1       7.414  -4.558  22.960  0.00  0.00    +0.164 C 
BRANCH  16  17
ATOM     17  C   UNL     1       6.281  -5.124  22.088  0.00  0.00    +0.324 C 
ATOM     18  O   UNL     1       5.941  -4.691  20.985  0.00  0.00    -0.249 OA
BRANCH  17  19
ATOM     19  O   UNL     1       5.657  -6.141  22.754  0.00  0.00    -0.464 OA
BRANCH  19  20
ATOM     20  C   UNL     1       4.265  -5.932  22.995  0.00  0.00    +0.229 C 
ATOM     21  C   UNL     1       3.870  -6.774  24.195  0.00  0.00    +0.048 C 
ENDBRANCH  19  20
ENDBRANCH  17  19
ENDBRANCH  16  17
BRANCH  16  22
ATOM     22  C   UNL     1       6.867  -4.388  24.399  0.00  0.00    +0.030 C 
BRANCH  22  23
ATOM     23  C   UNL     1       7.646  -5.144  25.487  0.00  0.00    -0.001 C 
ATOM     24  C   UNL     1       6.738  -5.516  26.655  0.00  0.00    +0.004 C 
ENDBRANCH  22  23
ENDBRANCH  16  22
ENDBRANCH  14  16
ENDBRANCH  12  14
ENDBRANCH   8  12
BRANCH  10  25
ATOM     25  C   UNL     1       8.961   2.373  22.545  0.00  0.00    +0.325 C 
ATOM     26  OXT UNL     1       9.241   3.210  23.397  0.00  0.00    -0.249 OA
BRANCH  25  27
ATOM     27  O   UNL     1       9.772   2.149  21.485  0.00  0.00    -0.479 OA
ATOM     28  H   UNL     1       9.279   2.286  20.657  0.00  0.00    +0.295 HD
ENDBRANCH  25  27
ENDBRANCH  10  25
TORSDOF 10
ENDMDL
