MODEL 1
REMARK VINA RESULT:      -7.6      0.000      0.000
REMARK  Name = 
REMARK  15 active torsions:
REMARK  status: ('A' for Active; 'I' for Inactive)
REMARK    1  A    between atoms: N_1  and  C_2
REMARK    2  A    between atoms: C_2  and  C_4
REMARK    3  A    between atoms: C_2  and  C_37
REMARK    4  A    between atoms: C_4  and  C_5
REMARK    5  A    between atoms: C_5  and  C_6
REMARK    6  A    between atoms: N_8  and  C_9
REMARK    7  A    between atoms: C_9  and  C_11
REMARK    8  A    between atoms: C_9  and  C_30
REMARK    9  A    between atoms: C_11  and  S_12
REMARK   10  A    between atoms: S_12  and  C_13
REMARK   11  A    between atoms: C_15  and  O_17
REMARK   12  A    between atoms: N_32  and  CA_33
REMARK   13  A    between atoms: CA_33  and  C_34
REMARK   14  A    between atoms: C_34  and  O_35
REMARK   15  A    between atoms: C_37  and  O_38
REMARK                            x       y       z     vdW  Elec       q    Type
REMARK                         _______ _______ _______ _____ _____    ______ ____
ROOT
ATOM      1  C   UNK A   1       9.226  -1.597  24.279  0.00  0.00    +0.169 C 
ENDROOT
BRANCH   1   3
ATOM      2  C   UNK A   1       9.189  -3.861  25.351  0.00  0.00    +0.214 C 
ATOM      3  N   UNK A   1       8.837  -2.528  25.346  0.00  0.00    -0.303 N 
ATOM      4  H   UNK A   1       8.616  -2.112  26.242  0.00  0.00    +0.149 HD
ATOM      5  O   UNK A   1       9.802  -4.406  24.440  0.00  0.00    -0.276 OA
BRANCH   2   6
ATOM      6  C   UNK A   1       8.682  -4.605  26.574  0.00  0.00    +0.098 C 
BRANCH   6   7
ATOM      7  C   UNK A   1       7.249  -4.194  26.908  0.00  0.00    +0.039 C 
BRANCH   7   8
ATOM      8  C   UNK A   1       6.399  -5.329  27.484  0.00  0.00    +0.161 C 
BRANCH   8   9
ATOM      9  N   UNK A   1       7.224  -6.316  28.247  0.00  0.00    -0.318 NA
ATOM     10  H   UNK A   1       6.860  -6.375  29.204  0.00  0.00    +0.119 HD
ATOM     11  H   UNK A   1       7.053  -7.243  27.848  0.00  0.00    +0.119 HD
ENDBRANCH   8   9
BRANCH   8  12
ATOM     12  C   UNK A   1       5.688  -6.079  26.339  0.00  0.00    +0.322 C 
ATOM     13  O   UNK A   1       5.665  -5.731  25.170  0.00  0.00    -0.249 OA
BRANCH  12  14
ATOM     14  O   UNK A   1       5.064  -7.197  26.797  0.00  0.00    -0.480 OA
ATOM     15  H   UNK A   1       5.051  -7.822  26.030  0.00  0.00    +0.295 HD
ENDBRANCH  12  14
ENDBRANCH   8  12
ENDBRANCH   7   8
ENDBRANCH   6   7
ENDBRANCH   2   6
ENDBRANCH   1   3
BRANCH   1  16
ATOM     16  C   UNK A   1       8.536  -2.015  22.950  0.00  0.00    +0.235 C 
ATOM     17  N   GLY A   2       7.326  -2.680  23.075  0.00  0.00    -0.303 N 
ATOM     18  H   GLY A   2       7.062  -3.078  23.969  0.00  0.00    +0.149 HD
ATOM     19  O   UNK A   1       8.943  -1.659  21.848  0.00  0.00    -0.274 OA
BRANCH  17  20
ATOM     20  CA  GLY A   2       6.643  -3.224  21.890  0.00  0.00    +0.224 C 
BRANCH  20  21
ATOM     21  C   GLY A   2       6.574  -4.751  21.832  0.00  0.00    +0.322 C 
ATOM     22  OXT GLY A   2       5.920  -5.373  21.004  0.00  0.00    -0.249 OA
BRANCH  21  23
ATOM     23  O   GLY A   2       7.344  -5.365  22.759  0.00  0.00    -0.480 OA
ATOM     24  H   GLY A   2       7.693  -6.198  22.398  0.00  0.00    +0.295 HD
ENDBRANCH  21  23
ENDBRANCH  20  21
ENDBRANCH  17  20
ENDBRANCH   1  16
BRANCH   1  25
ATOM     25  C   UNK A   1       9.054  -0.100  24.614  0.00  0.00    +0.101 C 
BRANCH  25  26
ATOM     26  S   UNK A   1      10.597   0.837  24.260  0.00  0.00    -0.147 S 
BRANCH  26  27
ATOM     27  C   UNK A   1      10.032   1.927  22.863  0.00  0.00    +0.110 C 
ATOM     28  C   UNK A   1      10.306   3.380  23.218  0.00  0.00    -0.024 A 
ATOM     29  C   UNK A   1       9.264   4.320  23.366  0.00  0.00    -0.013 A 
ATOM     30  C   UNK A   1       9.635   5.638  23.717  0.00  0.00    +0.009 A 
ATOM     31  C   UNK A   1      10.968   6.012  23.920  0.00  0.00    +0.001 A 
ATOM     32  C   UNK A   1      11.979   5.079  23.765  0.00  0.00    +0.000 A 
ATOM     33  C   UNK A   1       7.846   3.929  23.155  0.00  0.00    -0.012 A 
ATOM     34  C   UNK A   1       7.523   2.634  22.709  0.00  0.00    -0.010 A 
ATOM     35  C   UNK A   1       6.176   2.263  22.502  0.00  0.00    +0.007 A 
ATOM     36  C   UNK A   1       5.137   3.159  22.729  0.00  0.00    +0.000 A 
ATOM     37  C   UNK A   1       5.435   4.438  23.165  0.00  0.00    +0.001 A 
ATOM     38  C   UNK A   1       6.767   4.813  23.375  0.00  0.00    +0.009 A 
ATOM     39  C   UNK A   1      11.651   3.777  23.408  0.00  0.00    +0.005 A 
ATOM     40  C   UNK A   1       8.585   1.608  22.406  0.00  0.00    +0.162 C 
BRANCH  40  41
ATOM     41  O   UNK A   1       8.578   1.409  20.979  0.00  0.00    -0.386 OA
ATOM     42  H   UNK A   1       7.700   1.664  20.657  0.00  0.00    +0.210 HD
ENDBRANCH  40  41
ENDBRANCH  26  27
ENDBRANCH  25  26
ENDBRANCH   1  25
TORSDOF 15
ENDMDL
MODEL 2
REMARK VINA RESULT:      -7.4      3.350      8.409
REMARK  Name = 
REMARK  15 active torsions:
REMARK  status: ('A' for Active; 'I' for Inactive)
REMARK    1  A    between atoms: N_1  and  C_2
REMARK    2  A    between atoms: C_2  and  C_4
REMARK    3  A    between atoms: C_2  and  C_37
REMARK    4  A    between atoms: C_4  and  C_5
REMARK    5  A    between atoms: C_5  and  C_6
REMARK    6  A    between atoms: N_8  and  C_9
REMARK    7  A    between atoms: C_9  and  C_11
REMARK    8  A    between atoms: C_9  and  C_30
REMARK    9  A    between atoms: C_11  and  S_12
REMARK   10  A    between atoms: S_12  and  C_13
REMARK   11  A    between atoms: C_15  and  O_17
REMARK   12  A    between atoms: N_32  and  CA_33
REMARK   13  A    between atoms: CA_33  and  C_34
REMARK   14  A    between atoms: C_34  and  O_35
REMARK   15  A    between atoms: C_37  and  O_38
REMARK                            x       y       z     vdW  Elec       q    Type
REMARK                         _______ _______ _______ _____ _____    ______ ____
ROOT
ATOM      1  C   UNK A   1       8.618  -0.663  25.989  0.00  0.00    +0.169 C 
ENDROOT
BRANCH   1   3
ATOM      2  C   UNK A   1      10.176   0.140  24.199  0.00  0.00    +0.214 C 
ATOM      3  N   UNK A   1       8.962  -0.386  24.589  0.00  0.00    -0.303 N 
ATOM      4  H   UNK A   1       8.448  -0.908  23.891  0.00  0.00    +0.149 HD
ATOM      5  O   UNK A   1      11.052   0.483  24.985  0.00  0.00    -0.276 OA
BRANCH   2   6
ATOM      6  C   UNK A   1      10.293   0.314  22.696  0.00  0.00    +0.098 C 
BRANCH   6   7
ATOM      7  C   UNK A   1       8.935   0.135  22.018  0.00  0.00    +0.039 C 
BRANCH   7   8
ATOM      8  C   UNK A   1       8.333   1.438  21.487  0.00  0.00    +0.161 C 
BRANCH   8   9
ATOM      9  N   UNK A   1       9.207   2.618  21.774  0.00  0.00    -0.318 NA
ATOM     10  H   UNK A   1       9.108   3.292  21.007  0.00  0.00    +0.119 HD
ATOM     11  H   UNK A   1       8.824   3.100  22.592  0.00  0.00    +0.119 HD
ENDBRANCH   8   9
BRANCH   8  12
ATOM     12  C   UNK A   1       6.960   1.684  22.145  0.00  0.00    +0.322 C 
ATOM     13  O   UNK A   1       6.367   2.750  22.171  0.00  0.00    -0.249 OA
BRANCH  12  14
ATOM     14  O   UNK A   1       6.480   0.548  22.718  0.00  0.00    -0.480 OA
ATOM     15  H   UNK A   1       5.782   0.218  22.098  0.00  0.00    +0.295 HD
ENDBRANCH  12  14
ENDBRANCH   8  12
ENDBRANCH   7   8
ENDBRANCH   6   7
ENDBRANCH   2   6
ENDBRANCH   1   3
BRANCH   1  16
ATOM     16  C   UNK A   1       7.474   0.287  26.440  0.00  0.00    +0.235 C 
ATOM     17  N   GLY A   2       6.980   1.148  25.472  0.00  0.00    -0.303 N 
ATOM     18  H   GLY A   2       7.512   1.307  24.623  0.00  0.00    +0.149 HD
ATOM     19  O   UNK A   1       6.925   0.196  27.534  0.00  0.00    -0.274 OA
BRANCH  17  20
ATOM     20  CA  GLY A   2       5.979   2.169  25.817  0.00  0.00    +0.224 C 
BRANCH  20  21
ATOM     21  C   GLY A   2       4.546   1.829  25.404  0.00  0.00    +0.322 C 
ATOM     22  OXT GLY A   2       3.714   1.346  26.163  0.00  0.00    -0.249 OA
BRANCH  21  23
ATOM     23  O   GLY A   2       4.258   2.155  24.123  0.00  0.00    -0.480 OA
ATOM     24  H   GLY A   2       4.716   2.979  23.882  0.00  0.00    +0.295 HD
ENDBRANCH  21  23
ENDBRANCH  20  21
ENDBRANCH  17  20
ENDBRANCH   1  16
BRANCH   1  25
ATOM     25  C   UNK A   1       8.350  -2.147  26.321  0.00  0.00    +0.101 C 
BRANCH  25  26
ATOM     26  S   UNK A   1       8.962  -3.246  24.978  0.00  0.00    -0.147 S 
BRANCH  26  27
ATOM     27  C   UNK A   1       8.076  -4.828  25.390  0.00  0.00    +0.110 C 
ATOM     28  C   UNK A   1       7.139  -5.188  24.247  0.00  0.00    -0.024 A 
ATOM     29  C   UNK A   1       5.739  -5.248  24.422  0.00  0.00    -0.013 A 
ATOM     30  C   UNK A   1       4.966  -5.575  23.285  0.00  0.00    +0.009 A 
ATOM     31  C   UNK A   1       5.540  -5.823  22.034  0.00  0.00    +0.001 A 
ATOM     32  C   UNK A   1       6.914  -5.768  21.881  0.00  0.00    +0.000 A 
ATOM     33  C   UNK A   1       5.123  -4.982  25.747  0.00  0.00    -0.012 A 
ATOM     34  C   UNK A   1       5.930  -4.759  26.877  0.00  0.00    -0.010 A 
ATOM     35  C   UNK A   1       5.346  -4.513  28.139  0.00  0.00    +0.007 A 
ATOM     36  C   UNK A   1       3.965  -4.484  28.302  0.00  0.00    +0.000 A 
ATOM     37  C   UNK A   1       3.153  -4.704  27.202  0.00  0.00    +0.001 A 
ATOM     38  C   UNK A   1       3.725  -4.947  25.948  0.00  0.00    +0.009 A 
ATOM     39  C   UNK A   1       7.707  -5.461  22.980  0.00  0.00    +0.005 A 
ATOM     40  C   UNK A   1       7.436  -4.803  26.802  0.00  0.00    +0.162 C 
BRANCH  40  41
ATOM     41  O   UNK A   1       7.856  -5.976  27.526  0.00  0.00    -0.386 OA
ATOM     42  H   UNK A   1       8.447  -5.680  28.234  0.00  0.00    +0.210 HD
ENDBRANCH  40  41
ENDBRANCH  26  27
ENDBRANCH  25  26
ENDBRANCH   1  25
TORSDOF 15
ENDMDL
MODEL 3
REMARK VINA RESULT:      -7.4      2.867      4.235
REMARK  Name = 
REMARK  15 active torsions:
REMARK  status: ('A' for Active; 'I' for Inactive)
REMARK    1  A    between atoms: N_1  and  C_2
REMARK    2  A    between atoms: C_2  and  C_4
REMARK    3  A    between atoms: C_2  and  C_37
REMARK    4  A    between atoms: C_4  and  C_5
REMARK    5  A    between atoms: C_5  and  C_6
REMARK    6  A    between atoms: N_8  and  C_9
REMARK    7  A    between atoms: C_9  and  C_11
REMARK    8  A    between atoms: C_9  and  C_30
REMARK    9  A    between atoms: C_11  and  S_12
REMARK   10  A    between atoms: S_12  and  C_13
REMARK   11  A    between atoms: C_15  and  O_17
REMARK   12  A    between atoms: N_32  and  CA_33
REMARK   13  A    between atoms: CA_33  and  C_34
REMARK   14  A    between atoms: C_34  and  O_35
REMARK   15  A    between atoms: C_37  and  O_38
REMARK                            x       y       z     vdW  Elec       q    Type
REMARK                         _______ _______ _______ _____ _____    ______ ____
ROOT
ATOM      1  C   UNK A   1       7.957  -4.196  25.702  0.00  0.00    +0.169 C 
ENDROOT
BRANCH   1   3
ATOM      2  C   UNK A   1       6.425  -5.452  27.236  0.00  0.00    +0.214 C 
ATOM      3  N   UNK A   1       6.628  -4.653  26.130  0.00  0.00    -0.303 N 
ATOM      4  H   UNK A   1       5.843  -4.094  25.822  0.00  0.00    +0.149 HD
ATOM      5  O   UNK A   1       7.332  -5.905  27.923  0.00  0.00    -0.276 OA
BRANCH   2   6
ATOM      6  C   UNK A   1       4.960  -5.769  27.477  0.00  0.00    +0.098 C 
BRANCH   6   7
ATOM      7  C   UNK A   1       4.582  -7.114  26.859  0.00  0.00    +0.039 C 
BRANCH   7   8
ATOM      8  C   UNK A   1       3.540  -7.011  25.744  0.00  0.00    +0.161 C 
BRANCH   8   9
ATOM      9  N   UNK A   1       2.964  -8.346  25.389  0.00  0.00    -0.318 NA
ATOM     10  H   UNK A   1       3.551  -9.076  25.806  0.00  0.00    +0.119 HD
ATOM     11  H   UNK A   1       2.063  -8.436  25.867  0.00  0.00    +0.119 HD
ENDBRANCH   8   9
BRANCH   8  12
ATOM     12  C   UNK A   1       4.188  -6.415  24.478  0.00  0.00    +0.322 C 
ATOM     13  O   UNK A   1       4.212  -5.231  24.184  0.00  0.00    -0.249 OA
BRANCH  12  14
ATOM     14  O   UNK A   1       4.736  -7.388  23.702  0.00  0.00    -0.480 OA
ATOM     15  H   UNK A   1       5.057  -6.924  22.889  0.00  0.00    +0.295 HD
ENDBRANCH  12  14
ENDBRANCH   8  12
ENDBRANCH   7   8
ENDBRANCH   6   7
ENDBRANCH   2   6
ENDBRANCH   1   3
BRANCH   1  16
ATOM     16  C   UNK A   1       8.049  -4.250  24.152  0.00  0.00    +0.235 C 
ATOM     17  N   GLY A   2       7.296  -5.236  23.530  0.00  0.00    -0.303 N 
ATOM     18  H   GLY A   2       6.931  -6.007  24.077  0.00  0.00    +0.149 HD
ATOM     19  O   UNK A   1       8.626  -3.393  23.488  0.00  0.00    -0.274 OA
BRANCH  17  20
ATOM     20  CA  GLY A   2       7.398  -5.453  22.079  0.00  0.00    +0.224 C 
BRANCH  20  21
ATOM     21  C   GLY A   2       6.110  -5.187  21.297  0.00  0.00    +0.322 C 
ATOM     22  OXT GLY A   2       5.783  -4.085  20.877  0.00  0.00    -0.249 OA
BRANCH  21  23
ATOM     23  O   GLY A   2       5.375  -6.299  21.067  0.00  0.00    -0.480 OA
ATOM     24  H   GLY A   2       5.042  -6.654  21.910  0.00  0.00    +0.295 HD
ENDBRANCH  21  23
ENDBRANCH  20  21
ENDBRANCH  17  20
ENDBRANCH   1  16
BRANCH   1  25
ATOM     25  C   UNK A   1       8.413  -2.847  26.297  0.00  0.00    +0.101 C 
BRANCH  25  26
ATOM     26  S   UNK A   1       6.978  -1.733  26.587  0.00  0.00    -0.147 S 
BRANCH  26  27
ATOM     27  C   UNK A   1       7.728  -0.082  26.177  0.00  0.00    +0.110 C 
ATOM     28  C   UNK A   1       6.627   0.878  25.754  0.00  0.00    -0.024 A 
ATOM     29  C   UNK A   1       6.578   1.431  24.456  0.00  0.00    -0.013 A 
ATOM     30  C   UNK A   1       5.498   2.295  24.169  0.00  0.00    +0.009 A 
ATOM     31  C   UNK A   1       4.508   2.597  25.111  0.00  0.00    +0.001 A 
ATOM     32  C   UNK A   1       4.575   2.053  26.381  0.00  0.00    +0.000 A 
ATOM     33  C   UNK A   1       7.624   1.112  23.451  0.00  0.00    -0.012 A 
ATOM     34  C   UNK A   1       8.737   0.327  23.804  0.00  0.00    -0.010 A 
ATOM     35  C   UNK A   1       9.736   0.029  22.850  0.00  0.00    +0.007 A 
ATOM     36  C   UNK A   1       9.650   0.498  21.544  0.00  0.00    +0.000 A 
ATOM     37  C   UNK A   1       8.564   1.274  21.178  0.00  0.00    +0.001 A 
ATOM     38  C   UNK A   1       7.569   1.573  22.117  0.00  0.00    +0.009 A 
ATOM     39  C   UNK A   1       5.629   1.207  26.702  0.00  0.00    +0.005 A 
ATOM     40  C   UNK A   1       8.930  -0.197  25.204  0.00  0.00    +0.162 C 
BRANCH  40  41
ATOM     41  O   UNK A   1      10.055   0.509  25.764  0.00  0.00    -0.386 OA
ATOM     42  H   UNK A   1       9.704   1.143  26.407  0.00  0.00    +0.210 HD
ENDBRANCH  40  41
ENDBRANCH  26  27
ENDBRANCH  25  26
ENDBRANCH   1  25
TORSDOF 15
ENDMDL
MODEL 4
REMARK VINA RESULT:      -7.4      2.707      4.413
REMARK  Name = 
REMARK  15 active torsions:
REMARK  status: ('A' for Active; 'I' for Inactive)
REMARK    1  A    between atoms: N_1  and  C_2
REMARK    2  A    between atoms: C_2  and  C_4
REMARK    3  A    between atoms: C_2  and  C_37
REMARK    4  A    between atoms: C_4  and  C_5
REMARK    5  A    between atoms: C_5  and  C_6
REMARK    6  A    between atoms: N_8  and  C_9
REMARK    7  A    between atoms: C_9  and  C_11
REMARK    8  A    between atoms: C_9  and  C_30
REMARK    9  A    between atoms: C_11  and  S_12
REMARK   10  A    between atoms: S_12  and  C_13
REMARK   11  A    between atoms: C_15  and  O_17
REMARK   12  A    between atoms: N_32  and  CA_33
REMARK   13  A    between atoms: CA_33  and  C_34
REMARK   14  A    between atoms: C_34  and  O_35
REMARK   15  A    between atoms: C_37  and  O_38
REMARK                            x       y       z     vdW  Elec       q    Type
REMARK                         _______ _______ _______ _____ _____    ______ ____
ROOT
ATOM      1  C   UNK A   1       6.397  -2.007  23.574  0.00  0.00    +0.169 C 
ENDROOT
BRANCH   1   3
ATOM      2  C   UNK A   1       8.803  -2.705  23.516  0.00  0.00    +0.214 C 
ATOM      3  N   UNK A   1       7.582  -2.651  24.156  0.00  0.00    -0.303 N 
ATOM      4  H   UNK A   1       7.592  -2.741  25.163  0.00  0.00    +0.149 HD
ATOM      5  O   UNK A   1       8.996  -2.279  22.384  0.00  0.00    -0.276 OA
BRANCH   2   6
ATOM      6  C   UNK A   1       9.871  -3.407  24.335  0.00  0.00    +0.098 C 
BRANCH   6   7
ATOM      7  C   UNK A   1       9.429  -3.567  25.789  0.00  0.00    +0.039 C 
BRANCH   7   8
ATOM      8  C   UNK A   1       9.299  -5.024  26.239  0.00  0.00    +0.161 C 
BRANCH   8   9
ATOM      9  N   UNK A   1       9.811  -5.978  25.207  0.00  0.00    -0.318 NA
ATOM     10  H   UNK A   1      10.567  -5.520  24.686  0.00  0.00    +0.119 HD
ATOM     11  H   UNK A   1      10.268  -6.753  25.695  0.00  0.00    +0.119 HD
ENDBRANCH   8   9
BRANCH   8  12
ATOM     12  C   UNK A   1       7.817  -5.355  26.507  0.00  0.00    +0.322 C 
ATOM     13  O   UNK A   1       6.887  -5.104  25.758  0.00  0.00    -0.249 OA
BRANCH  12  14
ATOM     14  O   UNK A   1       7.661  -5.966  27.712  0.00  0.00    -0.480 OA
ATOM     15  H   UNK A   1       6.685  -5.968  27.879  0.00  0.00    +0.295 HD
ENDBRANCH  12  14
ENDBRANCH   8  12
ENDBRANCH   7   8
ENDBRANCH   6   7
ENDBRANCH   2   6
ENDBRANCH   1   3
BRANCH   1  16
ATOM     16  C   UNK A   1       5.462  -3.091  22.970  0.00  0.00    +0.235 C 
ATOM     17  N   GLY A   2       4.690  -3.804  23.876  0.00  0.00    -0.303 N 
ATOM     18  H   GLY A   2       4.925  -3.780  24.862  0.00  0.00    +0.149 HD
ATOM     19  O   UNK A   1       5.289  -3.225  21.762  0.00  0.00    -0.274 OA
BRANCH  17  20
ATOM     20  CA  GLY A   2       3.857  -4.930  23.428  0.00  0.00    +0.224 C 
BRANCH  20  21
ATOM     21  C   GLY A   2       4.600  -6.258  23.273  0.00  0.00    +0.322 C 
ATOM     22  OXT GLY A   2       4.586  -7.149  24.113  0.00  0.00    -0.249 OA
BRANCH  21  23
ATOM     23  O   GLY A   2       5.246  -6.384  22.091  0.00  0.00    -0.480 OA
ATOM     24  H   GLY A   2       5.821  -5.612  21.947  0.00  0.00    +0.295 HD
ENDBRANCH  21  23
ENDBRANCH  20  21
ENDBRANCH  17  20
ENDBRANCH   1  16
BRANCH   1  25
ATOM     25  C   UNK A   1       5.666  -1.013  24.501  0.00  0.00    +0.101 C 
BRANCH  25  26
ATOM     26  S   UNK A   1       5.800  -1.530  26.262  0.00  0.00    -0.147 S 
BRANCH  26  27
ATOM     27  C   UNK A   1       6.912  -0.199  26.933  0.00  0.00    +0.110 C 
ATOM     28  C   UNK A   1       6.330   1.162  26.586  0.00  0.00    -0.024 A 
ATOM     29  C   UNK A   1       7.010   2.073  25.750  0.00  0.00    -0.013 A 
ATOM     30  C   UNK A   1       6.365   3.301  25.481  0.00  0.00    +0.009 A 
ATOM     31  C   UNK A   1       5.105   3.616  26.003  0.00  0.00    +0.001 A 
ATOM     32  C   UNK A   1       4.454   2.715  26.827  0.00  0.00    +0.000 A 
ATOM     33  C   UNK A   1       8.346   1.743  25.189  0.00  0.00    -0.012 A 
ATOM     34  C   UNK A   1       9.001   0.555  25.559  0.00  0.00    -0.010 A 
ATOM     35  C   UNK A   1      10.274   0.243  25.032  0.00  0.00    +0.007 A 
ATOM     36  C   UNK A   1      10.913   1.096  24.138  0.00  0.00    +0.000 A 
ATOM     37  C   UNK A   1      10.287   2.272  23.764  0.00  0.00    +0.001 A 
ATOM     38  C   UNK A   1       9.024   2.586  24.281  0.00  0.00    +0.009 A 
ATOM     39  C   UNK A   1       5.065   1.503  27.123  0.00  0.00    +0.005 A 
ATOM     40  C   UNK A   1       8.398  -0.413  26.546  0.00  0.00    +0.162 C 
BRANCH  40  41
ATOM     41  O   UNK A   1       9.205  -0.350  27.738  0.00  0.00    -0.386 OA
ATOM     42  H   UNK A   1       9.035   0.508  28.155  0.00  0.00    +0.210 HD
ENDBRANCH  40  41
ENDBRANCH  26  27
ENDBRANCH  25  26
ENDBRANCH   1  25
TORSDOF 15
ENDMDL
MODEL 5
REMARK VINA RESULT:      -7.2      2.916      5.121
REMARK  Name = 
REMARK  15 active torsions:
REMARK  status: ('A' for Active; 'I' for Inactive)
REMARK    1  A    between atoms: N_1  and  C_2
REMARK    2  A    between atoms: C_2  and  C_4
REMARK    3  A    between atoms: C_2  and  C_37
REMARK    4  A    between atoms: C_4  and  C_5
REMARK    5  A    between atoms: C_5  and  C_6
REMARK    6  A    between atoms: N_8  and  C_9
REMARK    7  A    between atoms: C_9  and  C_11
REMARK    8  A    between atoms: C_9  and  C_30
REMARK    9  A    between atoms: C_11  and  S_12
REMARK   10  A    between atoms: S_12  and  C_13
REMARK   11  A    between atoms: C_15  and  O_17
REMARK   12  A    between atoms: N_32  and  CA_33
REMARK   13  A    between atoms: CA_33  and  C_34
REMARK   14  A    between atoms: C_34  and  O_35
REMARK   15  A    between atoms: C_37  and  O_38
REMARK                            x       y       z     vdW  Elec       q    Type
REMARK                         _______ _______ _______ _____ _____    ______ ____
ROOT
ATOM      1  C   UNK A   1       5.305  -2.680  25.723  0.00  0.00    +0.169 C 
ENDROOT
BRANCH   1   3
ATOM      2  C   UNK A   1       7.165  -3.911  24.581  0.00  0.00    +0.214 C 
ATOM      3  N   UNK A   1       6.007  -3.163  24.527  0.00  0.00    -0.303 N 
ATOM      4  H   UNK A   1       5.452  -3.245  23.686  0.00  0.00    +0.149 HD
ATOM      5  O   UNK A   1       7.746  -4.189  25.624  0.00  0.00    -0.276 OA
BRANCH   2   6
ATOM      6  C   UNK A   1       7.684  -4.303  23.210  0.00  0.00    +0.098 C 
BRANCH   6   7
ATOM      7  C   UNK A   1       7.093  -5.640  22.763  0.00  0.00    +0.039 C 
BRANCH   7   8
ATOM      8  C   UNK A   1       5.836  -5.504  21.902  0.00  0.00    +0.161 C 
BRANCH   8   9
ATOM      9  N   UNK A   1       5.750  -4.164  21.242  0.00  0.00    -0.318 NA
ATOM     10  H   UNK A   1       5.739  -3.441  21.970  0.00  0.00    +0.119 HD
ATOM     11  H   UNK A   1       6.626  -4.007  20.736  0.00  0.00    +0.119 HD
ENDBRANCH   8   9
BRANCH   8  12
ATOM     12  C   UNK A   1       4.581  -5.689  22.781  0.00  0.00    +0.322 C 
ATOM     13  O   UNK A   1       3.714  -4.851  22.963  0.00  0.00    -0.249 OA
BRANCH  12  14
ATOM     14  O   UNK A   1       4.559  -6.923  23.350  0.00  0.00    -0.480 OA
ATOM     15  H   UNK A   1       5.448  -7.315  23.160  0.00  0.00    +0.295 HD
ENDBRANCH  12  14
ENDBRANCH   8  12
ENDBRANCH   7   8
ENDBRANCH   6   7
ENDBRANCH   2   6
ENDBRANCH   1   3
BRANCH   1  16
ATOM     16  C   UNK A   1       4.905  -3.889  26.613  0.00  0.00    +0.235 C 
ATOM     17  N   GLY A   2       5.535  -3.974  27.845  0.00  0.00    -0.303 N 
ATOM     18  H   GLY A   2       6.371  -3.428  28.019  0.00  0.00    +0.149 HD
ATOM     19  O   UNK A   1       3.984  -4.651  26.328  0.00  0.00    -0.274 OA
BRANCH  17  20
ATOM     20  CA  GLY A   2       5.320  -5.138  28.719  0.00  0.00    +0.224 C 
BRANCH  20  21
ATOM     21  C   GLY A   2       6.254  -6.320  28.456  0.00  0.00    +0.322 C 
ATOM     22  OXT GLY A   2       5.953  -7.488  28.671  0.00  0.00    -0.249 OA
BRANCH  21  23
ATOM     23  O   GLY A   2       7.441  -5.964  27.915  0.00  0.00    -0.480 OA
ATOM     24  H   GLY A   2       7.443  -6.166  26.963  0.00  0.00    +0.295 HD
ENDBRANCH  21  23
ENDBRANCH  20  21
ENDBRANCH  17  20
ENDBRANCH   1  16
BRANCH   1  25
ATOM     25  C   UNK A   1       6.024  -1.557  26.501  0.00  0.00    +0.101 C 
BRANCH  25  26
ATOM     26  S   UNK A   1       5.453   0.102  25.946  0.00  0.00    -0.147 S 
BRANCH  26  27
ATOM     27  C   UNK A   1       7.077   0.915  25.547  0.00  0.00    +0.110 C 
ATOM     28  C   UNK A   1       6.880   1.890  24.397  0.00  0.00    -0.024 A 
ATOM     29  C   UNK A   1       7.528   1.718  23.155  0.00  0.00    -0.013 A 
ATOM     30  C   UNK A   1       7.255   2.675  22.152  0.00  0.00    +0.009 A 
ATOM     31  C   UNK A   1       6.380   3.748  22.358  0.00  0.00    +0.001 A 
ATOM     32  C   UNK A   1       5.758   3.906  23.584  0.00  0.00    +0.000 A 
ATOM     33  C   UNK A   1       8.455   0.579  22.929  0.00  0.00    -0.012 A 
ATOM     34  C   UNK A   1       8.780  -0.296  23.981  0.00  0.00    -0.010 A 
ATOM     35  C   UNK A   1       9.666  -1.375  23.769  0.00  0.00    +0.007 A 
ATOM     36  C   UNK A   1      10.241  -1.602  22.523  0.00  0.00    +0.000 A 
ATOM     37  C   UNK A   1       9.937  -0.750  21.475  0.00  0.00    +0.001 A 
ATOM     38  C   UNK A   1       9.058   0.320  21.678  0.00  0.00    +0.009 A 
ATOM     39  C   UNK A   1       6.013   2.990  24.597  0.00  0.00    +0.005 A 
ATOM     40  C   UNK A   1       8.229  -0.108  25.372  0.00  0.00    +0.162 C 
BRANCH  40  41
ATOM     41  O   UNK A   1       9.335   0.285  26.209  0.00  0.00    -0.386 OA
ATOM     42  H   UNK A   1      10.062  -0.331  26.031  0.00  0.00    +0.210 HD
ENDBRANCH  40  41
ENDBRANCH  26  27
ENDBRANCH  25  26
ENDBRANCH   1  25
TORSDOF 15
ENDMDL
MODEL 6
REMARK VINA RESULT:      -7.0      2.481      4.690
REMARK  Name = 
REMARK  15 active torsions:
REMARK  status: ('A' for Active; 'I' for Inactive)
REMARK    1  A    between atoms: N_1  and  C_2
REMARK    2  A    between atoms: C_2  and  C_4
REMARK    3  A    between atoms: C_2  and  C_37
REMARK    4  A    between atoms: C_4  and  C_5
REMARK    5  A    between atoms: C_5  and  C_6
REMARK    6  A    between atoms: N_8  and  C_9
REMARK    7  A    between atoms: C_9  and  C_11
REMARK    8  A    between atoms: C_9  and  C_30
REMARK    9  A    between atoms: C_11  and  S_12
REMARK   10  A    between atoms: S_12  and  C_13
REMARK   11  A    between atoms: C_15  and  O_17
REMARK   12  A    between atoms: N_32  and  CA_33
REMARK   13  A    between atoms: CA_33  and  C_34
REMARK   14  A    between atoms: C_34  and  O_35
REMARK   15  A    between atoms: C_37  and  O_38
REMARK                            x       y       z     vdW  Elec       q    Type
REMARK                         _______ _______ _______ _____ _____    ______ ____
ROOT
ATOM      1  C   UNK A   1       4.782  -2.615  25.230  0.00  0.00    +0.169 C 
ENDROOT
BRANCH   1   3
ATOM      2  C   UNK A   1       6.128  -3.744  23.444  0.00  0.00    +0.214 C 
ATOM      3  N   UNK A   1       6.040  -3.131  24.676  0.00  0.00    -0.303 N 
ATOM      4  H   UNK A   1       6.890  -2.723  25.043  0.00  0.00    +0.149 HD
ATOM      5  O   UNK A   1       5.160  -3.970  22.727  0.00  0.00    -0.276 OA
BRANCH   2   6
ATOM      6  C   UNK A   1       7.541  -4.171  23.092  0.00  0.00    +0.098 C 
BRANCH   6   7
ATOM      7  C   UNK A   1       8.047  -5.238  24.062  0.00  0.00    +0.039 C 
BRANCH   7   8
ATOM      8  C   UNK A   1       9.007  -4.701  25.126  0.00  0.00    +0.161 C 
BRANCH   8   9
ATOM      9  N   UNK A   1      10.243  -5.537  25.239  0.00  0.00    -0.318 NA
ATOM     10  H   UNK A   1      10.742  -5.505  24.343  0.00  0.00    +0.119 HD
ATOM     11  H   UNK A   1      10.874  -5.076  25.901  0.00  0.00    +0.119 HD
ENDBRANCH   8   9
BRANCH   8  12
ATOM     12  C   UNK A   1       8.307  -4.688  26.500  0.00  0.00    +0.322 C 
ATOM     13  O   UNK A   1       7.847  -3.702  27.052  0.00  0.00    -0.249 OA
BRANCH  12  14
ATOM     14  O   UNK A   1       8.270  -5.934  27.044  0.00  0.00    -0.480 OA
ATOM     15  H   UNK A   1       8.899  -6.474  26.502  0.00  0.00    +0.295 HD
ENDBRANCH  12  14
ENDBRANCH   8  12
ENDBRANCH   7   8
ENDBRANCH   6   7
ENDBRANCH   2   6
ENDBRANCH   1   3
BRANCH   1  16
ATOM     16  C   UNK A   1       4.107  -3.713  26.098  0.00  0.00    +0.235 C 
ATOM     17  N   GLY A   2       4.867  -4.215  27.143  0.00  0.00    -0.303 N 
ATOM     18  H   GLY A   2       5.867  -4.051  27.161  0.00  0.00    +0.149 HD
ATOM     19  O   UNK A   1       2.926  -4.026  25.977  0.00  0.00    -0.274 OA
BRANCH  17  20
ATOM     20  CA  GLY A   2       4.374  -5.338  27.957  0.00  0.00    +0.224 C 
BRANCH  20  21
ATOM     21  C   GLY A   2       5.466  -6.180  28.620  0.00  0.00    +0.322 C 
ATOM     22  OXT GLY A   2       6.322  -5.721  29.365  0.00  0.00    -0.249 OA
BRANCH  21  23
ATOM     23  O   GLY A   2       5.375  -7.501  28.344  0.00  0.00    -0.480 OA
ATOM     24  H   GLY A   2       5.185  -7.995  29.161  0.00  0.00    +0.295 HD
ENDBRANCH  21  23
ENDBRANCH  20  21
ENDBRANCH  17  20
ENDBRANCH   1  16
BRANCH   1  25
ATOM     25  C   UNK A   1       4.886  -1.249  25.941  0.00  0.00    +0.101 C 
BRANCH  25  26
ATOM     26  S   UNK A   1       6.540  -0.488  25.672  0.00  0.00    -0.147 S 
BRANCH  26  27
ATOM     27  C   UNK A   1       6.195   0.582  24.191  0.00  0.00    +0.110 C 
ATOM     28  C   UNK A   1       7.436   0.638  23.314  0.00  0.00    -0.024 A 
ATOM     29  C   UNK A   1       8.126   1.846  23.076  0.00  0.00    -0.013 A 
ATOM     30  C   UNK A   1       9.278   1.775  22.260  0.00  0.00    +0.009 A 
ATOM     31  C   UNK A   1       9.735   0.572  21.711  0.00  0.00    +0.001 A 
ATOM     32  C   UNK A   1       9.042  -0.602  21.948  0.00  0.00    +0.000 A 
ATOM     33  C   UNK A   1       7.649   3.126  23.659  0.00  0.00    -0.012 A 
ATOM     34  C   UNK A   1       6.444   3.175  24.382  0.00  0.00    -0.010 A 
ATOM     35  C   UNK A   1       5.985   4.392  24.932  0.00  0.00    +0.007 A 
ATOM     36  C   UNK A   1       6.706   5.571  24.775  0.00  0.00    +0.000 A 
ATOM     37  C   UNK A   1       7.893   5.545  24.064  0.00  0.00    +0.001 A 
ATOM     38  C   UNK A   1       8.354   4.342  23.518  0.00  0.00    +0.009 A 
ATOM     39  C   UNK A   1       7.899  -0.568  22.735  0.00  0.00    +0.005 A 
ATOM     40  C   UNK A   1       5.581   1.953  24.575  0.00  0.00    +0.162 C 
BRANCH  40  41
ATOM     41  O   UNK A   1       4.383   2.162  23.803  0.00  0.00    -0.386 OA
ATOM     42  H   UNK A   1       4.053   1.288  23.542  0.00  0.00    +0.210 HD
ENDBRANCH  40  41
ENDBRANCH  26  27
ENDBRANCH  25  26
ENDBRANCH   1  25
TORSDOF 15
ENDMDL
MODEL 7
REMARK VINA RESULT:      -7.0      3.060      5.531
REMARK  Name = 
REMARK  15 active torsions:
REMARK  status: ('A' for Active; 'I' for Inactive)
REMARK    1  A    between atoms: N_1  and  C_2
REMARK    2  A    between atoms: C_2  and  C_4
REMARK    3  A    between atoms: C_2  and  C_37
REMARK    4  A    between atoms: C_4  and  C_5
REMARK    5  A    between atoms: C_5  and  C_6
REMARK    6  A    between atoms: N_8  and  C_9
REMARK    7  A    between atoms: C_9  and  C_11
REMARK    8  A    between atoms: C_9  and  C_30
REMARK    9  A    between atoms: C_11  and  S_12
REMARK   10  A    between atoms: S_12  and  C_13
REMARK   11  A    between atoms: C_15  and  O_17
REMARK   12  A    between atoms: N_32  and  CA_33
REMARK   13  A    between atoms: CA_33  and  C_34
REMARK   14  A    between atoms: C_34  and  O_35
REMARK   15  A    between atoms: C_37  and  O_38
REMARK                            x       y       z     vdW  Elec       q    Type
REMARK                         _______ _______ _______ _____ _____    ______ ____
ROOT
ATOM      1  C   UNK A   1       4.929  -3.945  27.337  0.00  0.00    +0.169 C 
ENDROOT
BRANCH   1   3
ATOM      2  C   UNK A   1       3.010  -5.236  26.374  0.00  0.00    +0.214 C 
ATOM      3  N   UNK A   1       4.158  -4.488  26.212  0.00  0.00    -0.303 N 
ATOM      4  H   UNK A   1       4.272  -4.018  25.324  0.00  0.00    +0.149 HD
ATOM      5  O   UNK A   1       2.565  -5.569  27.466  0.00  0.00    -0.276 OA
BRANCH   2   6
ATOM      6  C   UNK A   1       2.389  -5.663  25.057  0.00  0.00    +0.098 C 
BRANCH   6   7
ATOM      7  C   UNK A   1       3.101  -5.004  23.877  0.00  0.00    +0.039 C 
BRANCH   7   8
ATOM      8  C   UNK A   1       3.986  -5.961  23.075  0.00  0.00    +0.161 C 
BRANCH   8   9
ATOM      9  N   UNK A   1       4.404  -7.148  23.884  0.00  0.00    -0.318 NA
ATOM     10  H   UNK A   1       5.249  -7.549  23.462  0.00  0.00    +0.119 HD
ATOM     11  H   UNK A   1       4.709  -6.811  24.801  0.00  0.00    +0.119 HD
ENDBRANCH   8   9
BRANCH   8  12
ATOM     12  C   UNK A   1       5.259  -5.225  22.608  0.00  0.00    +0.322 C 
ATOM     13  O   UNK A   1       5.669  -5.178  21.459  0.00  0.00    -0.249 OA
BRANCH  12  14
ATOM     14  O   UNK A   1       5.892  -4.627  23.652  0.00  0.00    -0.480 OA
ATOM     15  H   UNK A   1       6.539  -4.000  23.241  0.00  0.00    +0.295 HD
ENDBRANCH  12  14
ENDBRANCH   8  12
ENDBRANCH   7   8
ENDBRANCH   6   7
ENDBRANCH   2   6
ENDBRANCH   1   3
BRANCH   1  16
ATOM     16  C   UNK A   1       6.274  -4.713  27.462  0.00  0.00    +0.235 C 
ATOM     17  N   GLY A   2       7.157  -4.573  26.402  0.00  0.00    -0.303 N 
ATOM     18  H   GLY A   2       6.824  -4.206  25.517  0.00  0.00    +0.149 HD
ATOM     19  O   UNK A   1       6.618  -5.292  28.489  0.00  0.00    -0.274 OA
BRANCH  17  20
ATOM     20  CA  GLY A   2       8.408  -5.345  26.360  0.00  0.00    +0.224 C 
BRANCH  20  21
ATOM     21  C   GLY A   2       9.154  -5.291  25.026  0.00  0.00    +0.322 C 
ATOM     22  OXT GLY A   2       8.600  -5.200  23.938  0.00  0.00    -0.249 OA
BRANCH  21  23
ATOM     23  O   GLY A   2      10.500  -5.307  25.156  0.00  0.00    -0.480 OA
ATOM     24  H   GLY A   2      10.747  -5.780  25.970  0.00  0.00    +0.295 HD
ENDBRANCH  21  23
ENDBRANCH  20  21
ENDBRANCH  17  20
ENDBRANCH   1  16
BRANCH   1  25
ATOM     25  C   UNK A   1       5.096  -2.410  27.342  0.00  0.00    +0.101 C 
BRANCH  25  26
ATOM     26  S   UNK A   1       5.010  -1.731  25.634  0.00  0.00    -0.147 S 
BRANCH  26  27
ATOM     27  C   UNK A   1       6.449  -0.555  25.652  0.00  0.00    +0.110 C 
ATOM     28  C   UNK A   1       6.136   0.635  24.759  0.00  0.00    -0.024 A 
ATOM     29  C   UNK A   1       6.895   0.921  23.604  0.00  0.00    -0.013 A 
ATOM     30  C   UNK A   1       6.500   2.041  22.838  0.00  0.00    +0.009 A 
ATOM     31  C   UNK A   1       5.405   2.839  23.188  0.00  0.00    +0.001 A 
ATOM     32  C   UNK A   1       4.675   2.550  24.328  0.00  0.00    +0.000 A 
ATOM     33  C   UNK A   1       8.056   0.075  23.225  0.00  0.00    -0.012 A 
ATOM     34  C   UNK A   1       8.481  -0.971  24.064  0.00  0.00    -0.010 A 
ATOM     35  C   UNK A   1       9.588  -1.771  23.709  0.00  0.00    +0.007 A 
ATOM     36  C   UNK A   1      10.289  -1.550  22.527  0.00  0.00    +0.000 A 
ATOM     37  C   UNK A   1       9.889  -0.524  21.690  0.00  0.00    +0.001 A 
ATOM     38  C   UNK A   1       8.790   0.272  22.034  0.00  0.00    +0.009 A 
ATOM     39  C   UNK A   1       5.043   1.463  25.111  0.00  0.00    +0.005 A 
ATOM     40  C   UNK A   1       7.802  -1.262  25.379  0.00  0.00    +0.162 C 
BRANCH  40  41
ATOM     41  O   UNK A   1       8.735  -0.906  26.418  0.00  0.00    -0.386 OA
ATOM     42  H   UNK A   1       9.408  -1.602  26.450  0.00  0.00    +0.210 HD
ENDBRANCH  40  41
ENDBRANCH  26  27
ENDBRANCH  25  26
ENDBRANCH   1  25
TORSDOF 15
ENDMDL
MODEL 8
REMARK VINA RESULT:      -7.0      2.753      4.330
REMARK  Name = 
REMARK  15 active torsions:
REMARK  status: ('A' for Active; 'I' for Inactive)
REMARK    1  A    between atoms: N_1  and  C_2
REMARK    2  A    between atoms: C_2  and  C_4
REMARK    3  A    between atoms: C_2  and  C_37
REMARK    4  A    between atoms: C_4  and  C_5
REMARK    5  A    between atoms: C_5  and  C_6
REMARK    6  A    between atoms: N_8  and  C_9
REMARK    7  A    between atoms: C_9  and  C_11
REMARK    8  A    between atoms: C_9  and  C_30
REMARK    9  A    between atoms: C_11  and  S_12
REMARK   10  A    between atoms: S_12  and  C_13
REMARK   11  A    between atoms: C_15  and  O_17
REMARK   12  A    between atoms: N_32  and  CA_33
REMARK   13  A    between atoms: CA_33  and  C_34
REMARK   14  A    between atoms: C_34  and  O_35
REMARK   15  A    between atoms: C_37  and  O_38
REMARK                            x       y       z     vdW  Elec       q    Type
REMARK                         _______ _______ _______ _____ _____    ______ ____
ROOT
ATOM      1  C   UNK A   1       5.409  -1.916  24.773  0.00  0.00    +0.169 C 
ENDROOT
BRANCH   1   3
ATOM      2  C   UNK A   1       7.243  -3.084  23.528  0.00  0.00    +0.214 C 
ATOM      3  N   UNK A   1       6.724  -2.566  24.696  0.00  0.00    -0.303 N 
ATOM      4  H   UNK A   1       7.387  -2.319  25.418  0.00  0.00    +0.149 HD
ATOM      5  O   UNK A   1       6.634  -3.106  22.464  0.00  0.00    -0.276 OA
BRANCH   2   6
ATOM      6  C   UNK A   1       8.625  -3.686  23.707  0.00  0.00    +0.098 C 
BRANCH   6   7
ATOM      7  C   UNK A   1       9.201  -3.333  25.078  0.00  0.00    +0.039 C 
BRANCH   7   8
ATOM      8  C   UNK A   1       9.449  -4.547  25.976  0.00  0.00    +0.161 C 
BRANCH   8   9
ATOM      9  N   UNK A   1       9.745  -5.780  25.182  0.00  0.00    -0.318 NA
ATOM     10  H   UNK A   1       9.852  -5.516  24.196  0.00  0.00    +0.119 HD
ATOM     11  H   UNK A   1      10.671  -6.117  25.460  0.00  0.00    +0.119 HD
ENDBRANCH   8   9
BRANCH   8  12
ATOM     12  C   UNK A   1       8.201  -4.819  26.840  0.00  0.00    +0.322 C 
ATOM     13  O   UNK A   1       7.416  -3.974  27.239  0.00  0.00    -0.249 OA
BRANCH  12  14
ATOM     14  O   UNK A   1       8.078  -6.144  27.121  0.00  0.00    -0.480 OA
ATOM     15  H   UNK A   1       7.108  -6.333  27.067  0.00  0.00    +0.295 HD
ENDBRANCH  12  14
ENDBRANCH   8  12
ENDBRANCH   7   8
ENDBRANCH   6   7
ENDBRANCH   2   6
ENDBRANCH   1   3
BRANCH   1  16
ATOM     16  C   UNK A   1       4.365  -2.921  25.332  0.00  0.00    +0.235 C 
ATOM     17  N   GLY A   2       4.859  -4.152  25.736  0.00  0.00    -0.303 N 
ATOM     18  H   GLY A   2       5.784  -4.442  25.441  0.00  0.00    +0.149 HD
ATOM     19  O   UNK A   1       3.196  -2.615  25.550  0.00  0.00    -0.274 OA
BRANCH  17  20
ATOM     20  CA  GLY A   2       3.946  -5.220  26.171  0.00  0.00    +0.224 C 
BRANCH  20  21
ATOM     21  C   GLY A   2       4.484  -6.641  25.987  0.00  0.00    +0.322 C 
ATOM     22  OXT GLY A   2       4.161  -7.378  25.065  0.00  0.00    -0.249 OA
BRANCH  21  23
ATOM     23  O   GLY A   2       5.396  -7.000  26.919  0.00  0.00    -0.480 OA
ATOM     24  H   GLY A   2       5.289  -6.449  27.715  0.00  0.00    +0.295 HD
ENDBRANCH  21  23
ENDBRANCH  20  21
ENDBRANCH  17  20
ENDBRANCH   1  16
BRANCH   1  25
ATOM     25  C   UNK A   1       5.392  -0.549  25.492  0.00  0.00    +0.101 C 
BRANCH  25  26
ATOM     26  S   UNK A   1       6.558  -0.536  26.915  0.00  0.00    -0.147 S 
BRANCH  26  27
ATOM     27  C   UNK A   1       7.824   0.688  26.317  0.00  0.00    +0.110 C 
ATOM     28  C   UNK A   1       7.120   1.964  25.882  0.00  0.00    -0.024 A 
ATOM     29  C   UNK A   1       7.161   2.420  24.547  0.00  0.00    -0.013 A 
ATOM     30  C   UNK A   1       6.454   3.608  24.254  0.00  0.00    +0.009 A 
ATOM     31  C   UNK A   1       5.734   4.311  25.226  0.00  0.00    +0.001 A 
ATOM     32  C   UNK A   1       5.709   3.855  26.532  0.00  0.00    +0.000 A 
ATOM     33  C   UNK A   1       7.921   1.676  23.510  0.00  0.00    -0.012 A 
ATOM     34  C   UNK A   1       8.694   0.554  23.859  0.00  0.00    -0.010 A 
ATOM     35  C   UNK A   1       9.422  -0.150  22.875  0.00  0.00    +0.007 A 
ATOM     36  C   UNK A   1       9.398   0.242  21.540  0.00  0.00    +0.000 A 
ATOM     37  C   UNK A   1       8.646   1.346  21.177  0.00  0.00    +0.001 A 
ATOM     38  C   UNK A   1       7.920   2.047  22.147  0.00  0.00    +0.009 A 
ATOM     39  C   UNK A   1       6.404   2.696  26.859  0.00  0.00    +0.005 A 
ATOM     40  C   UNK A   1       8.806   0.077  25.285  0.00  0.00    +0.162 C 
BRANCH  40  41
ATOM     41  O   UNK A   1      10.157   0.342  25.710  0.00  0.00    -0.386 OA
ATOM     42  H   UNK A   1      10.167   0.297  26.678  0.00  0.00    +0.210 HD
ENDBRANCH  40  41
ENDBRANCH  26  27
ENDBRANCH  25  26
ENDBRANCH   1  25
TORSDOF 15
ENDMDL
MODEL 9
REMARK VINA RESULT:      -7.0      2.761      8.830
REMARK  Name = 
REMARK  15 active torsions:
REMARK  status: ('A' for Active; 'I' for Inactive)
REMARK    1  A    between atoms: N_1  and  C_2
REMARK    2  A    between atoms: C_2  and  C_4
REMARK    3  A    between atoms: C_2  and  C_37
REMARK    4  A    between atoms: C_4  and  C_5
REMARK    5  A    between atoms: C_5  and  C_6
REMARK    6  A    between atoms: N_8  and  C_9
REMARK    7  A    between atoms: C_9  and  C_11
REMARK    8  A    between atoms: C_9  and  C_30
REMARK    9  A    between atoms: C_11  and  S_12
REMARK   10  A    between atoms: S_12  and  C_13
REMARK   11  A    between atoms: C_15  and  O_17
REMARK   12  A    between atoms: N_32  and  CA_33
REMARK   13  A    between atoms: CA_33  and  C_34
REMARK   14  A    between atoms: C_34  and  O_35
REMARK   15  A    between atoms: C_37  and  O_38
REMARK                            x       y       z     vdW  Elec       q    Type
REMARK                         _______ _______ _______ _____ _____    ______ ____
ROOT
ATOM      1  C   UNK A   1       6.064  -1.215  25.166  0.00  0.00    +0.169 C 
ENDROOT
BRANCH   1   3
ATOM      2  C   UNK A   1       6.366   1.208  25.730  0.00  0.00    +0.214 C 
ATOM      3  N   UNK A   1       6.835  -0.090  25.711  0.00  0.00    -0.303 N 
ATOM      4  H   UNK A   1       7.553  -0.324  26.384  0.00  0.00    +0.149 HD
ATOM      5  O   UNK A   1       5.297   1.551  25.241  0.00  0.00    -0.276 OA
BRANCH   2   6
ATOM      6  C   UNK A   1       7.344   2.182  26.362  0.00  0.00    +0.098 C 
BRANCH   6   7
ATOM      7  C   UNK A   1       7.891   3.159  25.323  0.00  0.00    +0.039 C 
BRANCH   7   8
ATOM      8  C   UNK A   1       8.800   2.507  24.279  0.00  0.00    +0.161 C 
BRANCH   8   9
ATOM      9  N   UNK A   1       9.589   1.372  24.854  0.00  0.00    -0.318 NA
ATOM     10  H   UNK A   1      10.550   1.430  24.497  0.00  0.00    +0.119 HD
ATOM     11  H   UNK A   1       9.678   1.531  25.861  0.00  0.00    +0.119 HD
ENDBRANCH   8   9
BRANCH   8  12
ATOM     12  C   UNK A   1       9.791   3.551  23.726  0.00  0.00    +0.322 C 
ATOM     13  O   UNK A   1       9.884   4.708  24.101  0.00  0.00    -0.249 OA
BRANCH  12  14
ATOM     14  O   UNK A   1      10.562   3.022  22.739  0.00  0.00    -0.480 OA
ATOM     15  H   UNK A   1      11.315   2.578  23.205  0.00  0.00    +0.295 HD
ENDBRANCH  12  14
ENDBRANCH   8  12
ENDBRANCH   7   8
ENDBRANCH   6   7
ENDBRANCH   2   6
ENDBRANCH   1   3
BRANCH   1  16
ATOM     16  C   UNK A   1       6.571  -1.547  23.736  0.00  0.00    +0.235 C 
ATOM     17  N   GLY A   2       7.899  -1.243  23.474  0.00  0.00    -0.303 N 
ATOM     18  H   GLY A   2       8.403  -0.620  24.095  0.00  0.00    +0.149 HD
ATOM     19  O   UNK A   1       5.901  -2.175  22.920  0.00  0.00    -0.274 OA
BRANCH  17  20
ATOM     20  CA  GLY A   2       8.453  -1.407  22.121  0.00  0.00    +0.224 C 
BRANCH  20  21
ATOM     21  C   GLY A   2       9.819  -0.755  21.902  0.00  0.00    +0.322 C 
ATOM     22  OXT GLY A   2       9.992   0.455  21.821  0.00  0.00    -0.249 OA
BRANCH  21  23
ATOM     23  O   GLY A   2      10.841  -1.640  21.849  0.00  0.00    -0.480 OA
ATOM     24  H   GLY A   2      10.605  -2.381  21.265  0.00  0.00    +0.295 HD
ENDBRANCH  21  23
ENDBRANCH  20  21
ENDBRANCH  17  20
ENDBRANCH   1  16
BRANCH   1  25
ATOM     25  C   UNK A   1       5.966  -2.452  26.085  0.00  0.00    +0.101 C 
BRANCH  25  26
ATOM     26  S   UNK A   1       7.637  -3.035  26.590  0.00  0.00    -0.147 S 
BRANCH  26  27
ATOM     27  C   UNK A   1       7.401  -4.878  26.516  0.00  0.00    +0.110 C 
ATOM     28  C   UNK A   1       6.916  -5.266  25.128  0.00  0.00    -0.024 A 
ATOM     29  C   UNK A   1       5.653  -5.859  24.918  0.00  0.00    -0.013 A 
ATOM     30  C   UNK A   1       5.300  -6.160  23.583  0.00  0.00    +0.009 A 
ATOM     31  C   UNK A   1       6.146  -5.882  22.504  0.00  0.00    +0.001 A 
ATOM     32  C   UNK A   1       7.385  -5.307  22.727  0.00  0.00    +0.000 A 
ATOM     33  C   UNK A   1       4.748  -6.153  26.059  0.00  0.00    -0.012 A 
ATOM     34  C   UNK A   1       5.174  -5.932  27.382  0.00  0.00    -0.010 A 
ATOM     35  C   UNK A   1       4.318  -6.217  28.468  0.00  0.00    +0.007 A 
ATOM     36  C   UNK A   1       3.037  -6.721  28.265  0.00  0.00    +0.000 A 
ATOM     37  C   UNK A   1       2.601  -6.948  26.971  0.00  0.00    +0.001 A 
ATOM     38  C   UNK A   1       3.443  -6.666  25.889  0.00  0.00    +0.009 A 
ATOM     39  C   UNK A   1       7.769  -5.009  24.028  0.00  0.00    +0.005 A 
ATOM     40  C   UNK A   1       6.556  -5.419  27.698  0.00  0.00    +0.162 C 
BRANCH  40  41
ATOM     41  O   UNK A   1       7.270  -6.502  28.326  0.00  0.00    -0.386 OA
ATOM     42  H   UNK A   1       6.958  -7.325  27.921  0.00  0.00    +0.210 HD
ENDBRANCH  40  41
ENDBRANCH  26  27
ENDBRANCH  25  26
ENDBRANCH   1  25
TORSDOF 15
ENDMDL
