MODEL 1
REMARK VINA RESULT:      -6.2      0.000      0.000
REMARK  Name = 
REMARK  12 active torsions:
REMARK  status: ('A' for Active; 'I' for Inactive)
REMARK    1  A    between atoms: N_6  and  C_7
REMARK    2  A    between atoms: C_7  and  C_8
REMARK    3  A    between atoms: C_8  and  C_9
REMARK    4  A    between atoms: C_9  and  C_10
REMARK    5  A    between atoms: C_10  and  C_11
REMARK    6  A    between atoms: C_11  and  C_12
REMARK    7  A    between atoms: C_12  and  C_13
REMARK    8  A    between atoms: C_13  and  C_14
REMARK    9  A    between atoms: C_16  and  O_18
REMARK   10  A    between atoms: C_19  and  O_21
REMARK   11  A    between atoms: C_22  and  O_24
REMARK   12  A    between atoms: C_25  and  O_27
REMARK                            x       y       z     vdW  Elec       q    Type
REMARK                         _______ _______ _______ _____ _____    ______ ____
ROOT
ATOM      1  C   UNL     1       8.003   0.940  24.236  0.00  0.00    +0.149 C 
ATOM      2  C   UNL     1       9.081  -0.047  24.651  0.00  0.00    +0.169 C 
ATOM      3  C   UNL     1       9.341  -0.925  23.415  0.00  0.00    +0.177 C 
ATOM      4  C   UNL     1       9.796  -0.108  22.194  0.00  0.00    +0.192 C 
ATOM      5  C   UNL     1       9.050   1.245  21.995  0.00  0.00    +0.238 C 
ATOM      6  N   UNL     1       8.538   1.822  23.214  0.00  0.00    -0.249 N 
ATOM      7  C   UNL     1       7.827   2.992  23.255  0.00  0.00    +0.283 C 
ATOM      8  N   UNL     1       7.771   3.869  22.323  0.00  0.00    -0.237 NA
ATOM      9  O   UNL     1       7.162   3.095  24.445  0.00  0.00    -0.464 OA
ATOM     10  C   UNL     1       7.562   1.970  25.259  0.00  0.00    +0.257 C 
ENDROOT
BRANCH   2  11
ATOM     11  O   UNL     1      10.262   0.649  25.072  0.00  0.00    -0.387 OA
ATOM     12  H   UNL     1      10.887   0.668  24.324  0.00  0.00    +0.210 HD
ENDBRANCH   2  11
BRANCH   3  13
ATOM     13  O   UNL     1      10.319  -1.933  23.709  0.00  0.00    -0.386 OA
ATOM     14  H   UNL     1       9.867  -2.601  24.261  0.00  0.00    +0.210 HD
ENDBRANCH   3  13
BRANCH   4  15
ATOM     15  O   UNL     1       9.626  -0.954  21.033  0.00  0.00    -0.385 OA
ATOM     16  H   UNL     1       9.216  -1.781  21.352  0.00  0.00    +0.210 HD
ENDBRANCH   4  15
BRANCH   5  17
ATOM     17  O   UNL     1      10.021   2.137  21.463  0.00  0.00    -0.371 OA
ATOM     18  H   UNL     1      10.845   1.612  21.453  0.00  0.00    +0.212 HD
ENDBRANCH   5  17
BRANCH   8  19
ATOM     19  C   UNL     1       6.917   5.032  22.571  0.00  0.00    +0.147 C 
BRANCH  19  20
ATOM     20  C   UNL     1       7.776   6.287  22.385  0.00  0.00    +0.023 C 
BRANCH  20  21
ATOM     21  C   UNL     1       8.593   6.619  23.634  0.00  0.00    +0.002 C 
BRANCH  21  22
ATOM     22  C   UNL     1       9.997   6.009  23.559  0.00  0.00    +0.000 C 
BRANCH  22  23
ATOM     23  C   UNL     1      10.922   6.592  24.631  0.00  0.00    -0.000 C 
BRANCH  23  24
ATOM     24  C   UNL     1      12.391   6.270  24.343  0.00  0.00    -0.000 C 
BRANCH  24  25
ATOM     25  C   UNL     1      12.523   5.217  23.240  0.00  0.00    -0.003 C 
ATOM     26  C   UNL     1      13.362   5.723  22.077  0.00  0.00    +0.004 C 
ENDBRANCH  24  25
ENDBRANCH  23  24
ENDBRANCH  22  23
ENDBRANCH  21  22
ENDBRANCH  20  21
ENDBRANCH  19  20
ENDBRANCH   8  19
TORSDOF 11
ENDMDL
MODEL 2
REMARK VINA RESULT:      -6.0      3.490      5.346
REMARK  Name = 
REMARK  12 active torsions:
REMARK  status: ('A' for Active; 'I' for Inactive)
REMARK    1  A    between atoms: N_6  and  C_7
REMARK    2  A    between atoms: C_7  and  C_8
REMARK    3  A    between atoms: C_8  and  C_9
REMARK    4  A    between atoms: C_9  and  C_10
REMARK    5  A    between atoms: C_10  and  C_11
REMARK    6  A    between atoms: C_11  and  C_12
REMARK    7  A    between atoms: C_12  and  C_13
REMARK    8  A    between atoms: C_13  and  C_14
REMARK    9  A    between atoms: C_16  and  O_18
REMARK   10  A    between atoms: C_19  and  O_21
REMARK   11  A    between atoms: C_22  and  O_24
REMARK   12  A    between atoms: C_25  and  O_27
REMARK                            x       y       z     vdW  Elec       q    Type
REMARK                         _______ _______ _______ _____ _____    ______ ____
ROOT
ATOM      1  C   UNL     1       7.597  -4.347  23.503  0.00  0.00    +0.149 C 
ATOM      2  C   UNL     1       6.626  -4.936  24.513  0.00  0.00    +0.169 C 
ATOM      3  C   UNL     1       7.488  -5.402  25.698  0.00  0.00    +0.177 C 
ATOM      4  C   UNL     1       8.297  -4.255  26.329  0.00  0.00    +0.192 C 
ATOM      5  C   UNL     1       8.920  -3.255  25.310  0.00  0.00    +0.238 C 
ATOM      6  N   UNL     1       8.197  -3.151  24.067  0.00  0.00    -0.249 N 
ATOM      7  C   UNL     1       8.594  -2.351  23.028  0.00  0.00    +0.283 C 
ATOM      8  N   UNL     1       9.439  -1.391  23.100  0.00  0.00    -0.237 NA
ATOM      9  O   UNL     1       7.960  -2.729  21.877  0.00  0.00    -0.464 OA
ATOM     10  C   UNL     1       7.017  -3.766  22.227  0.00  0.00    +0.257 C 
ENDROOT
BRANCH   2  11
ATOM     11  O   UNL     1       5.658  -3.954  24.908  0.00  0.00    -0.387 OA
ATOM     12  H   UNL     1       5.355  -3.486  24.109  0.00  0.00    +0.210 HD
ENDBRANCH   2  11
BRANCH   3  13
ATOM     13  O   UNL     1       6.672  -6.023  26.702  0.00  0.00    -0.386 OA
ATOM     14  H   UNL     1       6.178  -6.735  26.252  0.00  0.00    +0.210 HD
ENDBRANCH   3  13
BRANCH   4  15
ATOM     15  O   UNL     1       9.331  -4.864  27.137  0.00  0.00    -0.385 OA
ATOM     16  H   UNL     1       9.866  -5.414  26.532  0.00  0.00    +0.210 HD
ENDBRANCH   4  15
BRANCH   5  17
ATOM     17  O   UNL     1       8.874  -1.987  25.951  0.00  0.00    -0.371 OA
ATOM     18  H   UNL     1       9.011  -1.348  25.224  0.00  0.00    +0.212 HD
ENDBRANCH   5  17
BRANCH   8  19
ATOM     19  C   UNL     1       9.739  -0.689  21.851  0.00  0.00    +0.147 C 
BRANCH  19  20
ATOM     20  C   UNL     1       9.011   0.658  21.889  0.00  0.00    +0.023 C 
BRANCH  20  21
ATOM     21  C   UNL     1       9.981   1.840  21.912  0.00  0.00    +0.002 C 
BRANCH  21  22
ATOM     22  C   UNL     1       9.923   2.583  23.251  0.00  0.00    +0.000 C 
BRANCH  22  23
ATOM     23  C   UNL     1      11.164   3.453  23.465  0.00  0.00    -0.000 C 
BRANCH  23  24
ATOM     24  C   UNL     1      10.789   4.916  23.716  0.00  0.00    -0.000 C 
BRANCH  24  25
ATOM     25  C   UNL     1      12.032   5.808  23.760  0.00  0.00    -0.003 C 
ATOM     26  C   UNL     1      13.046   5.414  22.698  0.00  0.00    +0.004 C 
ENDBRANCH  24  25
ENDBRANCH  23  24
ENDBRANCH  22  23
ENDBRANCH  21  22
ENDBRANCH  20  21
ENDBRANCH  19  20
ENDBRANCH   8  19
TORSDOF 11
ENDMDL
MODEL 3
REMARK VINA RESULT:      -6.0      3.584      7.994
REMARK  Name = 
REMARK  12 active torsions:
REMARK  status: ('A' for Active; 'I' for Inactive)
REMARK    1  A    between atoms: N_6  and  C_7
REMARK    2  A    between atoms: C_7  and  C_8
REMARK    3  A    between atoms: C_8  and  C_9
REMARK    4  A    between atoms: C_9  and  C_10
REMARK    5  A    between atoms: C_10  and  C_11
REMARK    6  A    between atoms: C_11  and  C_12
REMARK    7  A    between atoms: C_12  and  C_13
REMARK    8  A    between atoms: C_13  and  C_14
REMARK    9  A    between atoms: C_16  and  O_18
REMARK   10  A    between atoms: C_19  and  O_21
REMARK   11  A    between atoms: C_22  and  O_24
REMARK   12  A    between atoms: C_25  and  O_27
REMARK                            x       y       z     vdW  Elec       q    Type
REMARK                         _______ _______ _______ _____ _____    ______ ____
ROOT
ATOM      1  C   UNL     1       8.027  -0.321  22.752  0.00  0.00    +0.149 C 
ATOM      2  C   UNL     1       9.028   0.261  21.769  0.00  0.00    +0.169 C 
ATOM      3  C   UNL     1       9.350   1.673  22.288  0.00  0.00    +0.177 C 
ATOM      4  C   UNL     1       9.933   1.661  23.711  0.00  0.00    +0.192 C 
ATOM      5  C   UNL     1       9.260   0.650  24.687  0.00  0.00    +0.238 C 
ATOM      6  N   UNL     1       8.677  -0.498  24.038  0.00  0.00    -0.249 N 
ATOM      7  C   UNL     1       8.013  -1.489  24.712  0.00  0.00    +0.283 C 
ATOM      8  N   UNL     1       8.067  -1.705  25.973  0.00  0.00    -0.237 NA
ATOM      9  O   UNL     1       7.260  -2.225  23.840  0.00  0.00    -0.464 OA
ATOM     10  C   UNL     1       7.548  -1.741  22.509  0.00  0.00    +0.257 C 
ENDROOT
BRANCH   2  11
ATOM     11  O   UNL     1      10.199  -0.564  21.698  0.00  0.00    -0.387 OA
ATOM     12  H   UNL     1      10.795  -0.189  21.026  0.00  0.00    +0.210 HD
ENDBRANCH   2  11
BRANCH   3  13
ATOM     13  O   UNL     1      10.260   2.341  21.402  0.00  0.00    -0.386 OA
ATOM     14  H   UNL     1      10.506   3.178  21.841  0.00  0.00    +0.210 HD
ENDBRANCH   3  13
BRANCH   4  15
ATOM     15  O   UNL     1       9.822   3.009  24.224  0.00  0.00    -0.385 OA
ATOM     16  H   UNL     1       8.878   3.252  24.158  0.00  0.00    +0.210 HD
ENDBRANCH   4  15
BRANCH   5  17
ATOM     17  O   UNL     1      10.306   0.191  25.534  0.00  0.00    -0.371 OA
ATOM     18  H   UNL     1      10.859  -0.364  24.949  0.00  0.00    +0.212 HD
ENDBRANCH   5  17
BRANCH   8  19
ATOM     19  C   UNL     1       7.244  -2.803  26.484  0.00  0.00    +0.147 C 
BRANCH  19  20
ATOM     20  C   UNL     1       8.165  -4.005  26.717  0.00  0.00    +0.023 C 
BRANCH  20  21
ATOM     21  C   UNL     1       7.877  -5.151  25.747  0.00  0.00    +0.002 C 
BRANCH  21  22
ATOM     22  C   UNL     1       6.371  -5.313  25.507  0.00  0.00    +0.000 C 
BRANCH  22  23
ATOM     23  C   UNL     1       6.053  -5.462  24.017  0.00  0.00    -0.000 C 
BRANCH  23  24
ATOM     24  C   UNL     1       7.325  -5.450  23.166  0.00  0.00    -0.000 C 
BRANCH  24  25
ATOM     25  C   UNL     1       7.138  -6.251  21.875  0.00  0.00    -0.003 C 
ATOM     26  C   UNL     1       6.171  -5.564  20.923  0.00  0.00    +0.004 C 
ENDBRANCH  24  25
ENDBRANCH  23  24
ENDBRANCH  22  23
ENDBRANCH  21  22
ENDBRANCH  20  21
ENDBRANCH  19  20
ENDBRANCH   8  19
TORSDOF 11
ENDMDL
MODEL 4
REMARK VINA RESULT:      -6.0      3.139      7.924
REMARK  Name = 
REMARK  12 active torsions:
REMARK  status: ('A' for Active; 'I' for Inactive)
REMARK    1  A    between atoms: N_6  and  C_7
REMARK    2  A    between atoms: C_7  and  C_8
REMARK    3  A    between atoms: C_8  and  C_9
REMARK    4  A    between atoms: C_9  and  C_10
REMARK    5  A    between atoms: C_10  and  C_11
REMARK    6  A    between atoms: C_11  and  C_12
REMARK    7  A    between atoms: C_12  and  C_13
REMARK    8  A    between atoms: C_13  and  C_14
REMARK    9  A    between atoms: C_16  and  O_18
REMARK   10  A    between atoms: C_19  and  O_21
REMARK   11  A    between atoms: C_22  and  O_24
REMARK   12  A    between atoms: C_25  and  O_27
REMARK                            x       y       z     vdW  Elec       q    Type
REMARK                         _______ _______ _______ _____ _____    ______ ____
ROOT
ATOM      1  C   UNL     1       8.526   0.636  22.250  0.00  0.00    +0.149 C 
ATOM      2  C   UNL     1       8.929   2.050  21.869  0.00  0.00    +0.169 C 
ATOM      3  C   UNL     1       8.415   2.951  23.005  0.00  0.00    +0.177 C 
ATOM      4  C   UNL     1       9.003   2.570  24.374  0.00  0.00    +0.192 C 
ATOM      5  C   UNL     1       9.113   1.039  24.638  0.00  0.00    +0.238 C 
ATOM      6  N   UNL     1       9.252   0.242  23.444  0.00  0.00    -0.249 N 
ATOM      7  C   UNL     1       9.335  -1.125  23.454  0.00  0.00    +0.283 C 
ATOM      8  N   UNL     1       9.598  -1.853  24.474  0.00  0.00    -0.237 NA
ATOM      9  O   UNL     1       9.082  -1.619  22.205  0.00  0.00    -0.464 OA
ATOM     10  C   UNL     1       8.938  -0.489  21.317  0.00  0.00    +0.257 C 
ENDROOT
BRANCH   2  11
ATOM     11  O   UNL     1      10.353   2.140  21.716  0.00  0.00    -0.387 OA
ATOM     12  H   UNL     1      10.555   2.175  20.764  0.00  0.00    +0.210 HD
ENDBRANCH   2  11
BRANCH   3  13
ATOM     13  O   UNL     1       8.703   4.329  22.725  0.00  0.00    -0.386 OA
ATOM     14  H   UNL     1       9.544   4.531  23.180  0.00  0.00    +0.210 HD
ENDBRANCH   3  13
BRANCH   4  15
ATOM     15  O   UNL     1       8.173   3.198  25.378  0.00  0.00    -0.385 OA
ATOM     16  H   UNL     1       7.708   2.475  25.843  0.00  0.00    +0.210 HD
ENDBRANCH   4  15
BRANCH   5  17
ATOM     17  O   UNL     1      10.291   0.873  25.416  0.00  0.00    -0.371 OA
ATOM     18  H   UNL     1      10.599  -0.027  25.192  0.00  0.00    +0.212 HD
ENDBRANCH   5  17
BRANCH   8  19
ATOM     19  C   UNL     1       9.601  -3.302  24.261  0.00  0.00    +0.147 C 
BRANCH  19  20
ATOM     20  C   UNL     1       9.045  -3.960  25.527  0.00  0.00    +0.023 C 
BRANCH  20  21
ATOM     21  C   UNL     1       8.346  -5.287  25.230  0.00  0.00    +0.002 C 
BRANCH  21  22
ATOM     22  C   UNL     1       6.835  -5.184  25.462  0.00  0.00    +0.000 C 
BRANCH  22  23
ATOM     23  C   UNL     1       6.050  -5.409  24.167  0.00  0.00    -0.000 C 
BRANCH  23  24
ATOM     24  C   UNL     1       6.057  -4.159  23.282  0.00  0.00    -0.000 C 
BRANCH  24  25
ATOM     25  C   UNL     1       6.790  -4.416  21.963  0.00  0.00    -0.003 C 
ATOM     26  C   UNL     1       7.006  -5.901  21.719  0.00  0.00    +0.004 C 
ENDBRANCH  24  25
ENDBRANCH  23  24
ENDBRANCH  22  23
ENDBRANCH  21  22
ENDBRANCH  20  21
ENDBRANCH  19  20
ENDBRANCH   8  19
TORSDOF 11
ENDMDL
MODEL 5
REMARK VINA RESULT:      -6.0      3.347      7.722
REMARK  Name = 
REMARK  12 active torsions:
REMARK  status: ('A' for Active; 'I' for Inactive)
REMARK    1  A    between atoms: N_6  and  C_7
REMARK    2  A    between atoms: C_7  and  C_8
REMARK    3  A    between atoms: C_8  and  C_9
REMARK    4  A    between atoms: C_9  and  C_10
REMARK    5  A    between atoms: C_10  and  C_11
REMARK    6  A    between atoms: C_11  and  C_12
REMARK    7  A    between atoms: C_12  and  C_13
REMARK    8  A    between atoms: C_13  and  C_14
REMARK    9  A    between atoms: C_16  and  O_18
REMARK   10  A    between atoms: C_19  and  O_21
REMARK   11  A    between atoms: C_22  and  O_24
REMARK   12  A    between atoms: C_25  and  O_27
REMARK                            x       y       z     vdW  Elec       q    Type
REMARK                         _______ _______ _______ _____ _____    ______ ____
ROOT
ATOM      1  C   UNL     1       7.983   0.678  24.297  0.00  0.00    +0.149 C 
ATOM      2  C   UNL     1       7.274   1.726  23.456  0.00  0.00    +0.169 C 
ATOM      3  C   UNL     1       8.386   2.485  22.711  0.00  0.00    +0.177 C 
ATOM      4  C   UNL     1       9.238   1.563  21.823  0.00  0.00    +0.192 C 
ATOM      5  C   UNL     1       9.581   0.179  22.452  0.00  0.00    +0.238 C 
ATOM      6  N   UNL     1       8.615  -0.287  23.416  0.00  0.00    -0.249 N 
ATOM      7  C   UNL     1       8.744  -1.464  24.105  0.00  0.00    +0.283 C 
ATOM      8  N   UNL     1       9.529  -2.429  23.802  0.00  0.00    -0.237 NA
ATOM      9  O   UNL     1       7.912  -1.465  25.190  0.00  0.00    -0.464 OA
ATOM     10  C   UNL     1       7.122  -0.257  25.127  0.00  0.00    +0.257 C 
ENDROOT
BRANCH   2  11
ATOM     11  O   UNL     1       6.352   1.103  22.552  0.00  0.00    -0.387 OA
ATOM     12  H   UNL     1       6.226   1.695  21.789  0.00  0.00    +0.210 HD
ENDBRANCH   2  11
BRANCH   3  13
ATOM     13  O   UNL     1       7.829   3.540  21.913  0.00  0.00    -0.386 OA
ATOM     14  H   UNL     1       8.115   4.377  22.328  0.00  0.00    +0.210 HD
ENDBRANCH   3  13
BRANCH   4  15
ATOM     15  O   UNL     1      10.449   2.287  21.503  0.00  0.00    -0.385 OA
ATOM     16  H   UNL     1      10.779   2.657  22.345  0.00  0.00    +0.210 HD
ENDBRANCH   4  15
BRANCH   5  17
ATOM     17  O   UNL     1       9.593  -0.737  21.365  0.00  0.00    -0.371 OA
ATOM     18  H   UNL     1       8.665  -1.033  21.294  0.00  0.00    +0.212 HD
ENDBRANCH   5  17
BRANCH   8  19
ATOM     19  C   UNL     1       9.526  -3.582  24.703  0.00  0.00    +0.147 C 
BRANCH  19  20
ATOM     20  C   UNL     1       8.483  -4.576  24.184  0.00  0.00    +0.023 C 
BRANCH  20  21
ATOM     21  C   UNL     1       7.582  -5.104  25.301  0.00  0.00    +0.002 C 
BRANCH  21  22
ATOM     22  C   UNL     1       6.112  -5.125  24.868  0.00  0.00    +0.000 C 
BRANCH  22  23
ATOM     23  C   UNL     1       5.743  -3.870  24.072  0.00  0.00    -0.000 C 
BRANCH  23  24
ATOM     24  C   UNL     1       5.043  -4.224  22.757  0.00  0.00    -0.000 C 
BRANCH  24  25
ATOM     25  C   UNL     1       6.033  -4.249  21.590  0.00  0.00    -0.003 C 
ATOM     26  C   UNL     1       6.335  -5.669  21.138  0.00  0.00    +0.004 C 
ENDBRANCH  24  25
ENDBRANCH  23  24
ENDBRANCH  22  23
ENDBRANCH  21  22
ENDBRANCH  20  21
ENDBRANCH  19  20
ENDBRANCH   8  19
TORSDOF 11
ENDMDL
MODEL 6
REMARK VINA RESULT:      -5.9      4.717      6.798
REMARK  Name = 
REMARK  12 active torsions:
REMARK  status: ('A' for Active; 'I' for Inactive)
REMARK    1  A    between atoms: N_6  and  C_7
REMARK    2  A    between atoms: C_7  and  C_8
REMARK    3  A    between atoms: C_8  and  C_9
REMARK    4  A    between atoms: C_9  and  C_10
REMARK    5  A    between atoms: C_10  and  C_11
REMARK    6  A    between atoms: C_11  and  C_12
REMARK    7  A    between atoms: C_12  and  C_13
REMARK    8  A    between atoms: C_13  and  C_14
REMARK    9  A    between atoms: C_16  and  O_18
REMARK   10  A    between atoms: C_19  and  O_21
REMARK   11  A    between atoms: C_22  and  O_24
REMARK   12  A    between atoms: C_25  and  O_27
REMARK                            x       y       z     vdW  Elec       q    Type
REMARK                         _______ _______ _______ _____ _____    ______ ____
ROOT
ATOM      1  C   UNL     1       5.486  -4.209  25.263  0.00  0.00    +0.149 C 
ATOM      2  C   UNL     1       4.970  -5.626  25.446  0.00  0.00    +0.169 C 
ATOM      3  C   UNL     1       4.732  -6.171  24.027  0.00  0.00    +0.177 C 
ATOM      4  C   UNL     1       6.009  -6.165  23.170  0.00  0.00    +0.192 C 
ATOM      5  C   UNL     1       6.906  -4.902  23.337  0.00  0.00    +0.238 C 
ATOM      6  N   UNL     1       6.787  -4.259  24.622  0.00  0.00    -0.249 N 
ATOM      7  C   UNL     1       7.467  -3.119  24.960  0.00  0.00    +0.283 C 
ATOM      8  N   UNL     1       8.486  -2.643  24.349  0.00  0.00    -0.237 NA
ATOM      9  O   UNL     1       6.892  -2.539  26.057  0.00  0.00    -0.464 OA
ATOM     10  C   UNL     1       5.845  -3.425  26.512  0.00  0.00    +0.257 C 
ENDROOT
BRANCH   2  11
ATOM     11  O   UNL     1       5.923  -6.416  26.170  0.00  0.00    -0.387 OA
ATOM     12  H   UNL     1       6.814  -6.078  25.969  0.00  0.00    +0.210 HD
ENDBRANCH   2  11
BRANCH   3  13
ATOM     13  O   UNL     1       4.195  -7.500  24.080  0.00  0.00    -0.386 OA
ATOM     14  H   UNL     1       3.978  -7.671  25.018  0.00  0.00    +0.210 HD
ENDBRANCH   3  13
BRANCH   4  15
ATOM     15  O   UNL     1       5.593  -6.312  21.792  0.00  0.00    -0.385 OA
ATOM     16  H   UNL     1       5.208  -7.206  21.714  0.00  0.00    +0.210 HD
ENDBRANCH   4  15
BRANCH   5  17
ATOM     17  O   UNL     1       8.242  -5.368  23.201  0.00  0.00    -0.371 OA
ATOM     18  H   UNL     1       8.182  -6.323  23.400  0.00  0.00    +0.212 HD
ENDBRANCH   5  17
BRANCH   8  19
ATOM     19  C   UNL     1       9.033  -1.388  24.868  0.00  0.00    +0.147 C 
BRANCH  19  20
ATOM     20  C   UNL     1      10.071  -0.882  23.861  0.00  0.00    +0.023 C 
BRANCH  20  21
ATOM     21  C   UNL     1       9.889  -1.508  22.478  0.00  0.00    +0.002 C 
BRANCH  21  22
ATOM     22  C   UNL     1       9.414  -0.470  21.455  0.00  0.00    +0.000 C 
BRANCH  22  23
ATOM     23  C   UNL     1       9.860   0.943  21.839  0.00  0.00    -0.000 C 
BRANCH  23  24
ATOM     24  C   UNL     1       8.683   1.922  21.850  0.00  0.00    -0.000 C 
BRANCH  24  25
ATOM     25  C   UNL     1       8.767   2.879  23.041  0.00  0.00    -0.003 C 
ATOM     26  C   UNL     1      10.184   2.981  23.582  0.00  0.00    +0.004 C 
ENDBRANCH  24  25
ENDBRANCH  23  24
ENDBRANCH  22  23
ENDBRANCH  21  22
ENDBRANCH  20  21
ENDBRANCH  19  20
ENDBRANCH   8  19
TORSDOF 11
ENDMDL
MODEL 7
REMARK VINA RESULT:      -5.9      3.609      6.047
REMARK  Name = 
REMARK  12 active torsions:
REMARK  status: ('A' for Active; 'I' for Inactive)
REMARK    1  A    between atoms: N_6  and  C_7
REMARK    2  A    between atoms: C_7  and  C_8
REMARK    3  A    between atoms: C_8  and  C_9
REMARK    4  A    between atoms: C_9  and  C_10
REMARK    5  A    between atoms: C_10  and  C_11
REMARK    6  A    between atoms: C_11  and  C_12
REMARK    7  A    between atoms: C_12  and  C_13
REMARK    8  A    between atoms: C_13  and  C_14
REMARK    9  A    between atoms: C_16  and  O_18
REMARK   10  A    between atoms: C_19  and  O_21
REMARK   11  A    between atoms: C_22  and  O_24
REMARK   12  A    between atoms: C_25  and  O_27
REMARK                            x       y       z     vdW  Elec       q    Type
REMARK                         _______ _______ _______ _____ _____    ______ ____
ROOT
ATOM      1  C   UNL     1       7.539  -4.380  23.483  0.00  0.00    +0.149 C 
ATOM      2  C   UNL     1       6.618  -4.964  24.541  0.00  0.00    +0.169 C 
ATOM      3  C   UNL     1       7.533  -5.385  25.704  0.00  0.00    +0.177 C 
ATOM      4  C   UNL     1       8.340  -4.208  26.277  0.00  0.00    +0.192 C 
ATOM      5  C   UNL     1       8.904  -3.220  25.214  0.00  0.00    +0.238 C 
ATOM      6  N   UNL     1       8.135  -3.160  23.996  0.00  0.00    -0.249 N 
ATOM      7  C   UNL     1       8.476  -2.377  22.925  0.00  0.00    +0.283 C 
ATOM      8  N   UNL     1       9.304  -1.399  22.944  0.00  0.00    -0.237 NA
ATOM      9  O   UNL     1       7.809  -2.794  21.807  0.00  0.00    -0.464 OA
ATOM     10  C   UNL     1       6.901  -3.841  22.215  0.00  0.00    +0.257 C 
ENDROOT
BRANCH   2  11
ATOM     11  O   UNL     1       5.645  -3.992  24.949  0.00  0.00    -0.387 OA
ATOM     12  H   UNL     1       4.761  -4.332  24.722  0.00  0.00    +0.210 HD
ENDBRANCH   2  11
BRANCH   3  13
ATOM     13  O   UNL     1       6.766  -5.997  26.752  0.00  0.00    -0.386 OA
ATOM     14  H   UNL     1       5.865  -6.121  26.395  0.00  0.00    +0.210 HD
ENDBRANCH   3  13
BRANCH   4  15
ATOM     15  O   UNL     1       9.415  -4.776  27.061  0.00  0.00    -0.385 OA
ATOM     16  H   UNL     1       9.135  -5.681  27.298  0.00  0.00    +0.210 HD
ENDBRANCH   4  15
BRANCH   5  17
ATOM     17  O   UNL     1       8.856  -1.938  25.827  0.00  0.00    -0.371 OA
ATOM     18  H   UNL     1       7.939  -1.869  26.160  0.00  0.00    +0.212 HD
ENDBRANCH   5  17
BRANCH   8  19
ATOM     19  C   UNL     1       9.543  -0.721  21.669  0.00  0.00    +0.147 C 
BRANCH  19  20
ATOM     20  C   UNL     1       8.975   0.697  21.782  0.00  0.00    +0.023 C 
BRANCH  20  21
ATOM     21  C   UNL     1      10.060   1.733  22.078  0.00  0.00    +0.002 C 
BRANCH  21  22
ATOM     22  C   UNL     1      10.280   1.894  23.586  0.00  0.00    +0.000 C 
BRANCH  22  23
ATOM     23  C   UNL     1       9.077   2.555  24.262  0.00  0.00    -0.000 C 
BRANCH  23  24
ATOM     24  C   UNL     1       8.354   1.584  25.200  0.00  0.00    -0.000 C 
BRANCH  24  25
ATOM     25  C   UNL     1       6.843   1.599  24.957  0.00  0.00    -0.003 C 
ATOM     26  C   UNL     1       6.349   0.275  24.397  0.00  0.00    +0.004 C 
ENDBRANCH  24  25
ENDBRANCH  23  24
ENDBRANCH  22  23
ENDBRANCH  21  22
ENDBRANCH  20  21
ENDBRANCH  19  20
ENDBRANCH   8  19
TORSDOF 11
ENDMDL
MODEL 8
REMARK VINA RESULT:      -5.7      4.179      6.068
REMARK  Name = 
REMARK  12 active torsions:
REMARK  status: ('A' for Active; 'I' for Inactive)
REMARK    1  A    between atoms: N_6  and  C_7
REMARK    2  A    between atoms: C_7  and  C_8
REMARK    3  A    between atoms: C_8  and  C_9
REMARK    4  A    between atoms: C_9  and  C_10
REMARK    5  A    between atoms: C_10  and  C_11
REMARK    6  A    between atoms: C_11  and  C_12
REMARK    7  A    between atoms: C_12  and  C_13
REMARK    8  A    between atoms: C_13  and  C_14
REMARK    9  A    between atoms: C_16  and  O_18
REMARK   10  A    between atoms: C_19  and  O_21
REMARK   11  A    between atoms: C_22  and  O_24
REMARK   12  A    between atoms: C_25  and  O_27
REMARK                            x       y       z     vdW  Elec       q    Type
REMARK                         _______ _______ _______ _____ _____    ______ ____
ROOT
ATOM      1  C   UNL     1       7.391  -3.615  25.848  0.00  0.00    +0.149 C 
ATOM      2  C   UNL     1       7.011  -4.861  26.630  0.00  0.00    +0.169 C 
ATOM      3  C   UNL     1       5.879  -5.527  25.830  0.00  0.00    +0.177 C 
ATOM      4  C   UNL     1       6.303  -5.894  24.397  0.00  0.00    +0.192 C 
ATOM      5  C   UNL     1       7.187  -4.829  23.682  0.00  0.00    +0.238 C 
ATOM      6  N   UNL     1       7.969  -4.013  24.576  0.00  0.00    -0.249 N 
ATOM      7  C   UNL     1       8.788  -3.000  24.152  0.00  0.00    +0.283 C 
ATOM      8  N   UNL     1       9.208  -2.826  22.955  0.00  0.00    -0.237 NA
ATOM      9  O   UNL     1       9.096  -2.177  25.199  0.00  0.00    -0.464 OA
ATOM     10  C   UNL     1       8.525  -2.763  26.390  0.00  0.00    +0.257 C 
ENDROOT
BRANCH   2  11
ATOM     11  O   UNL     1       8.146  -5.726  26.774  0.00  0.00    -0.387 OA
ATOM     12  H   UNL     1       7.871  -6.505  27.290  0.00  0.00    +0.210 HD
ENDBRANCH   2  11
BRANCH   3  13
ATOM     13  O   UNL     1       5.406  -6.701  26.506  0.00  0.00    -0.386 OA
ATOM     14  H   UNL     1       5.385  -6.479  27.458  0.00  0.00    +0.210 HD
ENDBRANCH   3  13
BRANCH   4  15
ATOM     15  O   UNL     1       5.090  -6.132  23.646  0.00  0.00    -0.385 OA
ATOM     16  H   UNL     1       4.949  -5.341  23.092  0.00  0.00    +0.210 HD
ENDBRANCH   4  15
BRANCH   5  17
ATOM     17  O   UNL     1       8.085  -5.571  22.867  0.00  0.00    -0.371 OA
ATOM     18  H   UNL     1       8.212  -5.006  22.079  0.00  0.00    +0.212 HD
ENDBRANCH   5  17
BRANCH   8  19
ATOM     19  C   UNL     1      10.050  -1.652  22.721  0.00  0.00    +0.147 C 
BRANCH  19  20
ATOM     20  C   UNL     1       9.359  -0.786  21.664  0.00  0.00    +0.023 C 
BRANCH  20  21
ATOM     21  C   UNL     1       8.511   0.323  22.289  0.00  0.00    +0.002 C 
BRANCH  21  22
ATOM     22  C   UNL     1       8.973   1.708  21.822  0.00  0.00    +0.000 C 
BRANCH  22  23
ATOM     23  C   UNL     1      10.379   2.033  22.332  0.00  0.00    -0.000 C 
BRANCH  23  24
ATOM     24  C   UNL     1      10.348   3.117  23.413  0.00  0.00    -0.000 C 
BRANCH  24  25
ATOM     25  C   UNL     1      11.577   4.025  23.326  0.00  0.00    -0.003 C 
ATOM     26  C   UNL     1      11.235   5.468  23.660  0.00  0.00    +0.004 C 
ENDBRANCH  24  25
ENDBRANCH  23  24
ENDBRANCH  22  23
ENDBRANCH  21  22
ENDBRANCH  20  21
ENDBRANCH  19  20
ENDBRANCH   8  19
TORSDOF 11
ENDMDL
MODEL 9
REMARK VINA RESULT:      -5.7      3.461      5.637
REMARK  Name = 
REMARK  12 active torsions:
REMARK  status: ('A' for Active; 'I' for Inactive)
REMARK    1  A    between atoms: N_6  and  C_7
REMARK    2  A    between atoms: C_7  and  C_8
REMARK    3  A    between atoms: C_8  and  C_9
REMARK    4  A    between atoms: C_9  and  C_10
REMARK    5  A    between atoms: C_10  and  C_11
REMARK    6  A    between atoms: C_11  and  C_12
REMARK    7  A    between atoms: C_12  and  C_13
REMARK    8  A    between atoms: C_13  and  C_14
REMARK    9  A    between atoms: C_16  and  O_18
REMARK   10  A    between atoms: C_19  and  O_21
REMARK   11  A    between atoms: C_22  and  O_24
REMARK   12  A    between atoms: C_25  and  O_27
REMARK                            x       y       z     vdW  Elec       q    Type
REMARK                         _______ _______ _______ _____ _____    ______ ____
ROOT
ATOM      1  C   UNL     1       7.376  -3.983  24.964  0.00  0.00    +0.149 C 
ATOM      2  C   UNL     1       7.302  -5.329  24.263  0.00  0.00    +0.169 C 
ATOM      3  C   UNL     1       6.287  -5.150  23.121  0.00  0.00    +0.177 C 
ATOM      4  C   UNL     1       6.699  -4.046  22.132  0.00  0.00    +0.192 C 
ATOM      5  C   UNL     1       7.306  -2.770  22.789  0.00  0.00    +0.238 C 
ATOM      6  N   UNL     1       7.953  -3.009  24.055  0.00  0.00    -0.249 N 
ATOM      7  C   UNL     1       8.524  -2.018  24.809  0.00  0.00    +0.283 C 
ATOM      8  N   UNL     1       8.834  -0.846  24.398  0.00  0.00    -0.237 NA
ATOM      9  O   UNL     1       8.714  -2.455  26.091  0.00  0.00    -0.464 OA
ATOM     10  C   UNL     1       8.340  -3.850  26.129  0.00  0.00    +0.257 C 
ENDROOT
BRANCH   2  11
ATOM     11  O   UNL     1       8.595  -5.712  23.776  0.00  0.00    -0.387 OA
ATOM     12  H   UNL     1       8.765  -6.630  24.052  0.00  0.00    +0.210 HD
ENDBRANCH   2  11
BRANCH   3  13
ATOM     13  O   UNL     1       6.101  -6.384  22.413  0.00  0.00    -0.386 OA
ATOM     14  H   UNL     1       5.199  -6.692  22.631  0.00  0.00    +0.210 HD
ENDBRANCH   3  13
BRANCH   4  15
ATOM     15  O   UNL     1       5.521  -3.707  21.364  0.00  0.00    -0.385 OA
ATOM     16  H   UNL     1       5.422  -2.737  21.424  0.00  0.00    +0.210 HD
ENDBRANCH   4  15
BRANCH   5  17
ATOM     17  O   UNL     1       8.291  -2.308  21.874  0.00  0.00    -0.371 OA
ATOM     18  H   UNL     1       7.772  -1.958  21.123  0.00  0.00    +0.212 HD
ENDBRANCH   5  17
BRANCH   8  19
ATOM     19  C   UNL     1       9.406   0.066  25.390  0.00  0.00    +0.147 C 
BRANCH  19  20
ATOM     20  C   UNL     1       9.815   1.350  24.661  0.00  0.00    +0.023 C 
BRANCH  20  21
ATOM     21  C   UNL     1      10.617   1.063  23.391  0.00  0.00    +0.002 C 
BRANCH  21  22
ATOM     22  C   UNL     1      10.076   1.859  22.198  0.00  0.00    +0.000 C 
BRANCH  22  23
ATOM     23  C   UNL     1       8.820   1.209  21.612  0.00  0.00    -0.000 C 
BRANCH  23  24
ATOM     24  C   UNL     1       7.651   2.196  21.553  0.00  0.00    -0.000 C 
BRANCH  24  25
ATOM     25  C   UNL     1       7.869   3.374  22.505  0.00  0.00    -0.003 C 
ATOM     26  C   UNL     1       6.717   4.364  22.449  0.00  0.00    +0.004 C 
ENDBRANCH  24  25
ENDBRANCH  23  24
ENDBRANCH  22  23
ENDBRANCH  21  22
ENDBRANCH  20  21
ENDBRANCH  19  20
ENDBRANCH   8  19
TORSDOF 11
ENDMDL
