MODEL 1
REMARK VINA RESULT:      -6.4      0.000      0.000
REMARK  Name = 
REMARK  6 active torsions:
REMARK  status: ('A' for Active; 'I' for Inactive)
REMARK    1  A    between atoms: O_1  and  C_2
REMARK    2  A    between atoms: C_5  and  C_6
REMARK    3  A    between atoms: C_6  and  C_7
REMARK    4  A    between atoms: C_7  and  C_8
REMARK    5  A    between atoms: C_10  and  O_11
REMARK    6  A    between atoms: C_13  and  O_14
REMARK                            x       y       z     vdW  Elec       q    Type
REMARK                         _______ _______ _______ _____ _____    ______ ____
ROOT
ATOM      1  C   UNL     1       9.880  -2.829  24.101  0.00  0.00    +0.040 C 
ENDROOT
BRANCH   1   2
ATOM      2  C   UNL     1       8.796  -3.758  24.588  0.00  0.00    -0.040 A 
ATOM      3  C   UNL     1       7.647  -3.974  23.815  0.00  0.00    +0.049 A 
ATOM      4  C   UNL     1       6.624  -4.787  24.296  0.00  0.00    +0.121 A 
ATOM      5  C   UNL     1       6.725  -5.402  25.539  0.00  0.00    +0.090 A 
ATOM      6  C   UNL     1       7.871  -5.200  26.299  0.00  0.00    +0.121 A 
ATOM      7  C   UNL     1       8.907  -4.392  25.836  0.00  0.00    +0.049 A 
BRANCH   4   8
ATOM      8  O   UNL     1       5.520  -4.947  23.512  0.00  0.00    -0.507 OA
ATOM      9  H   UNL     1       4.755  -5.108  24.090  0.00  0.00    +0.292 HD
ENDBRANCH   4   8
BRANCH   6  10
ATOM     10  O   UNL     1       7.939  -5.813  27.516  0.00  0.00    -0.507 OA
ATOM     11  H   UNL     1       7.897  -5.133  28.209  0.00  0.00    +0.292 HD
ENDBRANCH   6  10
ENDBRANCH   1   2
BRANCH   1  12
ATOM     12  C   UNL     1       9.469  -1.997  22.878  0.00  0.00    +0.040 C 
BRANCH  12  16
ATOM     13  C   UNL     1      10.445   2.212  23.061  0.00  0.00    +0.117 A 
ATOM     14  C   UNL     1       9.935   1.661  21.892  0.00  0.00    +0.045 A 
ATOM     15  C   UNL     1       9.610   0.301  21.850  0.00  0.00    +0.007 A 
ATOM     16  C   UNL     1       9.779  -0.515  22.980  0.00  0.00    -0.047 A 
ATOM     17  C   UNL     1      10.299   0.068  24.147  0.00  0.00    +0.007 A 
ATOM     18  C   UNL     1      10.622   1.427  24.193  0.00  0.00    +0.045 A 
BRANCH  13  19
ATOM     19  O   UNL     1      10.768   3.535  23.061  0.00  0.00    -0.507 OA
ATOM     20  H   UNL     1      10.409   3.940  23.866  0.00  0.00    +0.292 HD
ENDBRANCH  13  19
ENDBRANCH  12  16
ENDBRANCH   1  12
TORSDOF 6
ENDMDL
MODEL 2
REMARK VINA RESULT:      -6.4      0.052      2.007
REMARK  Name = 
REMARK  6 active torsions:
REMARK  status: ('A' for Active; 'I' for Inactive)
REMARK    1  A    between atoms: O_1  and  C_2
REMARK    2  A    between atoms: C_5  and  C_6
REMARK    3  A    between atoms: C_6  and  C_7
REMARK    4  A    between atoms: C_7  and  C_8
REMARK    5  A    between atoms: C_10  and  O_11
REMARK    6  A    between atoms: C_13  and  O_14
REMARK                            x       y       z     vdW  Elec       q    Type
REMARK                         _______ _______ _______ _____ _____    ______ ____
ROOT
ATOM      1  C   UNL     1       9.887  -2.825  24.103  0.00  0.00    +0.040 C 
ENDROOT
BRANCH   1   2
ATOM      2  C   UNL     1       8.756  -3.693  24.598  0.00  0.00    -0.040 A 
ATOM      3  C   UNL     1       8.850  -4.339  25.839  0.00  0.00    +0.049 A 
ATOM      4  C   UNL     1       7.829  -5.185  26.264  0.00  0.00    +0.121 A 
ATOM      5  C   UNL     1       6.703  -5.397  25.478  0.00  0.00    +0.090 A 
ATOM      6  C   UNL     1       6.602  -4.743  24.256  0.00  0.00    +0.121 A 
ATOM      7  C   UNL     1       7.612  -3.892  23.811  0.00  0.00    +0.049 A 
BRANCH   4   8
ATOM      8  O   UNL     1       7.981  -5.804  27.469  0.00  0.00    -0.507 OA
ATOM      9  H   UNL     1       7.134  -6.214  27.712  0.00  0.00    +0.292 HD
ENDBRANCH   4   8
BRANCH   6  10
ATOM     10  O   UNL     1       5.488  -4.975  23.504  0.00  0.00    -0.507 OA
ATOM     11  H   UNL     1       5.192  -5.888  23.657  0.00  0.00    +0.292 HD
ENDBRANCH   6  10
ENDBRANCH   1   2
BRANCH   1  12
ATOM     12  C   UNL     1       9.527  -2.004  22.857  0.00  0.00    +0.040 C 
BRANCH  12  16
ATOM     13  C   UNL     1      10.436   2.220  23.064  0.00  0.00    +0.117 A 
ATOM     14  C   UNL     1       9.932   1.667  21.893  0.00  0.00    +0.045 A 
ATOM     15  C   UNL     1       9.628   0.303  21.843  0.00  0.00    +0.007 A 
ATOM     16  C   UNL     1       9.814  -0.517  22.968  0.00  0.00    -0.047 A 
ATOM     17  C   UNL     1      10.327   0.067  24.137  0.00  0.00    +0.007 A 
ATOM     18  C   UNL     1      10.630   1.430  24.190  0.00  0.00    +0.045 A 
BRANCH  13  19
ATOM     19  O   UNL     1      10.739   3.548  23.071  0.00  0.00    -0.507 OA
ATOM     20  H   UNL     1      11.115   3.782  22.207  0.00  0.00    +0.292 HD
ENDBRANCH  13  19
ENDBRANCH  12  16
ENDBRANCH   1  12
TORSDOF 6
ENDMDL
MODEL 3
REMARK VINA RESULT:      -6.3      1.736      6.826
REMARK  Name = 
REMARK  6 active torsions:
REMARK  status: ('A' for Active; 'I' for Inactive)
REMARK    1  A    between atoms: O_1  and  C_2
REMARK    2  A    between atoms: C_5  and  C_6
REMARK    3  A    between atoms: C_6  and  C_7
REMARK    4  A    between atoms: C_7  and  C_8
REMARK    5  A    between atoms: C_10  and  O_11
REMARK    6  A    between atoms: C_13  and  O_14
REMARK                            x       y       z     vdW  Elec       q    Type
REMARK                         _______ _______ _______ _____ _____    ______ ____
ROOT
ATOM      1  C   UNL     1       9.096  -2.182  22.408  0.00  0.00    +0.040 C 
ENDROOT
BRANCH   1   2
ATOM      2  C   UNL     1       8.761  -0.714  22.311  0.00  0.00    -0.040 A 
ATOM      3  C   UNL     1       9.748   0.215  21.956  0.00  0.00    +0.049 A 
ATOM      4  C   UNL     1       9.448   1.575  21.925  0.00  0.00    +0.121 A 
ATOM      5  C   UNL     1       8.172   2.032  22.234  0.00  0.00    +0.090 A 
ATOM      6  C   UNL     1       7.190   1.109  22.571  0.00  0.00    +0.121 A 
ATOM      7  C   UNL     1       7.468  -0.257  22.607  0.00  0.00    +0.049 A 
BRANCH   4   8
ATOM      8  O   UNL     1      10.451   2.437  21.593  0.00  0.00    -0.507 OA
ATOM      9  H   UNL     1      10.084   3.337  21.567  0.00  0.00    +0.292 HD
ENDBRANCH   4   8
BRANCH   6  10
ATOM     10  O   UNL     1       5.949   1.587  22.875  0.00  0.00    -0.507 OA
ATOM     11  H   UNL     1       5.378   0.840  23.119  0.00  0.00    +0.292 HD
ENDBRANCH   6  10
ENDBRANCH   1   2
BRANCH   1  12
ATOM     12  C   UNL     1       7.875  -3.071  22.682  0.00  0.00    +0.040 C 
BRANCH  12  16
ATOM     13  C   UNL     1       7.942  -5.251  26.416  0.00  0.00    +0.117 A 
ATOM     14  C   UNL     1       6.813  -5.280  25.608  0.00  0.00    +0.045 A 
ATOM     15  C   UNL     1       6.809  -4.583  24.395  0.00  0.00    +0.007 A 
ATOM     16  C   UNL     1       7.938  -3.862  23.976  0.00  0.00    -0.047 A 
ATOM     17  C   UNL     1       9.064  -3.847  24.815  0.00  0.00    +0.007 A 
ATOM     18  C   UNL     1       9.072  -4.544  26.026  0.00  0.00    +0.045 A 
BRANCH  13  19
ATOM     19  O   UNL     1       7.904  -5.925  27.599  0.00  0.00    -0.507 OA
ATOM     20  H   UNL     1       8.791  -6.274  27.783  0.00  0.00    +0.292 HD
ENDBRANCH  13  19
ENDBRANCH  12  16
ENDBRANCH   1  12
TORSDOF 6
ENDMDL
MODEL 4
REMARK VINA RESULT:      -6.3      1.488      6.711
REMARK  Name = 
REMARK  6 active torsions:
REMARK  status: ('A' for Active; 'I' for Inactive)
REMARK    1  A    between atoms: O_1  and  C_2
REMARK    2  A    between atoms: C_5  and  C_6
REMARK    3  A    between atoms: C_6  and  C_7
REMARK    4  A    between atoms: C_7  and  C_8
REMARK    5  A    between atoms: C_10  and  O_11
REMARK    6  A    between atoms: C_13  and  O_14
REMARK                            x       y       z     vdW  Elec       q    Type
REMARK                         _______ _______ _______ _____ _____    ______ ____
ROOT
ATOM      1  C   UNL     1       9.695  -2.172  23.062  0.00  0.00    +0.040 C 
ENDROOT
BRANCH   1   2
ATOM      2  C   UNL     1       9.545  -0.687  23.283  0.00  0.00    -0.040 A 
ATOM      3  C   UNL     1       9.988   0.222  22.313  0.00  0.00    +0.049 A 
ATOM      4  C   UNL     1       9.901   1.591  22.549  0.00  0.00    +0.121 A 
ATOM      5  C   UNL     1       9.370   2.080  23.736  0.00  0.00    +0.090 A 
ATOM      6  C   UNL     1       8.916   1.178  24.691  0.00  0.00    +0.121 A 
ATOM      7  C   UNL     1       8.992  -0.196  24.476  0.00  0.00    +0.049 A 
BRANCH   4   8
ATOM      8  O   UNL     1      10.365   2.431  21.579  0.00  0.00    -0.507 OA
ATOM      9  H   UNL     1      10.955   3.082  21.996  0.00  0.00    +0.292 HD
ENDBRANCH   4   8
BRANCH   6  10
ATOM     10  O   UNL     1       8.404   1.687  25.850  0.00  0.00    -0.507 OA
ATOM     11  H   UNL     1       8.706   1.137  26.592  0.00  0.00    +0.292 HD
ENDBRANCH   6  10
ENDBRANCH   1   2
BRANCH   1  12
ATOM     12  C   UNL     1       8.362  -2.933  23.095  0.00  0.00    +0.040 C 
BRANCH  12  16
ATOM     13  C   UNL     1       7.762  -5.295  26.667  0.00  0.00    +0.117 A 
ATOM     14  C   UNL     1       8.985  -4.679  26.431  0.00  0.00    +0.045 A 
ATOM     15  C   UNL     1       9.161  -3.906  25.280  0.00  0.00    +0.007 A 
ATOM     16  C   UNL     1       8.114  -3.732  24.361  0.00  0.00    -0.047 A 
ATOM     17  C   UNL     1       6.890  -4.369  24.623  0.00  0.00    +0.007 A 
ATOM     18  C   UNL     1       6.709  -5.140  25.774  0.00  0.00    +0.045 A 
BRANCH  13  19
ATOM     19  O   UNL     1       7.631  -6.057  27.789  0.00  0.00    -0.507 OA
ATOM     20  H   UNL     1       7.329  -5.486  28.514  0.00  0.00    +0.292 HD
ENDBRANCH  13  19
ENDBRANCH  12  16
ENDBRANCH   1  12
TORSDOF 6
ENDMDL
MODEL 5
REMARK VINA RESULT:      -6.3      1.084      2.669
REMARK  Name = 
REMARK  6 active torsions:
REMARK  status: ('A' for Active; 'I' for Inactive)
REMARK    1  A    between atoms: O_1  and  C_2
REMARK    2  A    between atoms: C_5  and  C_6
REMARK    3  A    between atoms: C_6  and  C_7
REMARK    4  A    between atoms: C_7  and  C_8
REMARK    5  A    between atoms: C_10  and  O_11
REMARK    6  A    between atoms: C_13  and  O_14
REMARK                            x       y       z     vdW  Elec       q    Type
REMARK                         _______ _______ _______ _____ _____    ______ ____
ROOT
ATOM      1  C   UNL     1       8.351  -3.729  23.457  0.00  0.00    +0.040 C 
ENDROOT
BRANCH   1   2
ATOM      2  C   UNL     1       7.467  -4.454  24.442  0.00  0.00    -0.040 A 
ATOM      3  C   UNL     1       7.975  -4.859  25.684  0.00  0.00    +0.049 A 
ATOM      4  C   UNL     1       7.171  -5.579  26.565  0.00  0.00    +0.121 A 
ATOM      5  C   UNL     1       5.860  -5.900  26.237  0.00  0.00    +0.090 A 
ATOM      6  C   UNL     1       5.352  -5.485  25.011  0.00  0.00    +0.121 A 
ATOM      7  C   UNL     1       6.138  -4.762  24.115  0.00  0.00    +0.049 A 
BRANCH   4   8
ATOM      8  O   UNL     1       7.722  -5.965  27.752  0.00  0.00    -0.507 OA
ATOM      9  H   UNL     1       7.919  -5.168  28.271  0.00  0.00    +0.292 HD
ENDBRANCH   4   8
BRANCH   6  10
ATOM     10  O   UNL     1       4.063  -5.820  24.714  0.00  0.00    -0.507 OA
ATOM     11  H   UNL     1       3.898  -5.622  23.777  0.00  0.00    +0.292 HD
ENDBRANCH   6  10
ENDBRANCH   1   2
BRANCH   1  12
ATOM     12  C   UNL     1       9.391  -2.818  24.123  0.00  0.00    +0.040 C 
BRANCH  12  16
ATOM     13  C   UNL     1      10.022   0.993  22.180  0.00  0.00    +0.117 A 
ATOM     14  C   UNL     1      10.400   0.811  23.504  0.00  0.00    +0.045 A 
ATOM     15  C   UNL     1      10.204  -0.431  24.117  0.00  0.00    +0.007 A 
ATOM     16  C   UNL     1       9.641  -1.504  23.407  0.00  0.00    -0.047 A 
ATOM     17  C   UNL     1       9.266  -1.290  22.070  0.00  0.00    +0.007 A 
ATOM     18  C   UNL     1       9.462  -0.051  21.455  0.00  0.00    +0.045 A 
BRANCH  13  19
ATOM     19  O   UNL     1      10.210   2.221  21.620  0.00  0.00    -0.507 OA
ATOM     20  H   UNL     1       9.552   2.343  20.917  0.00  0.00    +0.292 HD
ENDBRANCH  13  19
ENDBRANCH  12  16
ENDBRANCH   1  12
TORSDOF 6
ENDMDL
MODEL 6
REMARK VINA RESULT:      -6.2      1.178      2.415
REMARK  Name = 
REMARK  6 active torsions:
REMARK  status: ('A' for Active; 'I' for Inactive)
REMARK    1  A    between atoms: O_1  and  C_2
REMARK    2  A    between atoms: C_5  and  C_6
REMARK    3  A    between atoms: C_6  and  C_7
REMARK    4  A    between atoms: C_7  and  C_8
REMARK    5  A    between atoms: C_10  and  O_11
REMARK    6  A    between atoms: C_13  and  O_14
REMARK                            x       y       z     vdW  Elec       q    Type
REMARK                         _______ _______ _______ _____ _____    ______ ____
ROOT
ATOM      1  C   UNL     1       9.577  -2.692  24.033  0.00  0.00    +0.040 C 
ENDROOT
BRANCH   1   2
ATOM      2  C   UNL     1       8.258  -3.371  23.759  0.00  0.00    -0.040 A 
ATOM      3  C   UNL     1       7.712  -4.261  24.693  0.00  0.00    +0.049 A 
ATOM      4  C   UNL     1       6.524  -4.930  24.408  0.00  0.00    +0.121 A 
ATOM      5  C   UNL     1       5.857  -4.722  23.207  0.00  0.00    +0.090 A 
ATOM      6  C   UNL     1       6.390  -3.826  22.287  0.00  0.00    +0.121 A 
ATOM      7  C   UNL     1       7.577  -3.146  22.552  0.00  0.00    +0.049 A 
BRANCH   4   8
ATOM      8  O   UNL     1       6.048  -5.800  25.344  0.00  0.00    -0.507 OA
ATOM      9  H   UNL     1       6.645  -5.783  26.110  0.00  0.00    +0.292 HD
ENDBRANCH   4   8
BRANCH   6  10
ATOM     10  O   UNL     1       5.716  -3.647  21.114  0.00  0.00    -0.507 OA
ATOM     11  H   UNL     1       4.998  -3.010  21.262  0.00  0.00    +0.292 HD
ENDBRANCH   6  10
ENDBRANCH   1   2
BRANCH   1  12
ATOM     12  C   UNL     1      10.149  -1.952  22.816  0.00  0.00    +0.040 C 
BRANCH  12  16
ATOM     13  C   UNL     1      10.262   2.365  23.041  0.00  0.00    +0.117 A 
ATOM     14  C   UNL     1       9.812   1.735  21.887  0.00  0.00    +0.045 A 
ATOM     15  C   UNL     1       9.766   0.338  21.832  0.00  0.00    +0.007 A 
ATOM     16  C   UNL     1      10.158  -0.439  22.934  0.00  0.00    -0.047 A 
ATOM     17  C   UNL     1      10.611   0.225  24.086  0.00  0.00    +0.007 A 
ATOM     18  C   UNL     1      10.656   1.621  24.145  0.00  0.00    +0.045 A 
BRANCH  13  19
ATOM     19  O   UNL     1      10.311   3.727  23.053  0.00  0.00    -0.507 OA
ATOM     20  H   UNL     1      10.125   4.049  22.156  0.00  0.00    +0.292 HD
ENDBRANCH  13  19
ENDBRANCH  12  16
ENDBRANCH   1  12
TORSDOF 6
ENDMDL
MODEL 7
REMARK VINA RESULT:      -6.2      1.107      1.844
REMARK  Name = 
REMARK  6 active torsions:
REMARK  status: ('A' for Active; 'I' for Inactive)
REMARK    1  A    between atoms: O_1  and  C_2
REMARK    2  A    between atoms: C_5  and  C_6
REMARK    3  A    between atoms: C_6  and  C_7
REMARK    4  A    between atoms: C_7  and  C_8
REMARK    5  A    between atoms: C_10  and  O_11
REMARK    6  A    between atoms: C_13  and  O_14
REMARK                            x       y       z     vdW  Elec       q    Type
REMARK                         _______ _______ _______ _____ _____    ______ ____
ROOT
ATOM      1  C   UNL     1       8.377  -3.715  23.513  0.00  0.00    +0.040 C 
ENDROOT
BRANCH   1   2
ATOM      2  C   UNL     1       7.481  -4.376  24.530  0.00  0.00    -0.040 A 
ATOM      3  C   UNL     1       6.093  -4.410  24.337  0.00  0.00    +0.049 A 
ATOM      4  C   UNL     1       5.267  -4.970  25.308  0.00  0.00    +0.121 A 
ATOM      5  C   UNL     1       5.798  -5.510  26.474  0.00  0.00    +0.090 A 
ATOM      6  C   UNL     1       7.175  -5.490  26.658  0.00  0.00    +0.121 A 
ATOM      7  C   UNL     1       8.021  -4.936  25.699  0.00  0.00    +0.049 A 
BRANCH   4   8
ATOM      8  O   UNL     1       3.923  -4.959  25.079  0.00  0.00    -0.507 OA
ATOM      9  H   UNL     1       3.754  -4.428  24.282  0.00  0.00    +0.292 HD
ENDBRANCH   4   8
BRANCH   6  10
ATOM     10  O   UNL     1       7.667  -6.022  27.814  0.00  0.00    -0.507 OA
ATOM     11  H   UNL     1       8.608  -5.790  27.889  0.00  0.00    +0.292 HD
ENDBRANCH   6  10
ENDBRANCH   1   2
BRANCH   1  12
ATOM     12  C   UNL     1       9.442  -2.802  24.136  0.00  0.00    +0.040 C 
BRANCH  12  16
ATOM     13  C   UNL     1       9.982   1.006  22.160  0.00  0.00    +0.117 A 
ATOM     14  C   UNL     1      10.313   0.859  23.501  0.00  0.00    +0.045 A 
ATOM     15  C   UNL     1      10.148  -0.381  24.125  0.00  0.00    +0.007 A 
ATOM     16  C   UNL     1       9.662  -1.488  23.410  0.00  0.00    -0.047 A 
ATOM     17  C   UNL     1       9.333  -1.310  22.056  0.00  0.00    +0.007 A 
ATOM     18  C   UNL     1       9.499  -0.072  21.429  0.00  0.00    +0.045 A 
BRANCH  13  19
ATOM     19  O   UNL     1      10.138   2.233  21.589  0.00  0.00    -0.507 OA
ATOM     20  H   UNL     1       9.504   2.315  20.858  0.00  0.00    +0.292 HD
ENDBRANCH  13  19
ENDBRANCH  12  16
ENDBRANCH   1  12
TORSDOF 6
ENDMDL
MODEL 8
REMARK VINA RESULT:      -6.1      2.145      2.572
REMARK  Name = 
REMARK  6 active torsions:
REMARK  status: ('A' for Active; 'I' for Inactive)
REMARK    1  A    between atoms: O_1  and  C_2
REMARK    2  A    between atoms: C_5  and  C_6
REMARK    3  A    between atoms: C_6  and  C_7
REMARK    4  A    between atoms: C_7  and  C_8
REMARK    5  A    between atoms: C_10  and  O_11
REMARK    6  A    between atoms: C_13  and  O_14
REMARK                            x       y       z     vdW  Elec       q    Type
REMARK                         _______ _______ _______ _____ _____    ______ ____
ROOT
ATOM      1  C   UNL     1       9.438  -2.587  24.077  0.00  0.00    +0.040 C 
ENDROOT
BRANCH   1   2
ATOM      2  C   UNL     1       7.973  -2.778  23.769  0.00  0.00    -0.040 A 
ATOM      3  C   UNL     1       7.575  -3.410  22.583  0.00  0.00    +0.049 A 
ATOM      4  C   UNL     1       6.222  -3.531  22.277  0.00  0.00    +0.121 A 
ATOM      5  C   UNL     1       5.248  -3.040  23.138  0.00  0.00    +0.090 A 
ATOM      6  C   UNL     1       5.642  -2.428  24.322  0.00  0.00    +0.121 A 
ATOM      7  C   UNL     1       6.991  -2.297  24.649  0.00  0.00    +0.049 A 
BRANCH   4   8
ATOM      8  O   UNL     1       5.891  -4.135  21.101  0.00  0.00    -0.507 OA
ATOM      9  H   UNL     1       5.128  -3.668  20.721  0.00  0.00    +0.292 HD
ENDBRANCH   4   8
BRANCH   6  10
ATOM     10  O   UNL     1       4.664  -1.951  25.145  0.00  0.00    -0.507 OA
ATOM     11  H   UNL     1       4.038  -2.669  25.333  0.00  0.00    +0.292 HD
ENDBRANCH   6  10
ENDBRANCH   1   2
BRANCH   1  12
ATOM     12  C   UNL     1      10.227  -1.948  22.926  0.00  0.00    +0.040 C 
BRANCH  12  16
ATOM     13  C   UNL     1      10.131   2.375  23.005  0.00  0.00    +0.117 A 
ATOM     14  C   UNL     1      10.586   1.663  24.108  0.00  0.00    +0.045 A 
ATOM     15  C   UNL     1      10.626   0.266  24.065  0.00  0.00    +0.007 A 
ATOM     16  C   UNL     1      10.223  -0.431  22.914  0.00  0.00    -0.047 A 
ATOM     17  C   UNL     1       9.765   0.315  21.815  0.00  0.00    +0.007 A 
ATOM     18  C   UNL     1       9.726   1.711  21.855  0.00  0.00    +0.045 A 
BRANCH  13  19
ATOM     19  O   UNL     1      10.088   3.734  23.089  0.00  0.00    -0.507 OA
ATOM     20  H   UNL     1       9.811   4.087  22.228  0.00  0.00    +0.292 HD
ENDBRANCH  13  19
ENDBRANCH  12  16
ENDBRANCH   1  12
TORSDOF 6
ENDMDL
MODEL 9
REMARK VINA RESULT:      -6.0      2.165      6.758
REMARK  Name = 
REMARK  6 active torsions:
REMARK  status: ('A' for Active; 'I' for Inactive)
REMARK    1  A    between atoms: O_1  and  C_2
REMARK    2  A    between atoms: C_5  and  C_6
REMARK    3  A    between atoms: C_6  and  C_7
REMARK    4  A    between atoms: C_7  and  C_8
REMARK    5  A    between atoms: C_10  and  O_11
REMARK    6  A    between atoms: C_13  and  O_14
REMARK                            x       y       z     vdW  Elec       q    Type
REMARK                         _______ _______ _______ _____ _____    ______ ____
ROOT
ATOM      1  C   UNL     1       8.560  -3.155  25.772  0.00  0.00    +0.040 C 
ENDROOT
BRANCH   1   2
ATOM      2  C   UNL     1       9.137  -2.064  24.905  0.00  0.00    -0.040 A 
ATOM      3  C   UNL     1       9.199  -0.745  25.373  0.00  0.00    +0.049 A 
ATOM      4  C   UNL     1       9.678   0.268  24.545  0.00  0.00    +0.121 A 
ATOM      5  C   UNL     1      10.109  -0.009  23.253  0.00  0.00    +0.090 A 
ATOM      6  C   UNL     1      10.062  -1.320  22.795  0.00  0.00    +0.121 A 
ATOM      7  C   UNL     1       9.587  -2.349  23.606  0.00  0.00    +0.049 A 
BRANCH   4   8
ATOM      8  O   UNL     1       9.697   1.537  25.044  0.00  0.00    -0.507 OA
ATOM      9  H   UNL     1       9.655   1.484  26.014  0.00  0.00    +0.292 HD
ENDBRANCH   4   8
BRANCH   6  10
ATOM     10  O   UNL     1      10.487  -1.561  21.520  0.00  0.00    -0.507 OA
ATOM     11  H   UNL     1      10.163  -2.434  21.244  0.00  0.00    +0.292 HD
ENDBRANCH   6  10
ENDBRANCH   1   2
BRANCH   1  12
ATOM     12  C   UNL     1       8.685  -4.556  25.158  0.00  0.00    +0.040 C 
BRANCH  12  16
ATOM     13  C   UNL     1       5.135  -5.885  23.076  0.00  0.00    +0.117 A 
ATOM     14  C   UNL     1       6.339  -5.754  22.396  0.00  0.00    +0.045 A 
ATOM     15  C   UNL     1       7.483  -5.338  23.083  0.00  0.00    +0.007 A 
ATOM     16  C   UNL     1       7.436  -5.061  24.459  0.00  0.00    -0.047 A 
ATOM     17  C   UNL     1       6.205  -5.199  25.121  0.00  0.00    +0.007 A 
ATOM     18  C   UNL     1       5.060  -5.617  24.437  0.00  0.00    +0.045 A 
BRANCH  13  19
ATOM     19  O   UNL     1       4.036  -6.275  22.372  0.00  0.00    -0.507 OA
ATOM     20  H   UNL     1       4.152  -7.202  22.109  0.00  0.00    +0.292 HD
ENDBRANCH  13  19
ENDBRANCH  12  16
ENDBRANCH   1  12
TORSDOF 6
ENDMDL
