MODEL 1
REMARK VINA RESULT:      -4.5      0.000      0.000
REMARK  Name = 
REMARK  11 active torsions:
REMARK  status: ('A' for Active; 'I' for Inactive)
REMARK    1  A    between atoms: N_1  and  C_2
REMARK    2  A    between atoms: C_2  and  C_3
REMARK    3  A    between atoms: C_3  and  C_4
REMARK    4  A    between atoms: C_4  and  C_5
REMARK    5  A    between atoms: C_5  and  O_6
REMARK    6  A    between atoms: C_5  and  P_7
REMARK    7  A    between atoms: C_5  and  P_11
REMARK    8  A    between atoms: P_7  and  O_8
REMARK    9  A    between atoms: P_7  and  O_9
REMARK   10  A    between atoms: P_11  and  O_12
REMARK   11  A    between atoms: P_11  and  O_13
REMARK                            x       y       z     vdW  Elec       q    Type
REMARK                         _______ _______ _______ _____ _____    ______ ____
ROOT
ATOM      1  C   UNL     1       7.668  -4.254  24.458  0.00  0.00    +0.267 C 
ENDROOT
BRANCH   1   2
ATOM      2  P   UNL     1       8.633  -2.706  24.308  0.00  0.00    +0.371 P 
ATOM      3  O   UNL     1       9.450  -1.397  24.181  0.00  0.00    -0.255 OA
BRANCH   2   4
ATOM      4  O   UNL     1       8.335  -2.821  22.673  0.00  0.00    -0.322 OA
ATOM      5  H   UNL     1       9.034  -3.413  22.301  0.00  0.00    +0.220 HD
ENDBRANCH   2   4
BRANCH   2   6
ATOM      6  O   UNL     1      10.039  -3.556  24.180  0.00  0.00    -0.322 OA
ATOM      7  H   UNL     1       9.760  -4.498  24.148  0.00  0.00    +0.220 HD
ENDBRANCH   2   6
ENDBRANCH   1   2
BRANCH   1   8
ATOM      8  P   UNL     1       8.221  -5.169  25.968  0.00  0.00    +0.371 P 
ATOM      9  O   UNL     1       7.178  -5.963  26.670  0.00  0.00    -0.255 OA
BRANCH   8  10
ATOM     10  O   UNL     1       8.880  -4.017  26.879  0.00  0.00    -0.322 OA
ATOM     11  H   UNL     1       8.270  -3.268  27.025  0.00  0.00    +0.220 HD
ENDBRANCH   8  10
BRANCH   8  12
ATOM     12  O   UNL     1       9.536  -5.993  25.544  0.00  0.00    -0.322 OA
ATOM     13  H   UNL     1       9.595  -6.172  24.577  0.00  0.00    +0.220 HD
ENDBRANCH   8  12
ENDBRANCH   1   8
BRANCH   1  14
ATOM     14  O   UNL     1       6.246  -3.964  24.641  0.00  0.00    -0.367 OA
ATOM     15  H   UNL     1       6.218  -3.199  25.253  0.00  0.00    +0.212 HD
ENDBRANCH   1  14
BRANCH   1  16
ATOM     16  C   UNL     1       7.866  -5.214  23.248  0.00  0.00    +0.061 C 
BRANCH  16  17
ATOM     17  C   UNL     1       6.607  -5.873  22.674  0.00  0.00    +0.019 C 
BRANCH  17  18
ATOM     18  C   UNL     1       6.180  -5.277  21.329  0.00  0.00    +0.078 C 
BRANCH  18  19
ATOM     19  N   UNL     1       5.710  -3.905  21.463  0.00  0.00    -0.330 NA
ATOM     20  H   UNL     1       5.766  -3.435  20.560  0.00  0.00    +0.118 HD
ATOM     21  H   UNL     1       4.721  -3.911  21.715  0.00  0.00    +0.118 HD
ENDBRANCH  18  19
ENDBRANCH  17  18
ENDBRANCH  16  17
ENDBRANCH   1  16
TORSDOF 11
ENDMDL
MODEL 2
REMARK VINA RESULT:      -4.4      1.134      3.210
REMARK  Name = 
REMARK  11 active torsions:
REMARK  status: ('A' for Active; 'I' for Inactive)
REMARK    1  A    between atoms: N_1  and  C_2
REMARK    2  A    between atoms: C_2  and  C_3
REMARK    3  A    between atoms: C_3  and  C_4
REMARK    4  A    between atoms: C_4  and  C_5
REMARK    5  A    between atoms: C_5  and  O_6
REMARK    6  A    between atoms: C_5  and  P_7
REMARK    7  A    between atoms: C_5  and  P_11
REMARK    8  A    between atoms: P_7  and  O_8
REMARK    9  A    between atoms: P_7  and  O_9
REMARK   10  A    between atoms: P_11  and  O_12
REMARK   11  A    between atoms: P_11  and  O_13
REMARK                            x       y       z     vdW  Elec       q    Type
REMARK                         _______ _______ _______ _____ _____    ______ ____
ROOT
ATOM      1  C   UNL     1       7.912  -4.620  24.466  0.00  0.00    +0.267 C 
ENDROOT
BRANCH   1   2
ATOM      2  P   UNL     1       7.469  -4.641  26.242  0.00  0.00    +0.371 P 
ATOM      3  O   UNL     1       7.095  -4.660  27.744  0.00  0.00    -0.255 OA
BRANCH   2   4
ATOM      4  O   UNL     1       8.872  -3.774  26.478  0.00  0.00    -0.322 OA
ATOM      5  H   UNL     1       8.597  -2.867  26.760  0.00  0.00    +0.220 HD
ENDBRANCH   2   4
BRANCH   2   6
ATOM      6  O   UNL     1       8.244  -6.080  26.451  0.00  0.00    -0.322 OA
ATOM      7  H   UNL     1       7.607  -6.637  26.953  0.00  0.00    +0.220 HD
ENDBRANCH   2   6
ENDBRANCH   1   2
BRANCH   1   8
ATOM      8  P   UNL     1       8.532  -2.935  24.017  0.00  0.00    +0.371 P 
ATOM      9  O   UNL     1       8.012  -1.807  24.834  0.00  0.00    -0.255 OA
BRANCH   8  10
ATOM     10  O   UNL     1       8.181  -2.816  22.450  0.00  0.00    -0.322 OA
ATOM     11  H   UNL     1       7.245  -2.580  22.299  0.00  0.00    +0.220 HD
ENDBRANCH   8  10
BRANCH   8  12
ATOM     12  O   UNL     1      10.136  -3.044  23.948  0.00  0.00    -0.322 OA
ATOM     13  H   UNL     1      10.598  -2.190  24.115  0.00  0.00    +0.220 HD
ENDBRANCH   8  12
ENDBRANCH   1   8
BRANCH   1  14
ATOM     14  O   UNL     1       9.003  -5.554  24.191  0.00  0.00    -0.367 OA
ATOM     15  H   UNL     1       9.818  -5.081  24.459  0.00  0.00    +0.212 HD
ENDBRANCH   1  14
BRANCH   1  16
ATOM     16  C   UNL     1       6.702  -4.921  23.534  0.00  0.00    +0.061 C 
BRANCH  16  17
ATOM     17  C   UNL     1       6.896  -6.018  22.480  0.00  0.00    +0.019 C 
BRANCH  17  18
ATOM     18  C   UNL     1       6.407  -5.603  21.089  0.00  0.00    +0.078 C 
BRANCH  18  19
ATOM     19  N   UNL     1       5.782  -4.288  21.098  0.00  0.00    -0.330 NA
ATOM     20  H   UNL     1       4.789  -4.379  20.886  0.00  0.00    +0.118 HD
ATOM     21  H   UNL     1       5.833  -3.897  22.039  0.00  0.00    +0.118 HD
ENDBRANCH  18  19
ENDBRANCH  17  18
ENDBRANCH  16  17
ENDBRANCH   1  16
TORSDOF 11
ENDMDL
MODEL 3
REMARK VINA RESULT:      -4.2      4.920      6.156
REMARK  Name = 
REMARK  11 active torsions:
REMARK  status: ('A' for Active; 'I' for Inactive)
REMARK    1  A    between atoms: N_1  and  C_2
REMARK    2  A    between atoms: C_2  and  C_3
REMARK    3  A    between atoms: C_3  and  C_4
REMARK    4  A    between atoms: C_4  and  C_5
REMARK    5  A    between atoms: C_5  and  O_6
REMARK    6  A    between atoms: C_5  and  P_7
REMARK    7  A    between atoms: C_5  and  P_11
REMARK    8  A    between atoms: P_7  and  O_8
REMARK    9  A    between atoms: P_7  and  O_9
REMARK   10  A    between atoms: P_11  and  O_12
REMARK   11  A    between atoms: P_11  and  O_13
REMARK                            x       y       z     vdW  Elec       q    Type
REMARK                         _______ _______ _______ _____ _____    ______ ____
ROOT
ATOM      1  C   UNL     1       8.714   0.953  22.018  0.00  0.00    +0.267 C 
ENDROOT
BRANCH   1   2
ATOM      2  P   UNL     1       9.934   1.986  22.909  0.00  0.00    +0.371 P 
ATOM      3  O   UNL     1      10.966   2.860  23.663  0.00  0.00    -0.255 OA
BRANCH   2   4
ATOM      4  O   UNL     1       8.804   3.205  22.796  0.00  0.00    -0.322 OA
ATOM      5  H   UNL     1       8.787   3.655  23.677  0.00  0.00    +0.220 HD
ENDBRANCH   2   4
BRANCH   2   6
ATOM      6  O   UNL     1      10.648   2.425  21.491  0.00  0.00    -0.322 OA
ATOM      7  H   UNL     1      11.604   2.501  21.705  0.00  0.00    +0.220 HD
ENDBRANCH   2   6
ENDBRANCH   1   2
BRANCH   1   8
ATOM      8  P   UNL     1       7.132   0.920  22.978  0.00  0.00    +0.371 P 
ATOM      9  O   UNL     1       6.141   1.975  22.642  0.00  0.00    -0.255 OA
BRANCH   8  10
ATOM     10  O   UNL     1       7.627   0.960  24.509  0.00  0.00    -0.322 OA
ATOM     11  H   UNL     1       6.879   1.000  25.137  0.00  0.00    +0.220 HD
ENDBRANCH   8  10
BRANCH   8  12
ATOM     12  O   UNL     1       6.579  -0.588  22.890  0.00  0.00    -0.322 OA
ATOM     13  H   UNL     1       7.277  -1.273  23.015  0.00  0.00    +0.220 HD
ENDBRANCH   8  12
ENDBRANCH   1   8
BRANCH   1  14
ATOM     14  O   UNL     1       8.399   1.531  20.712  0.00  0.00    -0.367 OA
ATOM     15  H   UNL     1       8.909   2.367  20.672  0.00  0.00    +0.212 HD
ENDBRANCH   1  14
BRANCH   1  16
ATOM     16  C   UNL     1       9.175  -0.524  21.852  0.00  0.00    +0.061 C 
BRANCH  16  17
ATOM     17  C   UNL     1      10.272  -1.018  22.803  0.00  0.00    +0.019 C 
BRANCH  17  18
ATOM     18  C   UNL     1       9.843  -2.232  23.633  0.00  0.00    +0.078 C 
BRANCH  18  19
ATOM     19  N   UNL     1       8.908  -1.869  24.689  0.00  0.00    -0.330 NA
ATOM     20  H   UNL     1       8.330  -1.088  24.382  0.00  0.00    +0.118 HD
ATOM     21  H   UNL     1       8.266  -2.646  24.852  0.00  0.00    +0.118 HD
ENDBRANCH  18  19
ENDBRANCH  17  18
ENDBRANCH  16  17
ENDBRANCH   1  16
TORSDOF 11
ENDMDL
MODEL 4
REMARK VINA RESULT:      -4.2      6.257      7.032
REMARK  Name = 
REMARK  11 active torsions:
REMARK  status: ('A' for Active; 'I' for Inactive)
REMARK    1  A    between atoms: N_1  and  C_2
REMARK    2  A    between atoms: C_2  and  C_3
REMARK    3  A    between atoms: C_3  and  C_4
REMARK    4  A    between atoms: C_4  and  C_5
REMARK    5  A    between atoms: C_5  and  O_6
REMARK    6  A    between atoms: C_5  and  P_7
REMARK    7  A    between atoms: C_5  and  P_11
REMARK    8  A    between atoms: P_7  and  O_8
REMARK    9  A    between atoms: P_7  and  O_9
REMARK   10  A    between atoms: P_11  and  O_12
REMARK   11  A    between atoms: P_11  and  O_13
REMARK                            x       y       z     vdW  Elec       q    Type
REMARK                         _______ _______ _______ _____ _____    ______ ____
ROOT
ATOM      1  C   UNL     1       8.097   1.718  22.462  0.00  0.00    +0.267 C 
ENDROOT
BRANCH   1   2
ATOM      2  P   UNL     1       9.672   2.407  23.091  0.00  0.00    +0.371 P 
ATOM      3  O   UNL     1      11.004   2.989  23.622  0.00  0.00    -0.255 OA
BRANCH   2   4
ATOM      4  O   UNL     1       9.052   3.894  22.665  0.00  0.00    -0.322 OA
ATOM      5  H   UNL     1       9.825   4.462  22.424  0.00  0.00    +0.220 HD
ENDBRANCH   2   4
BRANCH   2   6
ATOM      6  O   UNL     1      10.385   2.208  21.619  0.00  0.00    -0.322 OA
ATOM      7  H   UNL     1      11.131   1.590  21.784  0.00  0.00    +0.220 HD
ENDBRANCH   2   6
ENDBRANCH   1   2
BRANCH   1   8
ATOM      8  P   UNL     1       6.701   2.803  23.008  0.00  0.00    +0.371 P 
ATOM      9  O   UNL     1       6.879   3.491  24.314  0.00  0.00    -0.255 OA
BRANCH   8  10
ATOM     10  O   UNL     1       5.428   1.820  22.962  0.00  0.00    -0.322 OA
ATOM     11  H   UNL     1       5.495   1.097  23.617  0.00  0.00    +0.220 HD
ENDBRANCH   8  10
BRANCH   8  12
ATOM     12  O   UNL     1       6.366   3.771  21.767  0.00  0.00    -0.322 OA
ATOM     13  H   UNL     1       5.452   3.660  21.415  0.00  0.00    +0.220 HD
ENDBRANCH   8  12
ENDBRANCH   1   8
BRANCH   1  14
ATOM     14  O   UNL     1       8.078   1.716  20.999  0.00  0.00    -0.367 OA
ATOM     15  H   UNL     1       8.409   2.601  20.738  0.00  0.00    +0.212 HD
ENDBRANCH   1  14
BRANCH   1  16
ATOM     16  C   UNL     1       7.800   0.289  23.003  0.00  0.00    +0.061 C 
BRANCH  16  17
ATOM     17  C   UNL     1       9.001  -0.529  23.492  0.00  0.00    +0.019 C 
BRANCH  17  18
ATOM     18  C   UNL     1       9.490  -1.549  22.458  0.00  0.00    +0.078 C 
BRANCH  18  19
ATOM     19  N   UNL     1       9.771  -0.930  21.169  0.00  0.00    -0.330 NA
ATOM     20  H   UNL     1       9.674  -1.623  20.429  0.00  0.00    +0.118 HD
ATOM     21  H   UNL     1       9.068  -0.215  20.979  0.00  0.00    +0.118 HD
ENDBRANCH  18  19
ENDBRANCH  17  18
ENDBRANCH  16  17
ENDBRANCH   1  16
TORSDOF 11
ENDMDL
MODEL 5
REMARK VINA RESULT:      -4.2      2.664      3.724
REMARK  Name = 
REMARK  11 active torsions:
REMARK  status: ('A' for Active; 'I' for Inactive)
REMARK    1  A    between atoms: N_1  and  C_2
REMARK    2  A    between atoms: C_2  and  C_3
REMARK    3  A    between atoms: C_3  and  C_4
REMARK    4  A    between atoms: C_4  and  C_5
REMARK    5  A    between atoms: C_5  and  O_6
REMARK    6  A    between atoms: C_5  and  P_7
REMARK    7  A    between atoms: C_5  and  P_11
REMARK    8  A    between atoms: P_7  and  O_8
REMARK    9  A    between atoms: P_7  and  O_9
REMARK   10  A    between atoms: P_11  and  O_12
REMARK   11  A    between atoms: P_11  and  O_13
REMARK                            x       y       z     vdW  Elec       q    Type
REMARK                         _______ _______ _______ _____ _____    ______ ____
ROOT
ATOM      1  C   UNL     1       8.808  -3.388  24.782  0.00  0.00    +0.267 C 
ENDROOT
BRANCH   1   2
ATOM      2  P   UNL     1       7.448  -3.254  23.565  0.00  0.00    +0.371 P 
ATOM      3  O   UNL     1       6.297  -3.140  22.535  0.00  0.00    -0.255 OA
BRANCH   2   4
ATOM      4  O   UNL     1       7.837  -4.816  23.137  0.00  0.00    -0.322 OA
ATOM      5  H   UNL     1       7.929  -5.324  23.981  0.00  0.00    +0.220 HD
ENDBRANCH   2   4
BRANCH   2   6
ATOM      6  O   UNL     1       8.471  -2.619  22.441  0.00  0.00    -0.322 OA
ATOM      7  H   UNL     1       9.014  -3.381  22.138  0.00  0.00    +0.220 HD
ENDBRANCH   2   6
ENDBRANCH   1   2
BRANCH   1   8
ATOM      8  P   UNL     1       8.666  -5.004  25.673  0.00  0.00    +0.371 P 
ATOM      9  O   UNL     1       7.295  -5.566  25.794  0.00  0.00    -0.255 OA
BRANCH   8  10
ATOM     10  O   UNL     1       9.373  -4.710  27.089  0.00  0.00    -0.322 OA
ATOM     11  H   UNL     1       8.764  -4.286  27.724  0.00  0.00    +0.220 HD
ENDBRANCH   8  10
BRANCH   8  12
ATOM     12  O   UNL     1       9.750  -5.988  25.005  0.00  0.00    -0.322 OA
ATOM     13  H   UNL     1      10.471  -5.516  24.528  0.00  0.00    +0.220 HD
ENDBRANCH   8  12
ENDBRANCH   1   8
BRANCH   1  14
ATOM     14  O   UNL     1      10.107  -3.394  24.110  0.00  0.00    -0.367 OA
ATOM     15  H   UNL     1       9.985  -2.839  23.312  0.00  0.00    +0.212 HD
ENDBRANCH   1  14
BRANCH   1  16
ATOM     16  C   UNL     1       8.769  -2.269  25.863  0.00  0.00    +0.061 C 
BRANCH  16  17
ATOM     17  C   UNL     1       8.541  -0.836  25.367  0.00  0.00    +0.019 C 
BRANCH  17  18
ATOM     18  C   UNL     1       9.846  -0.099  25.048  0.00  0.00    +0.078 C 
BRANCH  18  19
ATOM     19  N   UNL     1      10.299  -0.354  23.687  0.00  0.00    -0.330 NA
ATOM     20  H   UNL     1      10.172  -1.340  23.463  0.00  0.00    +0.118 HD
ATOM     21  H   UNL     1       9.708   0.160  23.034  0.00  0.00    +0.118 HD
ENDBRANCH  18  19
ENDBRANCH  17  18
ENDBRANCH  16  17
ENDBRANCH   1  16
TORSDOF 11
ENDMDL
MODEL 6
REMARK VINA RESULT:      -4.2      5.376      7.236
REMARK  Name = 
REMARK  11 active torsions:
REMARK  status: ('A' for Active; 'I' for Inactive)
REMARK    1  A    between atoms: N_1  and  C_2
REMARK    2  A    between atoms: C_2  and  C_3
REMARK    3  A    between atoms: C_3  and  C_4
REMARK    4  A    between atoms: C_4  and  C_5
REMARK    5  A    between atoms: C_5  and  O_6
REMARK    6  A    between atoms: C_5  and  P_7
REMARK    7  A    between atoms: C_5  and  P_11
REMARK    8  A    between atoms: P_7  and  O_8
REMARK    9  A    between atoms: P_7  and  O_9
REMARK   10  A    between atoms: P_11  and  O_12
REMARK   11  A    between atoms: P_11  and  O_13
REMARK                            x       y       z     vdW  Elec       q    Type
REMARK                         _______ _______ _______ _____ _____    ______ ____
ROOT
ATOM      1  C   UNL     1       8.736   1.097  23.601  0.00  0.00    +0.267 C 
ENDROOT
BRANCH   1   2
ATOM      2  P   UNL     1       9.234  -0.550  24.223  0.00  0.00    +0.371 P 
ATOM      3  O   UNL     1       9.656  -1.944  24.749  0.00  0.00    -0.255 OA
BRANCH   2   4
ATOM      4  O   UNL     1       9.800   0.261  25.564  0.00  0.00    -0.322 OA
ATOM      5  H   UNL     1      10.766   0.411  25.414  0.00  0.00    +0.220 HD
ENDBRANCH   2   4
BRANCH   2   6
ATOM      6  O   UNL     1      10.688  -0.437  23.457  0.00  0.00    -0.322 OA
ATOM      7  H   UNL     1      10.478  -0.542  22.503  0.00  0.00    +0.220 HD
ENDBRANCH   2   6
ENDBRANCH   1   2
BRANCH   1   8
ATOM      8  P   UNL     1       9.081   1.189  21.785  0.00  0.00    +0.371 P 
ATOM      9  O   UNL     1       9.354  -0.105  21.105  0.00  0.00    -0.255 OA
BRANCH   8  10
ATOM     10  O   UNL     1      10.296   2.240  21.691  0.00  0.00    -0.322 OA
ATOM     11  H   UNL     1      10.655   2.308  20.785  0.00  0.00    +0.220 HD
ENDBRANCH   8  10
BRANCH   8  12
ATOM     12  O   UNL     1       7.892   2.060  21.140  0.00  0.00    -0.322 OA
ATOM     13  H   UNL     1       7.288   1.539  20.561  0.00  0.00    +0.220 HD
ENDBRANCH   8  12
ENDBRANCH   1   8
BRANCH   1  14
ATOM     14  O   UNL     1       7.297   1.301  23.764  0.00  0.00    -0.367 OA
ATOM     15  H   UNL     1       6.929   0.407  23.925  0.00  0.00    +0.212 HD
ENDBRANCH   1  14
BRANCH   1  16
ATOM     16  C   UNL     1       9.521   2.263  24.271  0.00  0.00    +0.061 C 
BRANCH  16  17
ATOM     17  C   UNL     1       8.706   3.487  24.703  0.00  0.00    +0.019 C 
BRANCH  17  18
ATOM     18  C   UNL     1       9.011   4.735  23.869  0.00  0.00    +0.078 C 
BRANCH  18  19
ATOM     19  N   UNL     1       8.335   4.709  22.578  0.00  0.00    -0.330 NA
ATOM     20  H   UNL     1       8.318   3.754  22.220  0.00  0.00    +0.118 HD
ATOM     21  H   UNL     1       7.359   4.979  22.704  0.00  0.00    +0.118 HD
ENDBRANCH  18  19
ENDBRANCH  17  18
ENDBRANCH  16  17
ENDBRANCH   1  16
TORSDOF 11
ENDMDL
MODEL 7
REMARK VINA RESULT:      -4.2      6.760      8.296
REMARK  Name = 
REMARK  11 active torsions:
REMARK  status: ('A' for Active; 'I' for Inactive)
REMARK    1  A    between atoms: N_1  and  C_2
REMARK    2  A    between atoms: C_2  and  C_3
REMARK    3  A    between atoms: C_3  and  C_4
REMARK    4  A    between atoms: C_4  and  C_5
REMARK    5  A    between atoms: C_5  and  O_6
REMARK    6  A    between atoms: C_5  and  P_7
REMARK    7  A    between atoms: C_5  and  P_11
REMARK    8  A    between atoms: P_7  and  O_8
REMARK    9  A    between atoms: P_7  and  O_9
REMARK   10  A    between atoms: P_11  and  O_12
REMARK   11  A    between atoms: P_11  and  O_13
REMARK                            x       y       z     vdW  Elec       q    Type
REMARK                         _______ _______ _______ _____ _____    ______ ____
ROOT
ATOM      1  C   UNL     1       9.339   2.445  22.740  0.00  0.00    +0.267 C 
ENDROOT
BRANCH   1   2
ATOM      2  P   UNL     1       7.589   2.862  22.404  0.00  0.00    +0.371 P 
ATOM      3  O   UNL     1       6.108   3.214  22.119  0.00  0.00    -0.255 OA
BRANCH   2   4
ATOM      4  O   UNL     1       8.116   4.435  22.261  0.00  0.00    -0.322 OA
ATOM      5  H   UNL     1       8.805   4.565  22.959  0.00  0.00    +0.220 HD
ENDBRANCH   2   4
BRANCH   2   6
ATOM      6  O   UNL     1       7.287   3.038  24.014  0.00  0.00    -0.322 OA
ATOM      7  H   UNL     1       7.262   2.120  24.366  0.00  0.00    +0.220 HD
ENDBRANCH   2   6
ENDBRANCH   1   2
BRANCH   1   8
ATOM      8  P   UNL     1       9.409   0.900  23.757  0.00  0.00    +0.371 P 
ATOM      9  O   UNL     1      10.527  -0.031  23.455  0.00  0.00    -0.255 OA
BRANCH   8  10
ATOM     10  O   UNL     1       7.951   0.252  23.548  0.00  0.00    -0.322 OA
ATOM     11  H   UNL     1       7.852  -0.595  24.025  0.00  0.00    +0.220 HD
ENDBRANCH   8  10
BRANCH   8  12
ATOM     12  O   UNL     1       9.304   1.363  25.294  0.00  0.00    -0.322 OA
ATOM     13  H   UNL     1       8.530   1.944  25.480  0.00  0.00    +0.220 HD
ENDBRANCH   8  12
ENDBRANCH   1   8
BRANCH   1  14
ATOM     14  O   UNL     1      10.054   2.160  21.496  0.00  0.00    -0.367 OA
ATOM     15  H   UNL     1       9.916   2.952  20.935  0.00  0.00    +0.212 HD
ENDBRANCH   1  14
BRANCH   1  16
ATOM     16  C   UNL     1      10.083   3.551  23.544  0.00  0.00    +0.061 C 
BRANCH  16  17
ATOM     17  C   UNL     1      11.607   3.616  23.383  0.00  0.00    +0.019 C 
BRANCH  17  18
ATOM     18  C   UNL     1      12.141   5.050  23.323  0.00  0.00    +0.078 C 
BRANCH  18  19
ATOM     19  N   UNL     1      13.596   5.095  23.375  0.00  0.00    -0.330 NA
ATOM     20  H   UNL     1      13.911   4.903  24.325  0.00  0.00    +0.118 HD
ATOM     21  H   UNL     1      13.977   4.345  22.797  0.00  0.00    +0.118 HD
ENDBRANCH  18  19
ENDBRANCH  17  18
ENDBRANCH  16  17
ENDBRANCH   1  16
TORSDOF 11
ENDMDL
MODEL 8
REMARK VINA RESULT:      -4.1      4.227      5.816
REMARK  Name = 
REMARK  11 active torsions:
REMARK  status: ('A' for Active; 'I' for Inactive)
REMARK    1  A    between atoms: N_1  and  C_2
REMARK    2  A    between atoms: C_2  and  C_3
REMARK    3  A    between atoms: C_3  and  C_4
REMARK    4  A    between atoms: C_4  and  C_5
REMARK    5  A    between atoms: C_5  and  O_6
REMARK    6  A    between atoms: C_5  and  P_7
REMARK    7  A    between atoms: C_5  and  P_11
REMARK    8  A    between atoms: P_7  and  O_8
REMARK    9  A    between atoms: P_7  and  O_9
REMARK   10  A    between atoms: P_11  and  O_12
REMARK   11  A    between atoms: P_11  and  O_13
REMARK                            x       y       z     vdW  Elec       q    Type
REMARK                         _______ _______ _______ _____ _____    ______ ____
ROOT
ATOM      1  C   UNL     1       8.935  -0.328  23.759  0.00  0.00    +0.267 C 
ENDROOT
BRANCH   1   2
ATOM      2  P   UNL     1       8.273  -1.268  25.183  0.00  0.00    +0.371 P 
ATOM      3  O   UNL     1       7.713  -2.063  26.387  0.00  0.00    -0.255 OA
BRANCH   2   4
ATOM      4  O   UNL     1       9.418  -0.467  26.089  0.00  0.00    -0.322 OA
ATOM      5  H   UNL     1      10.198  -1.073  26.156  0.00  0.00    +0.220 HD
ENDBRANCH   2   4
BRANCH   2   6
ATOM      6  O   UNL     1       9.296  -2.521  24.873  0.00  0.00    -0.322 OA
ATOM      7  H   UNL     1       9.729  -2.287  24.022  0.00  0.00    +0.220 HD
ENDBRANCH   2   6
ENDBRANCH   1   2
BRANCH   1   8
ATOM      8  P   UNL     1       9.530  -1.517  22.472  0.00  0.00    +0.371 P 
ATOM      9  O   UNL     1      10.865  -2.127  22.712  0.00  0.00    -0.255 OA
BRANCH   8  10
ATOM     10  O   UNL     1       9.443  -0.664  21.110  0.00  0.00    -0.322 OA
ATOM     11  H   UNL     1       8.609  -0.159  21.044  0.00  0.00    +0.220 HD
ENDBRANCH   8  10
BRANCH   8  12
ATOM     12  O   UNL     1       8.334  -2.566  22.235  0.00  0.00    -0.322 OA
ATOM     13  H   UNL     1       7.624  -2.517  22.917  0.00  0.00    +0.220 HD
ENDBRANCH   8  12
ENDBRANCH   1   8
BRANCH   1  14
ATOM     14  O   UNL     1       7.885   0.475  23.133  0.00  0.00    -0.367 OA
ATOM     15  H   UNL     1       7.194   0.574  23.820  0.00  0.00    +0.212 HD
ENDBRANCH   1  14
BRANCH   1  16
ATOM     16  C   UNL     1      10.146   0.575  24.136  0.00  0.00    +0.061 C 
BRANCH  16  17
ATOM     17  C   UNL     1       9.913   2.090  24.112  0.00  0.00    +0.019 C 
BRANCH  17  18
ATOM     18  C   UNL     1      10.568   2.776  22.909  0.00  0.00    +0.078 C 
BRANCH  18  19
ATOM     19  N   UNL     1      10.092   2.233  21.643  0.00  0.00    -0.330 NA
ATOM     20  H   UNL     1      10.554   2.711  20.870  0.00  0.00    +0.118 HD
ATOM     21  H   UNL     1      10.368   1.253  21.572  0.00  0.00    +0.118 HD
ENDBRANCH  18  19
ENDBRANCH  17  18
ENDBRANCH  16  17
ENDBRANCH   1  16
TORSDOF 11
ENDMDL
MODEL 9
REMARK VINA RESULT:      -4.1      5.305      6.514
REMARK  Name = 
REMARK  11 active torsions:
REMARK  status: ('A' for Active; 'I' for Inactive)
REMARK    1  A    between atoms: N_1  and  C_2
REMARK    2  A    between atoms: C_2  and  C_3
REMARK    3  A    between atoms: C_3  and  C_4
REMARK    4  A    between atoms: C_4  and  C_5
REMARK    5  A    between atoms: C_5  and  O_6
REMARK    6  A    between atoms: C_5  and  P_7
REMARK    7  A    between atoms: C_5  and  P_11
REMARK    8  A    between atoms: P_7  and  O_8
REMARK    9  A    between atoms: P_7  and  O_9
REMARK   10  A    between atoms: P_11  and  O_12
REMARK   11  A    between atoms: P_11  and  O_13
REMARK                            x       y       z     vdW  Elec       q    Type
REMARK                         _______ _______ _______ _____ _____    ______ ____
ROOT
ATOM      1  C   UNL     1       9.223   0.965  23.713  0.00  0.00    +0.267 C 
ENDROOT
BRANCH   1   2
ATOM      2  P   UNL     1       8.590   2.361  24.712  0.00  0.00    +0.371 P 
ATOM      3  O   UNL     1       8.054   3.543  25.556  0.00  0.00    -0.255 OA
BRANCH   2   4
ATOM      4  O   UNL     1       7.084   1.922  24.151  0.00  0.00    -0.322 OA
ATOM      5  H   UNL     1       7.234   1.385  23.334  0.00  0.00    +0.220 HD
ENDBRANCH   2   4
BRANCH   2   6
ATOM      6  O   UNL     1       8.825   3.406  23.460  0.00  0.00    -0.322 OA
ATOM      7  H   UNL     1       9.395   4.117  23.831  0.00  0.00    +0.220 HD
ENDBRANCH   2   6
ENDBRANCH   1   2
BRANCH   1   8
ATOM      8  P   UNL     1       9.016   1.361  21.917  0.00  0.00    +0.371 P 
ATOM      9  O   UNL     1       7.694   1.911  21.518  0.00  0.00    -0.255 OA
BRANCH   8  10
ATOM     10  O   UNL     1       9.389  -0.024  21.187  0.00  0.00    -0.322 OA
ATOM     11  H   UNL     1       8.600  -0.479  20.834  0.00  0.00    +0.220 HD
ENDBRANCH   8  10
BRANCH   8  12
ATOM     12  O   UNL     1      10.283   2.260  21.501  0.00  0.00    -0.322 OA
ATOM     13  H   UNL     1      10.468   2.259  20.533  0.00  0.00    +0.220 HD
ENDBRANCH   8  12
ENDBRANCH   1   8
BRANCH   1  14
ATOM     14  O   UNL     1      10.656   0.774  23.937  0.00  0.00    -0.367 OA
ATOM     15  H   UNL     1      11.097   1.329  23.259  0.00  0.00    +0.212 HD
ENDBRANCH   1  14
BRANCH   1  16
ATOM     16  C   UNL     1       8.460  -0.366  23.975  0.00  0.00    +0.061 C 
BRANCH  16  17
ATOM     17  C   UNL     1       9.204  -1.447  24.769  0.00  0.00    +0.019 C 
BRANCH  17  18
ATOM     18  C   UNL     1       9.640  -2.631  23.901  0.00  0.00    +0.078 C 
BRANCH  18  19
ATOM     19  N   UNL     1      10.522  -2.220  22.817  0.00  0.00    -0.330 NA
ATOM     20  H   UNL     1      10.185  -1.348  22.413  0.00  0.00    +0.118 HD
ATOM     21  H   UNL     1      11.448  -2.015  23.195  0.00  0.00    +0.118 HD
ENDBRANCH  18  19
ENDBRANCH  17  18
ENDBRANCH  16  17
ENDBRANCH   1  16
TORSDOF 11
ENDMDL
