MODEL 1
REMARK VINA RESULT:      -5.6      0.000      0.000
REMARK  Name = 
REMARK  5 active torsions:
REMARK  status: ('A' for Active; 'I' for Inactive)
REMARK    1  A    between atoms: C_1  and  C_2
REMARK    2  A    between atoms: C_2  and  C_3
REMARK    3  A    between atoms: C_4  and  C_5
REMARK    4  A    between atoms: C_5  and  N_6
REMARK    5  A    between atoms: C_9  and  N_10
REMARK                            x       y       z     vdW  Elec       q    Type
REMARK                         _______ _______ _______ _____ _____    ______ ____
ROOT
ATOM      1  N   UNL     1       8.897  -2.193  22.607  0.00  0.00    -0.311 N 
ATOM      2  C   UNL     1       7.799  -3.008  22.633  0.00  0.00    +0.166 A 
ATOM      3  C   UNL     1       7.767  -4.120  23.589  0.00  0.00    +0.147 A 
ATOM      4  N   UNL     1       6.589  -4.794  23.429  0.00  0.00    -0.229 NA
ATOM      5  C   UNL     1       6.013  -4.128  22.469  0.00  0.00    +0.224 A 
ATOM      6  C   UNL     1       8.838  -4.294  24.394  0.00  0.00    +0.147 A 
ATOM      7  N   UNL     1       9.920  -3.419  24.384  0.00  0.00    -0.221 NA
ATOM      8  N   UNL     1       6.696  -3.036  21.946  0.00  0.00    -0.216 NA
ATOM      9  C   UNL     1       9.900  -2.449  23.517  0.00  0.00    +0.203 A 
ENDROOT
BRANCH   6  10
ATOM     10  N   UNL     1       8.868  -5.359  25.275  0.00  0.00    -0.341 N 
ATOM     11  H   UNL     1       7.950  -5.542  25.675  0.00  0.00    +0.144 HD
ATOM     12  H   UNL     1       9.603  -5.223  25.961  0.00  0.00    +0.144 HD
ENDBRANCH   6  10
BRANCH   1  13
ATOM     13  C   UNL     1       9.033  -1.164  21.595  0.00  0.00    +0.152 C 
BRANCH  13  16
ATOM     14  C   UNL     1      10.404   2.305  22.768  0.00  0.00    +0.038 C 
ATOM     15  C   UNL     1       9.500   1.287  22.129  0.00  0.00    -0.078 C 
ATOM     16  C   UNL     1       9.840  -0.019  22.139  0.00  0.00    -0.007 C 
ATOM     17  C   UNL     1       8.224   1.795  21.516  0.00  0.00    +0.038 C 
ENDBRANCH  13  16
ENDBRANCH   1  13
TORSDOF 3
ENDMDL
MODEL 2
REMARK VINA RESULT:      -5.5      1.157      2.730
REMARK  Name = 
REMARK  5 active torsions:
REMARK  status: ('A' for Active; 'I' for Inactive)
REMARK    1  A    between atoms: C_1  and  C_2
REMARK    2  A    between atoms: C_2  and  C_3
REMARK    3  A    between atoms: C_4  and  C_5
REMARK    4  A    between atoms: C_5  and  N_6
REMARK    5  A    between atoms: C_9  and  N_10
REMARK                            x       y       z     vdW  Elec       q    Type
REMARK                         _______ _______ _______ _____ _____    ______ ____
ROOT
ATOM      1  N   UNL     1       8.949  -2.605  23.221  0.00  0.00    -0.311 N 
ATOM      2  C   UNL     1       8.857  -3.668  24.077  0.00  0.00    +0.166 A 
ATOM      3  C   UNL     1       7.535  -4.238  24.356  0.00  0.00    +0.147 A 
ATOM      4  N   UNL     1       7.688  -5.274  25.235  0.00  0.00    -0.229 NA
ATOM      5  C   UNL     1       8.975  -5.282  25.438  0.00  0.00    +0.224 A 
ATOM      6  C   UNL     1       6.463  -3.674  23.760  0.00  0.00    +0.147 A 
ATOM      7  N   UNL     1       6.589  -2.626  22.851  0.00  0.00    -0.221 NA
ATOM      8  N   UNL     1       9.737  -4.334  24.764  0.00  0.00    -0.216 NA
ATOM      9  C   UNL     1       7.783  -2.156  22.639  0.00  0.00    +0.203 A 
ENDROOT
BRANCH   6  10
ATOM     10  N   UNL     1       5.194  -4.151  24.034  0.00  0.00    -0.341 N 
ATOM     11  H   UNL     1       4.729  -4.484  23.192  0.00  0.00    +0.144 HD
ATOM     12  H   UNL     1       4.668  -3.459  24.556  0.00  0.00    +0.144 HD
ENDBRANCH   6  10
BRANCH   1  13
ATOM     13  C   UNL     1      10.213  -1.925  23.016  0.00  0.00    +0.152 C 
BRANCH  13  16
ATOM     14  C   UNL     1       9.986   1.872  22.109  0.00  0.00    +0.038 C 
ATOM     15  C   UNL     1      10.239   0.624  22.911  0.00  0.00    -0.078 C 
ATOM     16  C   UNL     1       9.973  -0.587  22.377  0.00  0.00    -0.007 C 
ATOM     17  C   UNL     1      10.805   0.802  24.292  0.00  0.00    +0.038 C 
ENDBRANCH  13  16
ENDBRANCH   1  13
TORSDOF 3
ENDMDL
MODEL 3
REMARK VINA RESULT:      -5.4      2.477      5.720
REMARK  Name = 
REMARK  5 active torsions:
REMARK  status: ('A' for Active; 'I' for Inactive)
REMARK    1  A    between atoms: C_1  and  C_2
REMARK    2  A    between atoms: C_2  and  C_3
REMARK    3  A    between atoms: C_4  and  C_5
REMARK    4  A    between atoms: C_5  and  N_6
REMARK    5  A    between atoms: C_9  and  N_10
REMARK                            x       y       z     vdW  Elec       q    Type
REMARK                         _______ _______ _______ _____ _____    ______ ____
ROOT
ATOM      1  N   UNL     1       8.427  -1.280  23.218  0.00  0.00    -0.311 N 
ATOM      2  C   UNL     1       8.366  -0.117  23.937  0.00  0.00    +0.166 A 
ATOM      3  C   UNL     1       8.946   1.100  23.361  0.00  0.00    +0.147 A 
ATOM      4  N   UNL     1       8.775   2.123  24.252  0.00  0.00    -0.229 NA
ATOM      5  C   UNL     1       8.162   1.536  25.239  0.00  0.00    +0.224 A 
ATOM      6  C   UNL     1       9.529   1.012  22.146  0.00  0.00    +0.147 A 
ATOM      7  N   UNL     1       9.532  -0.171  21.412  0.00  0.00    -0.221 NA
ATOM      8  N   UNL     1       7.885   0.179  25.107  0.00  0.00    -0.216 NA
ATOM      9  C   UNL     1       9.006  -1.224  21.968  0.00  0.00    +0.203 A 
ENDROOT
BRANCH   6  10
ATOM     10  N   UNL     1      10.130   2.126  21.590  0.00  0.00    -0.341 N 
ATOM     11  H   UNL     1      11.134   1.997  21.484  0.00  0.00    +0.144 HD
ATOM     12  H   UNL     1       9.867   2.958  22.107  0.00  0.00    +0.144 HD
ENDBRANCH   6  10
BRANCH   1  13
ATOM     13  C   UNL     1       7.987  -2.534  23.797  0.00  0.00    +0.152 C 
BRANCH  13  16
ATOM     14  C   UNL     1       7.031  -5.635  21.615  0.00  0.00    +0.038 C 
ATOM     15  C   UNL     1       7.172  -4.746  22.821  0.00  0.00    -0.078 C 
ATOM     16  C   UNL     1       7.804  -3.559  22.713  0.00  0.00    -0.007 C 
ATOM     17  C   UNL     1       6.567  -5.236  24.107  0.00  0.00    +0.038 C 
ENDBRANCH  13  16
ENDBRANCH   1  13
TORSDOF 3
ENDMDL
MODEL 4
REMARK VINA RESULT:      -5.3      1.512      1.653
REMARK  Name = 
REMARK  5 active torsions:
REMARK  status: ('A' for Active; 'I' for Inactive)
REMARK    1  A    between atoms: C_1  and  C_2
REMARK    2  A    between atoms: C_2  and  C_3
REMARK    3  A    between atoms: C_4  and  C_5
REMARK    4  A    between atoms: C_5  and  N_6
REMARK    5  A    between atoms: C_9  and  N_10
REMARK                            x       y       z     vdW  Elec       q    Type
REMARK                         _______ _______ _______ _____ _____    ______ ____
ROOT
ATOM      1  N   UNL     1       8.233  -2.371  23.782  0.00  0.00    -0.311 N 
ATOM      2  C   UNL     1       7.322  -3.251  24.301  0.00  0.00    +0.166 A 
ATOM      3  C   UNL     1       7.808  -4.495  24.906  0.00  0.00    +0.147 A 
ATOM      4  N   UNL     1       6.730  -5.212  25.343  0.00  0.00    -0.229 NA
ATOM      5  C   UNL     1       5.730  -4.447  25.011  0.00  0.00    +0.224 A 
ATOM      6  C   UNL     1       9.140  -4.720  24.910  0.00  0.00    +0.147 A 
ATOM      7  N   UNL     1      10.048  -3.785  24.423  0.00  0.00    -0.221 NA
ATOM      8  N   UNL     1       6.024  -3.245  24.377  0.00  0.00    -0.216 NA
ATOM      9  C   UNL     1       9.567  -2.697  23.896  0.00  0.00    +0.203 A 
ENDROOT
BRANCH   6  10
ATOM     10  N   UNL     1       9.635  -5.903  25.427  0.00  0.00    -0.341 N 
ATOM     11  H   UNL     1       9.048  -6.258  26.179  0.00  0.00    +0.144 HD
ATOM     12  H   UNL     1      10.612  -5.792  25.675  0.00  0.00    +0.144 HD
ENDBRANCH   6  10
BRANCH   1  13
ATOM     13  C   UNL     1       7.796  -1.193  23.059  0.00  0.00    +0.152 C 
BRANCH  13  16
ATOM     14  C   UNL     1       9.526   2.183  24.010  0.00  0.00    +0.038 C 
ATOM     15  C   UNL     1       9.142   0.970  23.207  0.00  0.00    -0.078 C 
ATOM     16  C   UNL     1       8.317   0.043  23.737  0.00  0.00    -0.007 C 
ATOM     17  C   UNL     1       9.699   0.867  21.814  0.00  0.00    +0.038 C 
ENDBRANCH  13  16
ENDBRANCH   1  13
TORSDOF 3
ENDMDL
MODEL 5
REMARK VINA RESULT:      -5.3      2.313      5.346
REMARK  Name = 
REMARK  5 active torsions:
REMARK  status: ('A' for Active; 'I' for Inactive)
REMARK    1  A    between atoms: C_1  and  C_2
REMARK    2  A    between atoms: C_2  and  C_3
REMARK    3  A    between atoms: C_4  and  C_5
REMARK    4  A    between atoms: C_5  and  N_6
REMARK    5  A    between atoms: C_9  and  N_10
REMARK                            x       y       z     vdW  Elec       q    Type
REMARK                         _______ _______ _______ _____ _____    ______ ____
ROOT
ATOM      1  N   UNL     1       8.765  -3.479  24.914  0.00  0.00    -0.311 N 
ATOM      2  C   UNL     1       9.381  -2.586  24.080  0.00  0.00    +0.166 A 
ATOM      3  C   UNL     1       9.484  -1.184  24.499  0.00  0.00    +0.147 A 
ATOM      4  N   UNL     1      10.124  -0.486  23.513  0.00  0.00    -0.229 NA
ATOM      5  C   UNL     1      10.355  -1.406  22.621  0.00  0.00    +0.224 A 
ATOM      6  C   UNL     1       8.950  -0.837  25.689  0.00  0.00    +0.147 A 
ATOM      7  N   UNL     1       8.375  -1.775  26.543  0.00  0.00    -0.221 NA
ATOM      8  N   UNL     1       9.929  -2.699  22.907  0.00  0.00    -0.216 NA
ATOM      9  C   UNL     1       8.307  -3.005  26.125  0.00  0.00    +0.203 A 
ENDROOT
BRANCH   6  10
ATOM     10  N   UNL     1       8.984   0.483  26.098  0.00  0.00    -0.341 N 
ATOM     11  H   UNL     1       9.921   0.767  26.373  0.00  0.00    +0.144 HD
ATOM     12  H   UNL     1       8.273   0.647  26.803  0.00  0.00    +0.144 HD
ENDBRANCH   6  10
BRANCH   1  13
ATOM     13  C   UNL     1       8.522  -4.844  24.490  0.00  0.00    +0.152 C 
BRANCH  13  16
ATOM     14  C   UNL     1       4.973  -5.684  23.081  0.00  0.00    +0.038 C 
ATOM     15  C   UNL     1       6.462  -5.478  23.125  0.00  0.00    -0.078 C 
ATOM     16  C   UNL     1       7.052  -5.052  24.261  0.00  0.00    -0.007 C 
ATOM     17  C   UNL     1       7.233  -5.784  21.870  0.00  0.00    +0.038 C 
ENDBRANCH  13  16
ENDBRANCH   1  13
TORSDOF 3
ENDMDL
MODEL 6
REMARK VINA RESULT:      -5.2      2.694      4.613
REMARK  Name = 
REMARK  5 active torsions:
REMARK  status: ('A' for Active; 'I' for Inactive)
REMARK    1  A    between atoms: C_1  and  C_2
REMARK    2  A    between atoms: C_2  and  C_3
REMARK    3  A    between atoms: C_4  and  C_5
REMARK    4  A    between atoms: C_5  and  N_6
REMARK    5  A    between atoms: C_9  and  N_10
REMARK                            x       y       z     vdW  Elec       q    Type
REMARK                         _______ _______ _______ _____ _____    ______ ____
ROOT
ATOM      1  N   UNL     1       9.710   1.742  23.268  0.00  0.00    -0.311 N 
ATOM      2  C   UNL     1       9.449   0.742  24.165  0.00  0.00    +0.166 A 
ATOM      3  C   UNL     1       9.148  -0.601  23.657  0.00  0.00    +0.147 A 
ATOM      4  N   UNL     1       8.914  -1.423  24.724  0.00  0.00    -0.229 NA
ATOM      5  C   UNL     1       9.064  -0.618  25.737  0.00  0.00    +0.224 A 
ATOM      6  C   UNL     1       9.130  -0.784  22.319  0.00  0.00    +0.147 A 
ATOM      7  N   UNL     1       9.452   0.238  21.430  0.00  0.00    -0.221 NA
ATOM      8  N   UNL     1       9.388   0.706  25.462  0.00  0.00    -0.216 NA
ATOM      9  C   UNL     1       9.710   1.410  21.930  0.00  0.00    +0.203 A 
ENDROOT
BRANCH   6  10
ATOM     10  N   UNL     1       8.804  -2.023  21.800  0.00  0.00    -0.341 N 
ATOM     11  H   UNL     1       8.320  -1.940  20.909  0.00  0.00    +0.144 HD
ATOM     12  H   UNL     1       8.309  -2.572  22.495  0.00  0.00    +0.144 HD
ENDBRANCH   6  10
BRANCH   1  13
ATOM     13  C   UNL     1       9.884   3.111  23.713  0.00  0.00    +0.152 C 
BRANCH  13  16
ATOM     14  C   UNL     1      13.163   5.149  23.097  0.00  0.00    +0.038 C 
ATOM     15  C   UNL     1      11.723   4.854  23.415  0.00  0.00    -0.078 C 
ATOM     16  C   UNL     1      11.270   3.583  23.376  0.00  0.00    -0.007 C 
ATOM     17  C   UNL     1      10.851   6.021  23.787  0.00  0.00    +0.038 C 
ENDBRANCH  13  16
ENDBRANCH   1  13
TORSDOF 3
ENDMDL
MODEL 7
REMARK VINA RESULT:      -5.2      1.740      2.113
REMARK  Name = 
REMARK  5 active torsions:
REMARK  status: ('A' for Active; 'I' for Inactive)
REMARK    1  A    between atoms: C_1  and  C_2
REMARK    2  A    between atoms: C_2  and  C_3
REMARK    3  A    between atoms: C_4  and  C_5
REMARK    4  A    between atoms: C_5  and  N_6
REMARK    5  A    between atoms: C_9  and  N_10
REMARK                            x       y       z     vdW  Elec       q    Type
REMARK                         _______ _______ _______ _____ _____    ______ ____
ROOT
ATOM      1  N   UNL     1       7.974  -2.451  24.795  0.00  0.00    -0.311 N 
ATOM      2  C   UNL     1       7.776  -3.416  23.845  0.00  0.00    +0.166 A 
ATOM      3  C   UNL     1       8.241  -4.780  24.117  0.00  0.00    +0.147 A 
ATOM      4  N   UNL     1       7.945  -5.560  23.034  0.00  0.00    -0.229 NA
ATOM      5  C   UNL     1       7.372  -4.714  22.226  0.00  0.00    +0.224 A 
ATOM      6  C   UNL     1       8.858  -5.017  25.294  0.00  0.00    +0.147 A 
ATOM      7  N   UNL     1       9.000  -4.030  26.265  0.00  0.00    -0.221 NA
ATOM      8  N   UNL     1       7.241  -3.400  22.661  0.00  0.00    -0.216 NA
ATOM      9  C   UNL     1       8.572  -2.836  25.975  0.00  0.00    +0.203 A 
ENDROOT
BRANCH   6  10
ATOM     10  N   UNL     1       9.354  -6.278  25.568  0.00  0.00    -0.341 N 
ATOM     11  H   UNL     1       8.621  -6.909  25.882  0.00  0.00    +0.144 HD
ATOM     12  H   UNL     1      10.146  -6.211  26.198  0.00  0.00    +0.144 HD
ENDBRANCH   6  10
BRANCH   1  13
ATOM     13  C   UNL     1       7.652  -1.064  24.521  0.00  0.00    +0.152 C 
BRANCH  13  16
ATOM     14  C   UNL     1      10.969   1.002  24.381  0.00  0.00    +0.038 C 
ATOM     15  C   UNL     1       9.869   0.066  23.959  0.00  0.00    -0.078 C 
ATOM     16  C   UNL     1       8.849  -0.199  24.801  0.00  0.00    -0.007 C 
ATOM     17  C   UNL     1       9.964  -0.522  22.578  0.00  0.00    +0.038 C 
ENDBRANCH  13  16
ENDBRANCH   1  13
TORSDOF 3
ENDMDL
MODEL 8
REMARK VINA RESULT:      -5.1      2.387      5.363
REMARK  Name = 
REMARK  5 active torsions:
REMARK  status: ('A' for Active; 'I' for Inactive)
REMARK    1  A    between atoms: C_1  and  C_2
REMARK    2  A    between atoms: C_2  and  C_3
REMARK    3  A    between atoms: C_4  and  C_5
REMARK    4  A    between atoms: C_5  and  N_6
REMARK    5  A    between atoms: C_9  and  N_10
REMARK                            x       y       z     vdW  Elec       q    Type
REMARK                         _______ _______ _______ _____ _____    ______ ____
ROOT
ATOM      1  N   UNL     1       7.973  -1.453  22.702  0.00  0.00    -0.311 N 
ATOM      2  C   UNL     1       7.448  -0.256  23.107  0.00  0.00    +0.166 A 
ATOM      3  C   UNL     1       8.117   0.983  22.698  0.00  0.00    +0.147 A 
ATOM      4  N   UNL     1       7.425   2.039  23.222  0.00  0.00    -0.229 NA
ATOM      5  C   UNL     1       6.461   1.451  23.869  0.00  0.00    +0.224 A 
ATOM      6  C   UNL     1       9.235   0.882  21.948  0.00  0.00    +0.147 A 
ATOM      7  N   UNL     1       9.719  -0.346  21.505  0.00  0.00    -0.221 NA
ATOM      8  N   UNL     1       6.420   0.061  23.837  0.00  0.00    -0.216 NA
ATOM      9  C   UNL     1       9.090  -1.416  21.896  0.00  0.00    +0.203 A 
ENDROOT
BRANCH   6  10
ATOM     10  N   UNL     1       9.922   2.024  21.582  0.00  0.00    -0.341 N 
ATOM     11  H   UNL     1      10.908   1.963  21.826  0.00  0.00    +0.144 HD
ATOM     12  H   UNL     1       9.451   2.845  21.947  0.00  0.00    +0.144 HD
ENDBRANCH   6  10
BRANCH   1  13
ATOM     13  C   UNL     1       7.426  -2.705  23.187  0.00  0.00    +0.152 C 
BRANCH  13  16
ATOM     14  C   UNL     1       9.706  -4.983  25.402  0.00  0.00    +0.038 C 
ATOM     15  C   UNL     1       8.544  -4.119  24.993  0.00  0.00    -0.078 C 
ATOM     16  C   UNL     1       8.524  -3.549  23.770  0.00  0.00    -0.007 C 
ATOM     17  C   UNL     1       7.431  -3.952  25.991  0.00  0.00    +0.038 C 
ENDBRANCH  13  16
ENDBRANCH   1  13
TORSDOF 3
ENDMDL
MODEL 9
REMARK VINA RESULT:      -5.1      2.614      4.399
REMARK  Name = 
REMARK  5 active torsions:
REMARK  status: ('A' for Active; 'I' for Inactive)
REMARK    1  A    between atoms: C_1  and  C_2
REMARK    2  A    between atoms: C_2  and  C_3
REMARK    3  A    between atoms: C_4  and  C_5
REMARK    4  A    between atoms: C_5  and  N_6
REMARK    5  A    between atoms: C_9  and  N_10
REMARK                            x       y       z     vdW  Elec       q    Type
REMARK                         _______ _______ _______ _____ _____    ______ ____
ROOT
ATOM      1  N   UNL     1       7.725  -4.531  25.308  0.00  0.00    -0.311 N 
ATOM      2  C   UNL     1       7.102  -5.151  26.357  0.00  0.00    +0.166 A 
ATOM      3  C   UNL     1       5.919  -5.975  26.088  0.00  0.00    +0.147 A 
ATOM      4  N   UNL     1       5.466  -6.481  27.275  0.00  0.00    -0.229 NA
ATOM      5  C   UNL     1       6.312  -5.984  28.132  0.00  0.00    +0.224 A 
ATOM      6  C   UNL     1       5.490  -6.072  24.811  0.00  0.00    +0.147 A 
ATOM      7  N   UNL     1       6.173  -5.474  23.755  0.00  0.00    -0.221 NA
ATOM      8  N   UNL     1       7.325  -5.171  27.637  0.00  0.00    -0.216 NA
ATOM      9  C   UNL     1       7.216  -4.753  24.046  0.00  0.00    +0.203 A 
ENDROOT
BRANCH   6  10
ATOM     10  N   UNL     1       4.350  -6.799  24.523  0.00  0.00    -0.341 N 
ATOM     11  H   UNL     1       4.572  -7.759  24.270  0.00  0.00    +0.144 HD
ATOM     12  H   UNL     1       3.787  -6.306  23.838  0.00  0.00    +0.144 HD
ENDBRANCH   6  10
BRANCH   1  13
ATOM     13  C   UNL     1       8.816  -3.604  25.537  0.00  0.00    +0.152 C 
BRANCH  13  16
ATOM     14  C   UNL     1      10.299  -1.565  22.548  0.00  0.00    +0.038 C 
ATOM     15  C   UNL     1       9.715  -1.864  23.902  0.00  0.00    -0.078 C 
ATOM     16  C   UNL     1       9.362  -3.126  24.221  0.00  0.00    -0.007 C 
ATOM     17  C   UNL     1       9.573  -0.710  24.856  0.00  0.00    +0.038 C 
ENDBRANCH  13  16
ENDBRANCH   1  13
TORSDOF 3
ENDMDL
