MODEL 1
REMARK VINA RESULT:      -8.3      0.000      0.000
REMARK  Name = 
REMARK  9 active torsions:
REMARK  status: ('A' for Active; 'I' for Inactive)
REMARK    1  A    between atoms: C_1  and  N_2
REMARK    2  A    between atoms: N_2  and  C_3
REMARK    3  A    between atoms: N_2  and  S_10
REMARK    4  A    between atoms: S_10  and  C_13
REMARK    5  A    between atoms: C_16  and  C_17
REMARK    6  A    between atoms: C_17  and  C_18
REMARK    7  A    between atoms: C_19  and  C_20
REMARK    8  A    between atoms: C_21  and  C_22
REMARK    9  A    between atoms: C_23  and  C_24
REMARK                            x       y       z     vdW  Elec       q    Type
REMARK                         _______ _______ _______ _____ _____    ______ ____
ROOT
ATOM      1  C   UNL     1       7.553  -2.697  22.828  0.00  0.00    +0.109 A 
ATOM      2  C   UNL     1       8.611  -3.322  23.621  0.00  0.00    +0.031 A 
ATOM      3  C   UNL     1       9.656  -2.630  24.104  0.00  0.00    +0.028 A 
ATOM      4  C   UNL     1       9.741  -1.188  23.809  0.00  0.00    +0.065 A 
ATOM      5  C   UNL     1       8.780  -0.639  22.844  0.00  0.00    +0.008 A 
ATOM      6  C   UNL     1       9.200   0.615  22.655  0.00  0.00    +0.031 C 
ATOM      7  C   UNL     1      10.226   0.862  23.702  0.00  0.00    +0.265 C 
ATOM      8  O   UNL     1      10.612   1.974  24.023  0.00  0.00    -0.268 OA
ATOM      9  N   UNL     1      10.573  -0.330  24.290  0.00  0.00    -0.176 NA
ATOM     10  C   UNL     1       7.666  -1.427  22.387  0.00  0.00    +0.039 A 
ENDROOT
BRANCH   1  11
ATOM     11  S   UNL     1       5.989  -3.507  22.636  0.00  0.00    +0.074 S 
ATOM     12  O   UNL     1       5.047  -2.940  23.579  0.00  0.00    -0.150 OA
ATOM     13  O   UNL     1       5.688  -3.475  21.213  0.00  0.00    -0.150 OA
BRANCH  11  15
ATOM     14  C   UNL     1       6.649  -6.059  21.987  0.00  0.00    +0.157 C 
ATOM     15  N   UNL     1       6.239  -5.130  23.044  0.00  0.00    -0.206 N 
BRANCH  15  16
ATOM     16  C   UNL     1       5.626  -5.666  24.214  0.00  0.00    +0.052 A 
ATOM     17  C   UNL     1       4.524  -6.526  24.127  0.00  0.00    +0.025 A 
ATOM     18  C   UNL     1       4.032  -7.142  25.281  0.00  0.00    +0.003 A 
ATOM     19  C   UNL     1       4.642  -6.898  26.516  0.00  0.00    +0.020 A 
ATOM     20  C   UNL     1       5.720  -6.024  26.592  0.00  0.00    +0.043 A 
ATOM     21 CL   UNL     1       6.485  -5.730  28.106  0.00  0.00    -0.083 Cl
ATOM     22  C   UNL     1       6.207  -5.400  25.446  0.00  0.00    +0.044 A 
ENDBRANCH  15  16
ENDBRANCH  11  15
ENDBRANCH   1  11
BRANCH   6  23
ATOM     23  C   UNL     1       8.720   1.733  21.792  0.00  0.00    +0.094 C 
BRANCH  23  24
ATOM     24  C   UNL     1       8.090   2.880  22.542  0.00  0.00    +0.024 A 
ATOM     25  N   UNL     1       8.710   4.110  22.621  0.00  0.00    -0.361 N 
ATOM     26  H   UNL     1       9.616   4.331  22.221  0.00  0.00    +0.165 HD
ATOM     27  C   UNL     1       7.924   4.994  23.317  0.00  0.00    +0.016 A 
ATOM     28  C   UNL     1       8.361   6.393  23.582  0.00  0.00    +0.063 C 
ATOM     29  C   UNL     1       6.760   4.338  23.673  0.00  0.00    -0.027 A 
ATOM     30  C   UNL     1       5.590   4.943  24.374  0.00  0.00    +0.046 C 
ATOM     31  C   UNL     1       6.907   2.971  23.264  0.00  0.00    -0.026 A 
ATOM     32  C   UNL     1       5.941   1.880  23.565  0.00  0.00    +0.046 C 
ENDBRANCH  23  24
ENDBRANCH   6  23
TORSDOF 5
ENDMDL
MODEL 2
REMARK VINA RESULT:      -8.1      3.620      8.666
REMARK  Name = 
REMARK  9 active torsions:
REMARK  status: ('A' for Active; 'I' for Inactive)
REMARK    1  A    between atoms: C_1  and  N_2
REMARK    2  A    between atoms: N_2  and  C_3
REMARK    3  A    between atoms: N_2  and  S_10
REMARK    4  A    between atoms: S_10  and  C_13
REMARK    5  A    between atoms: C_16  and  C_17
REMARK    6  A    between atoms: C_17  and  C_18
REMARK    7  A    between atoms: C_19  and  C_20
REMARK    8  A    between atoms: C_21  and  C_22
REMARK    9  A    between atoms: C_23  and  C_24
REMARK                            x       y       z     vdW  Elec       q    Type
REMARK                         _______ _______ _______ _____ _____    ______ ____
ROOT
ATOM      1  C   UNL     1       7.681  -4.334  24.073  0.00  0.00    +0.109 A 
ATOM      2  C   UNL     1       7.409  -3.946  22.690  0.00  0.00    +0.031 A 
ATOM      3  C   UNL     1       6.271  -4.277  22.058  0.00  0.00    +0.028 A 
ATOM      4  C   UNL     1       5.267  -5.074  22.787  0.00  0.00    +0.065 A 
ATOM      5  C   UNL     1       5.658  -5.620  24.093  0.00  0.00    +0.008 A 
ATOM      6  C   UNL     1       4.637  -6.415  24.424  0.00  0.00    +0.031 C 
ATOM      7  C   UNL     1       3.557  -6.118  23.447  0.00  0.00    +0.265 C 
ATOM      8  O   UNL     1       2.390  -6.432  23.612  0.00  0.00    -0.268 OA
ATOM      9  N   UNL     1       4.070  -5.369  22.416  0.00  0.00    -0.176 NA
ATOM     10  C   UNL     1       6.880  -5.201  24.727  0.00  0.00    +0.039 A 
ENDROOT
BRANCH   1  11
ATOM     11  S   UNL     1       8.926  -3.488  25.007  0.00  0.00    +0.074 S 
ATOM     12  O   UNL     1       9.085  -4.148  26.286  0.00  0.00    -0.150 OA
ATOM     13  O   UNL     1      10.073  -3.350  24.123  0.00  0.00    -0.150 OA
BRANCH  11  15
ATOM     14  C   UNL     1       6.947  -1.776  25.730  0.00  0.00    +0.157 C 
ATOM     15  N   UNL     1       8.335  -1.927  25.284  0.00  0.00    -0.206 N 
BRANCH  15  16
ATOM     16  C   UNL     1       8.969  -0.811  24.662  0.00  0.00    +0.052 A 
ATOM     17  C   UNL     1      10.038  -0.148  25.278  0.00  0.00    +0.025 A 
ATOM     18  C   UNL     1      10.725   0.852  24.585  0.00  0.00    +0.003 A 
ATOM     19  C   UNL     1      10.344   1.186  23.280  0.00  0.00    +0.020 A 
ATOM     20  C   UNL     1       9.266   0.536  22.691  0.00  0.00    +0.043 A 
ATOM     21 CL   UNL     1       8.799   0.931  21.081  0.00  0.00    -0.083 Cl
ATOM     22  C   UNL     1       8.571  -0.454  23.381  0.00  0.00    +0.044 A 
ENDBRANCH  15  16
ENDBRANCH  11  15
ENDBRANCH   1  11
BRANCH   6  23
ATOM     23  C   UNL     1       4.373  -7.301  25.594  0.00  0.00    +0.094 C 
BRANCH  23  24
ATOM     24  C   UNL     1       4.505  -6.625  26.936  0.00  0.00    +0.024 A 
ATOM     25  N   UNL     1       5.357  -7.115  27.904  0.00  0.00    -0.361 N 
ATOM     26  H   UNL     1       5.924  -7.951  27.811  0.00  0.00    +0.165 HD
ATOM     27  C   UNL     1       5.330  -6.307  29.014  0.00  0.00    +0.016 A 
ATOM     28  C   UNL     1       6.134  -6.615  30.228  0.00  0.00    +0.063 C 
ATOM     29  C   UNL     1       4.469  -5.257  28.753  0.00  0.00    -0.027 A 
ATOM     30  C   UNL     1       4.199  -4.099  29.655  0.00  0.00    +0.046 C 
ATOM     31  C   UNL     1       3.874  -5.510  27.473  0.00  0.00    -0.026 A 
ATOM     32  C   UNL     1       2.789  -4.698  26.859  0.00  0.00    +0.046 C 
ENDBRANCH  23  24
ENDBRANCH   6  23
TORSDOF 5
ENDMDL
MODEL 3
REMARK VINA RESULT:      -7.8      3.314      8.924
REMARK  Name = 
REMARK  9 active torsions:
REMARK  status: ('A' for Active; 'I' for Inactive)
REMARK    1  A    between atoms: C_1  and  N_2
REMARK    2  A    between atoms: N_2  and  C_3
REMARK    3  A    between atoms: N_2  and  S_10
REMARK    4  A    between atoms: S_10  and  C_13
REMARK    5  A    between atoms: C_16  and  C_17
REMARK    6  A    between atoms: C_17  and  C_18
REMARK    7  A    between atoms: C_19  and  C_20
REMARK    8  A    between atoms: C_21  and  C_22
REMARK    9  A    between atoms: C_23  and  C_24
REMARK                            x       y       z     vdW  Elec       q    Type
REMARK                         _______ _______ _______ _____ _____    ______ ____
ROOT
ATOM      1  C   UNL     1       8.503  -0.335  23.241  0.00  0.00    +0.109 A 
ATOM      2  C   UNL     1       9.653  -0.925  23.925  0.00  0.00    +0.031 A 
ATOM      3  C   UNL     1       9.763  -2.246  24.143  0.00  0.00    +0.028 A 
ATOM      4  C   UNL     1       8.674  -3.129  23.684  0.00  0.00    +0.065 A 
ATOM      5  C   UNL     1       7.449  -2.487  23.190  0.00  0.00    +0.008 A 
ATOM      6  C   UNL     1       6.605  -3.507  23.013  0.00  0.00    +0.031 C 
ATOM      7  C   UNL     1       7.424  -4.740  23.148  0.00  0.00    +0.265 C 
ATOM      8  O   UNL     1       7.060  -5.839  22.763  0.00  0.00    -0.268 OA
ATOM      9  N   UNL     1       8.653  -4.416  23.669  0.00  0.00    -0.176 NA
ATOM     10  C   UNL     1       7.408  -1.068  22.953  0.00  0.00    +0.039 A 
ENDROOT
BRANCH   1  11
ATOM     11  S   UNL     1       8.618   1.292  22.551  0.00  0.00    +0.074 S 
ATOM     12  O   UNL     1       9.863   1.407  21.819  0.00  0.00    -0.150 OA
ATOM     13  O   UNL     1       7.358   1.532  21.865  0.00  0.00    -0.150 OA
BRANCH  11  15
ATOM     14  C   UNL     1       7.930   2.012  25.076  0.00  0.00    +0.157 C 
ATOM     15  N   UNL     1       8.671   2.362  23.861  0.00  0.00    -0.206 N 
BRANCH  15  16
ATOM     16  C   UNL     1       8.998   3.733  23.640  0.00  0.00    +0.052 A 
ATOM     17  C   UNL     1       8.009   4.673  23.324  0.00  0.00    +0.025 A 
ATOM     18  C   UNL     1       8.341   6.028  23.249  0.00  0.00    +0.003 A 
ATOM     19  C   UNL     1       9.656   6.440  23.490  0.00  0.00    +0.020 A 
ATOM     20  C   UNL     1      10.632   5.493  23.780  0.00  0.00    +0.043 A 
ATOM     21 CL   UNL     1      12.249   5.993  24.092  0.00  0.00    -0.083 Cl
ATOM     22  C   UNL     1      10.308   4.140  23.846  0.00  0.00    +0.044 A 
ENDBRANCH  15  16
ENDBRANCH  11  15
ENDBRANCH   1  11
BRANCH   6  23
ATOM     23  C   UNL     1       5.185  -3.590  22.564  0.00  0.00    +0.094 C 
BRANCH  23  24
ATOM     24  C   UNL     1       4.288  -4.401  23.464  0.00  0.00    +0.024 A 
ATOM     25  N   UNL     1       3.817  -5.639  23.078  0.00  0.00    -0.361 N 
ATOM     26  H   UNL     1       4.004  -6.080  22.184  0.00  0.00    +0.165 HD
ATOM     27  C   UNL     1       3.059  -6.192  24.081  0.00  0.00    +0.016 A 
ATOM     28  C   UNL     1       2.398  -7.517  23.924  0.00  0.00    +0.063 C 
ATOM     29  C   UNL     1       3.059  -5.313  25.148  0.00  0.00    -0.027 A 
ATOM     30  C   UNL     1       2.425  -5.546  26.477  0.00  0.00    +0.046 C 
ATOM     31  C   UNL     1       3.759  -4.136  24.721  0.00  0.00    -0.026 A 
ATOM     32  C   UNL     1       3.887  -2.883  25.513  0.00  0.00    +0.046 C 
ENDBRANCH  23  24
ENDBRANCH   6  23
TORSDOF 5
ENDMDL
MODEL 4
REMARK VINA RESULT:      -7.7      3.696      8.758
REMARK  Name = 
REMARK  9 active torsions:
REMARK  status: ('A' for Active; 'I' for Inactive)
REMARK    1  A    between atoms: C_1  and  N_2
REMARK    2  A    between atoms: N_2  and  C_3
REMARK    3  A    between atoms: N_2  and  S_10
REMARK    4  A    between atoms: S_10  and  C_13
REMARK    5  A    between atoms: C_16  and  C_17
REMARK    6  A    between atoms: C_17  and  C_18
REMARK    7  A    between atoms: C_19  and  C_20
REMARK    8  A    between atoms: C_21  and  C_22
REMARK    9  A    between atoms: C_23  and  C_24
REMARK                            x       y       z     vdW  Elec       q    Type
REMARK                         _______ _______ _______ _____ _____    ______ ____
ROOT
ATOM      1  C   UNL     1       7.698   0.459  23.222  0.00  0.00    +0.109 A 
ATOM      2  C   UNL     1       6.737   1.561  23.220  0.00  0.00    +0.031 A 
ATOM      3  C   UNL     1       5.698   1.615  24.069  0.00  0.00    +0.028 A 
ATOM      4  C   UNL     1       5.516   0.510  25.029  0.00  0.00    +0.065 A 
ATOM      5  C   UNL     1       6.371  -0.672  24.866  0.00  0.00    +0.008 A 
ATOM      6  C   UNL     1       5.874  -1.548  25.745  0.00  0.00    +0.031 C 
ATOM      7  C   UNL     1       4.919  -0.781  26.587  0.00  0.00    +0.265 C 
ATOM      8  O   UNL     1       4.503  -1.172  27.665  0.00  0.00    -0.268 OA
ATOM      9  N   UNL     1       4.680   0.441  26.007  0.00  0.00    -0.176 NA
ATOM     10  C   UNL     1       7.486  -0.652  23.957  0.00  0.00    +0.039 A 
ENDROOT
BRANCH   1  11
ATOM     11  S   UNL     1       9.282   0.659  22.455  0.00  0.00    +0.074 S 
ATOM     12  O   UNL     1       9.838  -0.649  22.177  0.00  0.00    -0.150 OA
ATOM     13  O   UNL     1       9.090   1.604  21.366  0.00  0.00    -0.150 OA
BRANCH  11  15
ATOM     14  C   UNL     1      10.672   0.671  24.787  0.00  0.00    +0.157 C 
ATOM     15  N   UNL     1      10.270   1.425  23.596  0.00  0.00    -0.206 N 
BRANCH  15  16
ATOM     16  C   UNL     1      10.310   2.849  23.652  0.00  0.00    +0.052 A 
ATOM     17  C   UNL     1       9.270   3.582  24.237  0.00  0.00    +0.025 A 
ATOM     18  C   UNL     1       9.401   4.964  24.399  0.00  0.00    +0.003 A 
ATOM     19  C   UNL     1      10.569   5.609  23.978  0.00  0.00    +0.020 A 
ATOM     20  C   UNL     1      11.584   4.872  23.377  0.00  0.00    +0.043 A 
ATOM     21 CL   UNL     1      13.030   5.656  22.868  0.00  0.00    -0.083 Cl
ATOM     22  C   UNL     1      11.453   3.496  23.204  0.00  0.00    +0.044 A 
ENDBRANCH  15  16
ENDBRANCH  11  15
ENDBRANCH   1  11
BRANCH   6  23
ATOM     23  C   UNL     1       6.230  -2.953  26.096  0.00  0.00    +0.094 C 
BRANCH  23  24
ATOM     24  C   UNL     1       6.023  -3.950  24.983  0.00  0.00    +0.024 A 
ATOM     25  N   UNL     1       4.770  -4.448  24.692  0.00  0.00    -0.361 N 
ATOM     26  H   UNL     1       3.921  -4.218  25.197  0.00  0.00    +0.165 HD
ATOM     27  C   UNL     1       4.836  -5.302  23.618  0.00  0.00    +0.016 A 
ATOM     28  C   UNL     1       3.632  -6.010  23.104  0.00  0.00    +0.063 C 
ATOM     29  C   UNL     1       6.149  -5.337  23.184  0.00  0.00    -0.027 A 
ATOM     30  C   UNL     1       6.659  -6.075  21.993  0.00  0.00    +0.046 C 
ATOM     31  C   UNL     1       6.917  -4.554  24.108  0.00  0.00    -0.026 A 
ATOM     32  C   UNL     1       8.399  -4.426  24.094  0.00  0.00    +0.046 C 
ENDBRANCH  23  24
ENDBRANCH   6  23
TORSDOF 5
ENDMDL
MODEL 5
REMARK VINA RESULT:      -7.7      1.652      2.009
REMARK  Name = 
REMARK  9 active torsions:
REMARK  status: ('A' for Active; 'I' for Inactive)
REMARK    1  A    between atoms: C_1  and  N_2
REMARK    2  A    between atoms: N_2  and  C_3
REMARK    3  A    between atoms: N_2  and  S_10
REMARK    4  A    between atoms: S_10  and  C_13
REMARK    5  A    between atoms: C_16  and  C_17
REMARK    6  A    between atoms: C_17  and  C_18
REMARK    7  A    between atoms: C_19  and  C_20
REMARK    8  A    between atoms: C_21  and  C_22
REMARK    9  A    between atoms: C_23  and  C_24
REMARK                            x       y       z     vdW  Elec       q    Type
REMARK                         _______ _______ _______ _____ _____    ______ ____
ROOT
ATOM      1  C   UNL     1       7.666  -3.241  22.727  0.00  0.00    +0.109 A 
ATOM      2  C   UNL     1       8.463  -3.842  23.796  0.00  0.00    +0.031 A 
ATOM      3  C   UNL     1       9.361  -3.141  24.508  0.00  0.00    +0.028 A 
ATOM      4  C   UNL     1       9.556  -1.715  24.186  0.00  0.00    +0.065 A 
ATOM      5  C   UNL     1       8.896  -1.200  22.980  0.00  0.00    +0.008 A 
ATOM      6  C   UNL     1       9.381   0.039  22.857  0.00  0.00    +0.031 C 
ATOM      7  C   UNL     1      10.102   0.321  24.126  0.00  0.00    +0.265 C 
ATOM      8  O   UNL     1      10.417   1.442  24.490  0.00  0.00    -0.268 OA
ATOM      9  N   UNL     1      10.253  -0.847  24.833  0.00  0.00    -0.176 NA
ATOM     10  C   UNL     1       7.922  -1.994  22.279  0.00  0.00    +0.039 A 
ENDROOT
BRANCH   1  11
ATOM     11  S   UNL     1       6.188  -4.039  22.164  0.00  0.00    +0.074 S 
ATOM     12  O   UNL     1       5.618  -3.263  21.081  0.00  0.00    -0.150 OA
ATOM     13  O   UNL     1       6.539  -5.432  21.940  0.00  0.00    -0.150 OA
BRANCH  11  15
ATOM     14  C   UNL     1       5.007  -2.786  24.263  0.00  0.00    +0.157 C 
ATOM     15  N   UNL     1       5.107  -4.012  23.465  0.00  0.00    -0.206 N 
BRANCH  15  16
ATOM     16  C   UNL     1       4.681  -5.238  24.055  0.00  0.00    +0.052 A 
ATOM     17  C   UNL     1       5.261  -5.714  25.237  0.00  0.00    +0.025 A 
ATOM     18  C   UNL     1       4.731  -6.846  25.862  0.00  0.00    +0.003 A 
ATOM     19  C   UNL     1       3.625  -7.497  25.307  0.00  0.00    +0.020 A 
ATOM     20  C   UNL     1       3.074  -7.027  24.119  0.00  0.00    +0.043 A 
ATOM     21 CL   UNL     1       1.703  -7.814  23.437  0.00  0.00    -0.083 Cl
ATOM     22  C   UNL     1       3.605  -5.906  23.487  0.00  0.00    +0.044 A 
ENDBRANCH  15  16
ENDBRANCH  11  15
ENDBRANCH   1  11
BRANCH   6  23
ATOM     23  C   UNL     1       9.172   1.121  21.852  0.00  0.00    +0.094 C 
BRANCH  23  24
ATOM     24  C   UNL     1       8.535   2.373  22.400  0.00  0.00    +0.024 A 
ATOM     25  N   UNL     1       9.282   3.504  22.656  0.00  0.00    -0.361 N 
ATOM     26  H   UNL     1      10.285   3.578  22.529  0.00  0.00    +0.165 HD
ATOM     27  C   UNL     1       8.472   4.516  23.108  0.00  0.00    +0.016 A 
ATOM     28  C   UNL     1       9.019   5.846  23.492  0.00  0.00    +0.063 C 
ATOM     29  C   UNL     1       7.171   4.046  23.118  0.00  0.00    -0.027 A 
ATOM     30  C   UNL     1       5.955   4.838  23.464  0.00  0.00    +0.046 C 
ATOM     31  C   UNL     1       7.224   2.658  22.760  0.00  0.00    -0.026 A 
ATOM     32  C   UNL     1       6.062   1.728  22.772  0.00  0.00    +0.046 C 
ENDBRANCH  23  24
ENDBRANCH   6  23
TORSDOF 5
ENDMDL
MODEL 6
REMARK VINA RESULT:      -7.7      3.372      5.725
REMARK  Name = 
REMARK  9 active torsions:
REMARK  status: ('A' for Active; 'I' for Inactive)
REMARK    1  A    between atoms: C_1  and  N_2
REMARK    2  A    between atoms: N_2  and  C_3
REMARK    3  A    between atoms: N_2  and  S_10
REMARK    4  A    between atoms: S_10  and  C_13
REMARK    5  A    between atoms: C_16  and  C_17
REMARK    6  A    between atoms: C_17  and  C_18
REMARK    7  A    between atoms: C_19  and  C_20
REMARK    8  A    between atoms: C_21  and  C_22
REMARK    9  A    between atoms: C_23  and  C_24
REMARK                            x       y       z     vdW  Elec       q    Type
REMARK                         _______ _______ _______ _____ _____    ______ ____
ROOT
ATOM      1  C   UNL     1       4.138  -6.423  24.905  0.00  0.00    +0.109 A 
ATOM      2  C   UNL     1       4.047  -6.935  26.271  0.00  0.00    +0.031 A 
ATOM      3  C   UNL     1       5.022  -6.751  27.177  0.00  0.00    +0.028 A 
ATOM      4  C   UNL     1       6.234  -6.017  26.768  0.00  0.00    +0.065 A 
ATOM      5  C   UNL     1       6.381  -5.701  25.342  0.00  0.00    +0.008 A 
ATOM      6  C   UNL     1       7.617  -5.202  25.253  0.00  0.00    +0.031 C 
ATOM      7  C   UNL     1       8.070  -4.987  26.652  0.00  0.00    +0.265 C 
ATOM      8  O   UNL     1       9.018  -4.280  26.956  0.00  0.00    -0.268 OA
ATOM      9  N   UNL     1       7.205  -5.618  27.513  0.00  0.00    -0.176 NA
ATOM     10  C   UNL     1       5.286  -5.897  24.429  0.00  0.00    +0.039 A 
ENDROOT
BRANCH   1  11
ATOM     11  S   UNL     1       2.676  -6.255  23.918  0.00  0.00    +0.074 S 
ATOM     12  O   UNL     1       3.046  -5.755  22.610  0.00  0.00    -0.150 OA
ATOM     13  O   UNL     1       1.964  -7.518  24.029  0.00  0.00    -0.150 OA
BRANCH  11  15
ATOM     14  C   UNL     1       0.509  -4.622  23.997  0.00  0.00    +0.157 C 
ATOM     15  N   UNL     1       1.719  -5.087  24.682  0.00  0.00    -0.206 N 
BRANCH  15  16
ATOM     16  C   UNL     1       2.291  -4.250  25.685  0.00  0.00    +0.052 A 
ATOM     17  C   UNL     1       1.973  -4.419  27.039  0.00  0.00    +0.025 A 
ATOM     18  C   UNL     1       2.651  -3.676  28.008  0.00  0.00    +0.003 A 
ATOM     19  C   UNL     1       3.645  -2.769  27.624  0.00  0.00    +0.020 A 
ATOM     20  C   UNL     1       3.934  -2.595  26.275  0.00  0.00    +0.043 A 
ATOM     21 CL   UNL     1       5.165  -1.491  25.794  0.00  0.00    -0.083 Cl
ATOM     22  C   UNL     1       3.253  -3.326  25.304  0.00  0.00    +0.044 A 
ENDBRANCH  15  16
ENDBRANCH  11  15
ENDBRANCH   1  11
BRANCH   6  23
ATOM     23  C   UNL     1       8.437  -4.705  24.110  0.00  0.00    +0.094 C 
BRANCH  23  24
ATOM     24  C   UNL     1       8.429  -3.207  23.936  0.00  0.00    +0.024 A 
ATOM     25  N   UNL     1       9.409  -2.416  24.499  0.00  0.00    -0.361 N 
ATOM     26  H   UNL     1      10.170  -2.756  25.075  0.00  0.00    +0.165 HD
ATOM     27  C   UNL     1       9.205  -1.099  24.165  0.00  0.00    +0.016 A 
ATOM     28  C   UNL     1      10.098  -0.017  24.663  0.00  0.00    +0.063 C 
ATOM     29  C   UNL     1       8.091  -1.036  23.348  0.00  0.00    -0.027 A 
ATOM     30  C   UNL     1       7.556   0.191  22.688  0.00  0.00    +0.046 C 
ATOM     31  C   UNL     1       7.544  -2.359  23.280  0.00  0.00    -0.026 A 
ATOM     32  C   UNL     1       6.266  -2.723  22.610  0.00  0.00    +0.046 C 
ENDBRANCH  23  24
ENDBRANCH   6  23
TORSDOF 5
ENDMDL
MODEL 7
REMARK VINA RESULT:      -7.6      3.379      5.113
REMARK  Name = 
REMARK  9 active torsions:
REMARK  status: ('A' for Active; 'I' for Inactive)
REMARK    1  A    between atoms: C_1  and  N_2
REMARK    2  A    between atoms: N_2  and  C_3
REMARK    3  A    between atoms: N_2  and  S_10
REMARK    4  A    between atoms: S_10  and  C_13
REMARK    5  A    between atoms: C_16  and  C_17
REMARK    6  A    between atoms: C_17  and  C_18
REMARK    7  A    between atoms: C_19  and  C_20
REMARK    8  A    between atoms: C_21  and  C_22
REMARK    9  A    between atoms: C_23  and  C_24
REMARK                            x       y       z     vdW  Elec       q    Type
REMARK                         _______ _______ _______ _____ _____    ______ ____
ROOT
ATOM      1  C   UNL     1       6.783  -3.430  26.726  0.00  0.00    +0.109 A 
ATOM      2  C   UNL     1       5.452  -3.935  27.058  0.00  0.00    +0.031 A 
ATOM      3  C   UNL     1       4.372  -3.138  27.120  0.00  0.00    +0.028 A 
ATOM      4  C   UNL     1       4.545  -1.697  26.857  0.00  0.00    +0.065 A 
ATOM      5  C   UNL     1       5.918  -1.195  26.733  0.00  0.00    +0.008 A 
ATOM      6  C   UNL     1       5.768   0.131  26.671  0.00  0.00    +0.031 C 
ATOM      7  C   UNL     1       4.311   0.367  26.491  0.00  0.00    +0.265 C 
ATOM      8  O   UNL     1       3.838   1.423  26.106  0.00  0.00    -0.268 OA
ATOM      9  N   UNL     1       3.628  -0.802  26.730  0.00  0.00    -0.176 NA
ATOM     10  C   UNL     1       7.029  -2.106  26.644  0.00  0.00    +0.039 A 
ENDROOT
BRANCH   1  11
ATOM     11  S   UNL     1       8.047  -4.544  26.181  0.00  0.00    +0.074 S 
ATOM     12  O   UNL     1       9.198  -4.413  27.051  0.00  0.00    -0.150 OA
ATOM     13  O   UNL     1       7.407  -5.842  26.028  0.00  0.00    -0.150 OA
BRANCH  11  15
ATOM     14  C   UNL     1       9.763  -3.320  24.469  0.00  0.00    +0.157 C 
ATOM     15  N   UNL     1       8.494  -4.037  24.630  0.00  0.00    -0.206 N 
BRANCH  15  16
ATOM     16  C   UNL     1       7.495  -3.874  23.625  0.00  0.00    +0.052 A 
ATOM     17  C   UNL     1       6.860  -2.641  23.426  0.00  0.00    +0.025 A 
ATOM     18  C   UNL     1       5.986  -2.478  22.348  0.00  0.00    +0.003 A 
ATOM     19  C   UNL     1       5.751  -3.543  21.472  0.00  0.00    +0.020 A 
ATOM     20  C   UNL     1       6.370  -4.768  21.696  0.00  0.00    +0.043 A 
ATOM     21 CL   UNL     1       6.096  -6.080  20.614  0.00  0.00    -0.083 Cl
ATOM     22  C   UNL     1       7.233  -4.939  22.775  0.00  0.00    +0.044 A 
ENDBRANCH  15  16
ENDBRANCH  11  15
ENDBRANCH   1  11
BRANCH   6  23
ATOM     23  C   UNL     1       6.732   1.264  26.569  0.00  0.00    +0.094 C 
BRANCH  23  24
ATOM     24  C   UNL     1       7.710   1.155  25.426  0.00  0.00    +0.024 A 
ATOM     25  N   UNL     1       9.063   1.006  25.652  0.00  0.00    -0.361 N 
ATOM     26  H   UNL     1       9.500   0.985  26.567  0.00  0.00    +0.165 HD
ATOM     27  C   UNL     1       9.734   0.888  24.460  0.00  0.00    +0.016 A 
ATOM     28  C   UNL     1      11.214   0.746  24.403  0.00  0.00    +0.063 C 
ATOM     29  C   UNL     1       8.799   0.932  23.441  0.00  0.00    -0.027 A 
ATOM     30  C   UNL     1       9.079   0.761  21.986  0.00  0.00    +0.046 C 
ATOM     31  C   UNL     1       7.528   1.196  24.049  0.00  0.00    -0.026 A 
ATOM     32  C   UNL     1       6.262   1.451  23.309  0.00  0.00    +0.046 C 
ENDBRANCH  23  24
ENDBRANCH   6  23
TORSDOF 5
ENDMDL
MODEL 8
REMARK VINA RESULT:      -7.6      3.383      8.610
REMARK  Name = 
REMARK  9 active torsions:
REMARK  status: ('A' for Active; 'I' for Inactive)
REMARK    1  A    between atoms: C_1  and  N_2
REMARK    2  A    between atoms: N_2  and  C_3
REMARK    3  A    between atoms: N_2  and  S_10
REMARK    4  A    between atoms: S_10  and  C_13
REMARK    5  A    between atoms: C_16  and  C_17
REMARK    6  A    between atoms: C_17  and  C_18
REMARK    7  A    between atoms: C_19  and  C_20
REMARK    8  A    between atoms: C_21  and  C_22
REMARK    9  A    between atoms: C_23  and  C_24
REMARK                            x       y       z     vdW  Elec       q    Type
REMARK                         _______ _______ _______ _____ _____    ______ ____
ROOT
ATOM      1  C   UNL     1       8.269   0.530  23.890  0.00  0.00    +0.109 A 
ATOM      2  C   UNL     1       9.523   0.453  23.142  0.00  0.00    +0.031 A 
ATOM      3  C   UNL     1      10.254  -0.671  23.073  0.00  0.00    +0.028 A 
ATOM      4  C   UNL     1       9.776  -1.867  23.793  0.00  0.00    +0.065 A 
ATOM      5  C   UNL     1       8.633  -1.696  24.698  0.00  0.00    +0.008 A 
ATOM      6  C   UNL     1       8.540  -2.875  25.319  0.00  0.00    +0.031 C 
ATOM      7  C   UNL     1       9.450  -3.794  24.586  0.00  0.00    +0.265 C 
ATOM      8  O   UNL     1       9.406  -5.009  24.681  0.00  0.00    -0.268 OA
ATOM      9  N   UNL     1      10.249  -3.064  23.739  0.00  0.00    -0.176 NA
ATOM     10  C   UNL     1       7.874  -0.473  24.701  0.00  0.00    +0.039 A 
ENDROOT
BRANCH   1  11
ATOM     11  S   UNL     1       7.116   1.834  23.561  0.00  0.00    +0.074 S 
ATOM     12  O   UNL     1       7.314   2.308  22.207  0.00  0.00    -0.150 OA
ATOM     13  O   UNL     1       5.811   1.333  23.962  0.00  0.00    -0.150 OA
BRANCH  11  15
ATOM     14  C   UNL     1       6.664   3.280  25.814  0.00  0.00    +0.157 C 
ATOM     15  N   UNL     1       7.502   3.091  24.626  0.00  0.00    -0.206 N 
BRANCH  15  16
ATOM     16  C   UNL     1       8.277   4.196  24.164  0.00  0.00    +0.052 A 
ATOM     17  C   UNL     1       7.700   5.457  23.970  0.00  0.00    +0.025 A 
ATOM     18  C   UNL     1       8.511   6.548  23.648  0.00  0.00    +0.003 A 
ATOM     19  C   UNL     1       9.894   6.377  23.522  0.00  0.00    +0.020 A 
ATOM     20  C   UNL     1      10.450   5.114  23.693  0.00  0.00    +0.043 A 
ATOM     21 CL   UNL     1      12.153   4.898  23.553  0.00  0.00    -0.083 Cl
ATOM     22  C   UNL     1       9.645   4.022  24.004  0.00  0.00    +0.044 A 
ENDBRANCH  15  16
ENDBRANCH  11  15
ENDBRANCH   1  11
BRANCH   6  23
ATOM     23  C   UNL     1       7.633  -3.401  26.380  0.00  0.00    +0.094 C 
BRANCH  23  24
ATOM     24  C   UNL     1       6.331  -3.966  25.868  0.00  0.00    +0.024 A 
ATOM     25  N   UNL     1       6.230  -5.284  25.471  0.00  0.00    -0.361 N 
ATOM     26  H   UNL     1       6.995  -5.949  25.464  0.00  0.00    +0.165 HD
ATOM     27  C   UNL     1       4.941  -5.566  25.088  0.00  0.00    +0.016 A 
ATOM     28  C   UNL     1       4.551  -6.911  24.582  0.00  0.00    +0.063 C 
ATOM     29  C   UNL     1       4.185  -4.422  25.266  0.00  0.00    -0.027 A 
ATOM     30  C   UNL     1       2.714  -4.300  25.049  0.00  0.00    +0.046 C 
ATOM     31  C   UNL     1       5.086  -3.382  25.671  0.00  0.00    -0.026 A 
ATOM     32  C   UNL     1       4.716  -1.952  25.848  0.00  0.00    +0.046 C 
ENDBRANCH  23  24
ENDBRANCH   6  23
TORSDOF 5
ENDMDL
MODEL 9
REMARK VINA RESULT:      -7.6      3.553      5.182
REMARK  Name = 
REMARK  9 active torsions:
REMARK  status: ('A' for Active; 'I' for Inactive)
REMARK    1  A    between atoms: C_1  and  N_2
REMARK    2  A    between atoms: N_2  and  C_3
REMARK    3  A    between atoms: N_2  and  S_10
REMARK    4  A    between atoms: S_10  and  C_13
REMARK    5  A    between atoms: C_16  and  C_17
REMARK    6  A    between atoms: C_17  and  C_18
REMARK    7  A    between atoms: C_19  and  C_20
REMARK    8  A    between atoms: C_21  and  C_22
REMARK    9  A    between atoms: C_23  and  C_24
REMARK                            x       y       z     vdW  Elec       q    Type
REMARK                         _______ _______ _______ _____ _____    ______ ____
ROOT
ATOM      1  C   UNL     1       5.538  -4.163  26.994  0.00  0.00    +0.109 A 
ATOM      2  C   UNL     1       4.092  -4.206  26.780  0.00  0.00    +0.031 A 
ATOM      3  C   UNL     1       3.355  -3.096  26.608  0.00  0.00    +0.028 A 
ATOM      4  C   UNL     1       4.033  -1.787  26.652  0.00  0.00    +0.065 A 
ATOM      5  C   UNL     1       5.439  -1.770  27.073  0.00  0.00    +0.008 A 
ATOM      6  C   UNL     1       5.724  -0.469  27.178  0.00  0.00    +0.031 C 
ATOM      7  C   UNL     1       4.575   0.249  26.566  0.00  0.00    +0.265 C 
ATOM      8  O   UNL     1       4.614   1.419  26.220  0.00  0.00    -0.268 OA
ATOM      9  N   UNL     1       3.538  -0.631  26.373  0.00  0.00    -0.176 NA
ATOM     10  C   UNL     1       6.179  -2.996  27.211  0.00  0.00    +0.039 A 
ENDROOT
BRANCH   1  11
ATOM     11  S   UNL     1       6.520  -5.613  26.728  0.00  0.00    +0.074 S 
ATOM     12  O   UNL     1       7.448  -5.762  27.830  0.00  0.00    -0.150 OA
ATOM     13  O   UNL     1       5.586  -6.686  26.426  0.00  0.00    -0.150 OA
BRANCH  11  15
ATOM     14  C   UNL     1       8.875  -5.369  25.398  0.00  0.00    +0.157 C 
ATOM     15  N   UNL     1       7.411  -5.332  25.317  0.00  0.00    -0.206 N 
BRANCH  15  16
ATOM     16  C   UNL     1       6.813  -4.626  24.232  0.00  0.00    +0.052 A 
ATOM     17  C   UNL     1       5.770  -5.189  23.487  0.00  0.00    +0.025 A 
ATOM     18  C   UNL     1       5.115  -4.420  22.521  0.00  0.00    +0.003 A 
ATOM     19  C   UNL     1       5.501  -3.093  22.305  0.00  0.00    +0.020 A 
ATOM     20  C   UNL     1       6.553  -2.554  23.036  0.00  0.00    +0.043 A 
ATOM     21 CL   UNL     1       7.026  -0.917  22.786  0.00  0.00    -0.083 Cl
ATOM     22  C   UNL     1       7.217  -3.320  23.992  0.00  0.00    +0.044 A 
ENDBRANCH  15  16
ENDBRANCH  11  15
ENDBRANCH   1  11
BRANCH   6  23
ATOM     23  C   UNL     1       6.949   0.277  27.585  0.00  0.00    +0.094 C 
BRANCH  23  24
ATOM     24  C   UNL     1       7.854   0.669  26.443  0.00  0.00    +0.024 A 
ATOM     25  N   UNL     1       7.787   1.924  25.874  0.00  0.00    -0.361 N 
ATOM     26  H   UNL     1       7.134   2.650  26.145  0.00  0.00    +0.165 HD
ATOM     27  C   UNL     1       8.735   2.048  24.888  0.00  0.00    +0.016 A 
ATOM     28  C   UNL     1       8.869   3.293  24.083  0.00  0.00    +0.063 C 
ATOM     29  C   UNL     1       9.450   0.865  24.834  0.00  0.00    -0.027 A 
ATOM     30  C   UNL     1      10.626   0.591  23.959  0.00  0.00    +0.046 C 
ATOM     31  C   UNL     1       8.829  -0.042  25.755  0.00  0.00    -0.026 A 
ATOM     32  C   UNL     1       9.198  -1.474  25.923  0.00  0.00    +0.046 C 
ENDBRANCH  23  24
ENDBRANCH   6  23
TORSDOF 5
ENDMDL
