MODEL 1
REMARK VINA RESULT:      -6.1      0.000      0.000
REMARK  Name = 
REMARK  11 active torsions:
REMARK  status: ('A' for Active; 'I' for Inactive)
REMARK    1  A    between atoms: C_1  and  C_2
REMARK    2  A    between atoms: C_2  and  O_3
REMARK    3  A    between atoms: O_3  and  C_4
REMARK    4  A    between atoms: C_4  and  N_5
REMARK    5  A    between atoms: C_11  and  C_12
REMARK    6  A    between atoms: C_12  and  C_13
REMARK    7  A    between atoms: C_12  and  C_14
REMARK    8  A    between atoms: C_15  and  C_16
REMARK    9  A    between atoms: C_16  and  C_17
REMARK   10  A    between atoms: C_19  and  C_20
REMARK   11  A    between atoms: C_22  and  C_23
REMARK                            x       y       z     vdW  Elec       q    Type
REMARK                         _______ _______ _______ _____ _____    ______ ____
ROOT
ATOM      1  N   UNL     1       7.239  -0.395  25.204  0.00  0.00    -0.273 N 
ATOM      2  C   UNL     1       7.854  -0.581  23.945  0.00  0.00    +0.039 A 
ATOM      3  C   UNL     1       9.091  -0.067  23.712  0.00  0.00    +0.039 A 
ATOM      4  C   UNL     1       9.738   0.659  24.840  0.00  0.00    +0.258 A 
ATOM      5  O   UNL     1      10.634   1.484  24.682  0.00  0.00    -0.267 OA
ATOM      6  N   UNL     1       9.278   0.342  26.075  0.00  0.00    -0.275 N 
ATOM      7  H   UNL     1       9.734   0.807  26.845  0.00  0.00    +0.173 HD
ATOM      8  C   UNL     1       7.978   0.016  26.312  0.00  0.00    +0.331 A 
ATOM      9  O   UNL     1       7.546   0.099  27.460  0.00  0.00    -0.246 OA
ENDROOT
BRANCH   3  10
ATOM     10  C   UNL     1       9.862  -0.125  22.391  0.00  0.00    +0.020 C 
ATOM     11  C   UNL     1       9.062   0.215  21.123  0.00  0.00    +0.012 C 
ATOM     12  C   UNL     1      10.531  -1.493  22.231  0.00  0.00    +0.012 C 
ENDBRANCH   3  10
BRANCH   1  13
ATOM     13  C   UNL     1       5.848  -0.735  25.489  0.00  0.00    +0.289 C 
BRANCH  13  14
ATOM     14  O   UNL     1       5.725  -2.110  25.898  0.00  0.00    -0.359 OA
BRANCH  14  16
ATOM     15  C   UNL     1       4.675  -4.163  25.074  0.00  0.00    +0.034 C 
ATOM     16  C   UNL     1       4.535  -2.674  25.337  0.00  0.00    +0.159 C 
ENDBRANCH  14  16
ENDBRANCH  13  14
ENDBRANCH   1  13
BRANCH   2  17
ATOM     17  C   UNL     1       7.091  -1.315  22.840  0.00  0.00    +0.089 C 
BRANCH  17  18
ATOM     18  C   UNL     1       7.263  -2.828  22.747  0.00  0.00    -0.041 A 
ATOM     19  C   UNL     1       8.074  -3.439  23.722  0.00  0.00    +0.007 A 
ATOM     20  C   UNL     1       8.167  -4.831  23.838  0.00  0.00    -0.050 A 
ATOM     21  C   UNL     1       8.896  -5.443  24.997  0.00  0.00    +0.044 C 
ATOM     22  C   UNL     1       7.488  -5.634  22.919  0.00  0.00    +0.006 A 
ATOM     23  C   UNL     1       6.744  -5.056  21.881  0.00  0.00    -0.050 A 
ATOM     24  C   UNL     1       6.062  -5.957  20.891  0.00  0.00    +0.044 C 
ATOM     25  C   UNL     1       6.622  -3.655  21.811  0.00  0.00    +0.007 A 
ENDBRANCH  17  18
ENDBRANCH   2  17
TORSDOF 6
ENDMDL
MODEL 2
REMARK VINA RESULT:      -6.0      0.389      1.796
REMARK  Name = 
REMARK  11 active torsions:
REMARK  status: ('A' for Active; 'I' for Inactive)
REMARK    1  A    between atoms: C_1  and  C_2
REMARK    2  A    between atoms: C_2  and  O_3
REMARK    3  A    between atoms: O_3  and  C_4
REMARK    4  A    between atoms: C_4  and  N_5
REMARK    5  A    between atoms: C_11  and  C_12
REMARK    6  A    between atoms: C_12  and  C_13
REMARK    7  A    between atoms: C_12  and  C_14
REMARK    8  A    between atoms: C_15  and  C_16
REMARK    9  A    between atoms: C_16  and  C_17
REMARK   10  A    between atoms: C_19  and  C_20
REMARK   11  A    between atoms: C_22  and  C_23
REMARK                            x       y       z     vdW  Elec       q    Type
REMARK                         _______ _______ _______ _____ _____    ______ ____
ROOT
ATOM      1  N   UNL     1       6.928  -0.127  25.034  0.00  0.00    -0.273 N 
ATOM      2  C   UNL     1       7.644  -0.415  23.850  0.00  0.00    +0.039 A 
ATOM      3  C   UNL     1       8.856   0.163  23.633  0.00  0.00    +0.039 A 
ATOM      4  C   UNL     1       9.365   1.070  24.699  0.00  0.00    +0.258 A 
ATOM      5  O   UNL     1      10.210   1.937  24.495  0.00  0.00    -0.267 OA
ATOM      6  N   UNL     1       8.841   0.869  25.932  0.00  0.00    -0.275 N 
ATOM      7  H   UNL     1       9.205   1.459  26.665  0.00  0.00    +0.173 HD
ATOM      8  C   UNL     1       7.553   0.472  26.125  0.00  0.00    +0.331 A 
ATOM      9  O   UNL     1       7.034   0.659  27.225  0.00  0.00    -0.246 OA
ENDROOT
BRANCH   3  10
ATOM     10  C   UNL     1       9.723   0.006  22.382  0.00  0.00    +0.020 C 
ATOM     11  C   UNL     1       9.031   0.286  21.038  0.00  0.00    +0.012 C 
ATOM     12  C   UNL     1      10.364  -1.384  22.356  0.00  0.00    +0.012 C 
ENDBRANCH   3  10
BRANCH   1  13
ATOM     13  C   UNL     1       5.547  -0.539  25.271  0.00  0.00    +0.289 C 
BRANCH  13  14
ATOM     14  O   UNL     1       5.495  -1.825  25.917  0.00  0.00    -0.359 OA
BRANCH  14  16
ATOM     15  C   UNL     1       4.689  -4.103  25.521  0.00  0.00    +0.034 C 
ATOM     16  C   UNL     1       4.455  -2.615  25.332  0.00  0.00    +0.159 C 
ENDBRANCH  14  16
ENDBRANCH  13  14
ENDBRANCH   1  13
BRANCH   2  17
ATOM     17  C   UNL     1       7.018  -1.336  22.800  0.00  0.00    +0.089 C 
BRANCH  17  18
ATOM     18  C   UNL     1       7.191  -2.840  22.986  0.00  0.00    -0.041 A 
ATOM     19  C   UNL     1       6.553  -3.677  22.051  0.00  0.00    +0.007 A 
ATOM     20  C   UNL     1       6.780  -5.058  22.021  0.00  0.00    -0.050 A 
ATOM     21  C   UNL     1       6.225  -5.888  20.901  0.00  0.00    +0.044 C 
ATOM     22  C   UNL     1       7.608  -5.629  22.989  0.00  0.00    +0.006 A 
ATOM     23  C   UNL     1       8.186  -4.836  23.990  0.00  0.00    -0.050 A 
ATOM     24  C   UNL     1       9.040  -5.498  25.035  0.00  0.00    +0.044 C 
ATOM     25  C   UNL     1       7.988  -3.443  23.973  0.00  0.00    +0.007 A 
ENDBRANCH  17  18
ENDBRANCH   2  17
TORSDOF 6
ENDMDL
MODEL 3
REMARK VINA RESULT:      -6.0      3.458      6.615
REMARK  Name = 
REMARK  11 active torsions:
REMARK  status: ('A' for Active; 'I' for Inactive)
REMARK    1  A    between atoms: C_1  and  C_2
REMARK    2  A    between atoms: C_2  and  O_3
REMARK    3  A    between atoms: O_3  and  C_4
REMARK    4  A    between atoms: C_4  and  N_5
REMARK    5  A    between atoms: C_11  and  C_12
REMARK    6  A    between atoms: C_12  and  C_13
REMARK    7  A    between atoms: C_12  and  C_14
REMARK    8  A    between atoms: C_15  and  C_16
REMARK    9  A    between atoms: C_16  and  C_17
REMARK   10  A    between atoms: C_19  and  C_20
REMARK   11  A    between atoms: C_22  and  C_23
REMARK                            x       y       z     vdW  Elec       q    Type
REMARK                         _______ _______ _______ _____ _____    ______ ____
ROOT
ATOM      1  N   UNL     1       5.424  -5.731  27.169  0.00  0.00    -0.273 N 
ATOM      2  C   UNL     1       4.592  -5.000  26.291  0.00  0.00    +0.039 A 
ATOM      3  C   UNL     1       3.429  -5.548  25.845  0.00  0.00    +0.039 A 
ATOM      4  C   UNL     1       3.098  -6.912  26.343  0.00  0.00    +0.258 A 
ATOM      5  O   UNL     1       2.329  -7.671  25.760  0.00  0.00    -0.267 OA
ATOM      6  N   UNL     1       3.696  -7.266  27.507  0.00  0.00    -0.275 N 
ATOM      7  H   UNL     1       3.450  -8.176  27.866  0.00  0.00    +0.173 HD
ATOM      8  C   UNL     1       4.949  -6.854  27.842  0.00  0.00    +0.331 A 
ATOM      9  O   UNL     1       5.569  -7.481  28.700  0.00  0.00    -0.246 OA
ENDROOT
BRANCH   3  10
ATOM     10  C   UNL     1       2.455  -4.918  24.847  0.00  0.00    +0.020 C 
ATOM     11  C   UNL     1       0.979  -4.873  25.275  0.00  0.00    +0.012 C 
ATOM     12  C   UNL     1       2.580  -5.604  23.484  0.00  0.00    +0.012 C 
ENDBRANCH   3  10
BRANCH   1  13
ATOM     13  C   UNL     1       6.771  -5.316  27.547  0.00  0.00    +0.289 C 
BRANCH  13  14
ATOM     14  O   UNL     1       7.741  -5.762  26.581  0.00  0.00    -0.359 OA
BRANCH  14  16
ATOM     15  C   UNL     1       9.578  -4.965  25.170  0.00  0.00    +0.034 C 
ATOM     16  C   UNL     1       8.771  -4.778  26.442  0.00  0.00    +0.159 C 
ENDBRANCH  14  16
ENDBRANCH  13  14
ENDBRANCH   1  13
BRANCH   2  17
ATOM     17  C   UNL     1       5.039  -3.617  25.810  0.00  0.00    +0.089 C 
BRANCH  17  18
ATOM     18  C   UNL     1       5.835  -3.544  24.511  0.00  0.00    -0.041 A 
ATOM     19  C   UNL     1       6.422  -2.306  24.191  0.00  0.00    +0.007 A 
ATOM     20  C   UNL     1       7.310  -2.166  23.117  0.00  0.00    -0.050 A 
ATOM     21  C   UNL     1       8.052  -0.877  22.918  0.00  0.00    +0.044 C 
ATOM     22  C   UNL     1       7.567  -3.270  22.303  0.00  0.00    +0.006 A 
ATOM     23  C   UNL     1       6.928  -4.495  22.540  0.00  0.00    -0.050 A 
ATOM     24  C   UNL     1       7.204  -5.647  21.615  0.00  0.00    +0.044 C 
ATOM     25  C   UNL     1       6.078  -4.630  23.654  0.00  0.00    +0.007 A 
ENDBRANCH  17  18
ENDBRANCH   2  17
TORSDOF 6
ENDMDL
MODEL 4
REMARK VINA RESULT:      -5.9      3.233      5.516
REMARK  Name = 
REMARK  11 active torsions:
REMARK  status: ('A' for Active; 'I' for Inactive)
REMARK    1  A    between atoms: C_1  and  C_2
REMARK    2  A    between atoms: C_2  and  O_3
REMARK    3  A    between atoms: O_3  and  C_4
REMARK    4  A    between atoms: C_4  and  N_5
REMARK    5  A    between atoms: C_11  and  C_12
REMARK    6  A    between atoms: C_12  and  C_13
REMARK    7  A    between atoms: C_12  and  C_14
REMARK    8  A    between atoms: C_15  and  C_16
REMARK    9  A    between atoms: C_16  and  C_17
REMARK   10  A    between atoms: C_19  and  C_20
REMARK   11  A    between atoms: C_22  and  C_23
REMARK                            x       y       z     vdW  Elec       q    Type
REMARK                         _______ _______ _______ _____ _____    ______ ____
ROOT
ATOM      1  N   UNL     1       5.224  -5.670  24.427  0.00  0.00    -0.273 N 
ATOM      2  C   UNL     1       6.477  -5.032  24.288  0.00  0.00    +0.039 A 
ATOM      3  C   UNL     1       7.305  -4.921  25.362  0.00  0.00    +0.039 A 
ATOM      4  C   UNL     1       6.825  -5.516  26.640  0.00  0.00    +0.258 A 
ATOM      5  O   UNL     1       7.248  -5.173  27.741  0.00  0.00    -0.267 OA
ATOM      6  N   UNL     1       5.886  -6.485  26.514  0.00  0.00    -0.275 N 
ATOM      7  H   UNL     1       5.580  -6.913  27.375  0.00  0.00    +0.173 HD
ATOM      8  C   UNL     1       4.941  -6.466  25.534  0.00  0.00    +0.331 A 
ATOM      9  O   UNL     1       3.922  -7.139  25.681  0.00  0.00    -0.246 OA
ENDROOT
BRANCH   3  10
ATOM     10  C   UNL     1       8.658  -4.207  25.393  0.00  0.00    +0.020 C 
ATOM     11  C   UNL     1       9.870  -5.066  25.791  0.00  0.00    +0.012 C 
ATOM     12  C   UNL     1       8.580  -2.971  26.292  0.00  0.00    +0.012 C 
ENDBRANCH   3  10
BRANCH   1  13
ATOM     13  C   UNL     1       4.191  -5.669  23.395  0.00  0.00    +0.289 C 
BRANCH  13  14
ATOM     14  O   UNL     1       3.264  -4.585  23.594  0.00  0.00    -0.359 OA
BRANCH  14  16
ATOM     15  C   UNL     1       1.046  -4.339  24.604  0.00  0.00    +0.034 C 
ATOM     16  C   UNL     1       1.927  -5.096  23.626  0.00  0.00    +0.159 C 
ENDBRANCH  14  16
ENDBRANCH  13  14
ENDBRANCH   1  13
BRANCH   2  17
ATOM     17  C   UNL     1       6.864  -4.424  22.937  0.00  0.00    +0.089 C 
BRANCH  17  18
ATOM     18  C   UNL     1       7.150  -2.926  22.893  0.00  0.00    -0.041 A 
ATOM     19  C   UNL     1       6.296  -2.091  23.637  0.00  0.00    +0.007 A 
ATOM     20  C   UNL     1       6.563  -0.726  23.806  0.00  0.00    -0.050 A 
ATOM     21  C   UNL     1       5.731   0.091  24.750  0.00  0.00    +0.044 C 
ATOM     22  C   UNL     1       7.670  -0.168  23.165  0.00  0.00    +0.006 A 
ATOM     23  C   UNL     1       8.489  -0.955  22.344  0.00  0.00    -0.050 A 
ATOM     24  C   UNL     1       9.647  -0.304  21.641  0.00  0.00    +0.044 C 
ATOM     25  C   UNL     1       8.235  -2.334  22.225  0.00  0.00    +0.007 A 
ENDBRANCH  17  18
ENDBRANCH   2  17
TORSDOF 6
ENDMDL
MODEL 5
REMARK VINA RESULT:      -5.8      2.039      2.475
REMARK  Name = 
REMARK  11 active torsions:
REMARK  status: ('A' for Active; 'I' for Inactive)
REMARK    1  A    between atoms: C_1  and  C_2
REMARK    2  A    between atoms: C_2  and  O_3
REMARK    3  A    between atoms: O_3  and  C_4
REMARK    4  A    between atoms: C_4  and  N_5
REMARK    5  A    between atoms: C_11  and  C_12
REMARK    6  A    between atoms: C_12  and  C_13
REMARK    7  A    between atoms: C_12  and  C_14
REMARK    8  A    between atoms: C_15  and  C_16
REMARK    9  A    between atoms: C_16  and  C_17
REMARK   10  A    between atoms: C_19  and  C_20
REMARK   11  A    between atoms: C_22  and  C_23
REMARK                            x       y       z     vdW  Elec       q    Type
REMARK                         _______ _______ _______ _____ _____    ______ ____
ROOT
ATOM      1  N   UNL     1       6.317   0.392  24.766  0.00  0.00    -0.273 N 
ATOM      2  C   UNL     1       7.646   0.162  24.344  0.00  0.00    +0.039 A 
ATOM      3  C   UNL     1       8.139   0.828  23.265  0.00  0.00    +0.039 A 
ATOM      4  C   UNL     1       7.222   1.794  22.598  0.00  0.00    +0.258 A 
ATOM      5  O   UNL     1       7.365   2.161  21.435  0.00  0.00    -0.267 OA
ATOM      6  N   UNL     1       6.210   2.261  23.369  0.00  0.00    -0.275 N 
ATOM      7  H   UNL     1       5.605   2.940  22.933  0.00  0.00    +0.173 HD
ATOM      8  C   UNL     1       5.601   1.500  24.320  0.00  0.00    +0.331 A 
ATOM      9  O   UNL     1       4.486   1.831  24.718  0.00  0.00    -0.246 OA
ENDROOT
BRANCH   3  10
ATOM     10  C   UNL     1       9.526   0.646  22.645  0.00  0.00    +0.020 C 
ATOM     11  C   UNL     1      10.265   1.933  22.245  0.00  0.00    +0.012 C 
ATOM     12  C   UNL     1       9.446  -0.301  21.444  0.00  0.00    +0.012 C 
ENDBRANCH   3  10
BRANCH   1  13
ATOM     13  C   UNL     1       5.637  -0.405  25.783  0.00  0.00    +0.289 C 
BRANCH  13  14
ATOM     14  O   UNL     1       4.817  -1.423  25.178  0.00  0.00    -0.359 OA
BRANCH  14  16
ATOM     15  C   UNL     1       4.091  -3.747  25.445  0.00  0.00    +0.034 C 
ATOM     16  C   UNL     1       4.593  -2.481  26.116  0.00  0.00    +0.159 C 
ENDBRANCH  14  16
ENDBRANCH  13  14
ENDBRANCH   1  13
BRANCH   2  17
ATOM     17  C   UNL     1       8.497  -0.877  25.077  0.00  0.00    +0.089 C 
BRANCH  17  18
ATOM     18  C   UNL     1       8.201  -2.349  24.809  0.00  0.00    -0.041 A 
ATOM     19  C   UNL     1       8.196  -3.212  25.921  0.00  0.00    +0.007 A 
ATOM     20  C   UNL     1       7.773  -4.543  25.820  0.00  0.00    -0.050 A 
ATOM     21  C   UNL     1       7.611  -5.377  27.057  0.00  0.00    +0.044 C 
ATOM     22  C   UNL     1       7.411  -5.045  24.569  0.00  0.00    +0.006 A 
ATOM     23  C   UNL     1       7.491  -4.238  23.426  0.00  0.00    -0.050 A 
ATOM     24  C   UNL     1       7.129  -4.830  22.094  0.00  0.00    +0.044 C 
ATOM     25  C   UNL     1       7.870  -2.888  23.555  0.00  0.00    +0.007 A 
ENDBRANCH  17  18
ENDBRANCH   2  17
TORSDOF 6
ENDMDL
MODEL 6
REMARK VINA RESULT:      -5.6      2.086      3.756
REMARK  Name = 
REMARK  11 active torsions:
REMARK  status: ('A' for Active; 'I' for Inactive)
REMARK    1  A    between atoms: C_1  and  C_2
REMARK    2  A    between atoms: C_2  and  O_3
REMARK    3  A    between atoms: O_3  and  C_4
REMARK    4  A    between atoms: C_4  and  N_5
REMARK    5  A    between atoms: C_11  and  C_12
REMARK    6  A    between atoms: C_12  and  C_13
REMARK    7  A    between atoms: C_12  and  C_14
REMARK    8  A    between atoms: C_15  and  C_16
REMARK    9  A    between atoms: C_16  and  C_17
REMARK   10  A    between atoms: C_19  and  C_20
REMARK   11  A    between atoms: C_22  and  C_23
REMARK                            x       y       z     vdW  Elec       q    Type
REMARK                         _______ _______ _______ _____ _____    ______ ____
ROOT
ATOM      1  N   UNL     1       9.353  -0.229  23.895  0.00  0.00    -0.273 N 
ATOM      2  C   UNL     1       8.157   0.186  23.267  0.00  0.00    +0.039 A 
ATOM      3  C   UNL     1       7.690   1.448  23.464  0.00  0.00    +0.039 A 
ATOM      4  C   UNL     1       8.508   2.335  24.337  0.00  0.00    +0.258 A 
ATOM      5  O   UNL     1       8.051   3.320  24.910  0.00  0.00    -0.267 OA
ATOM      6  N   UNL     1       9.814   1.992  24.454  0.00  0.00    -0.275 N 
ATOM      7  H   UNL     1      10.380   2.606  25.019  0.00  0.00    +0.173 HD
ATOM      8  C   UNL     1      10.235   0.697  24.448  0.00  0.00    +0.331 A 
ATOM      9  O   UNL     1      11.341   0.431  24.915  0.00  0.00    -0.246 OA
ENDROOT
BRANCH   3  10
ATOM     10  C   UNL     1       6.387   2.028  22.912  0.00  0.00    +0.020 C 
ATOM     11  C   UNL     1       6.506   3.354  22.142  0.00  0.00    +0.012 C 
ATOM     12  C   UNL     1       5.357   2.171  24.035  0.00  0.00    +0.012 C 
ENDBRANCH   3  10
BRANCH   1  13
ATOM     13  C   UNL     1       9.831  -1.609  23.905  0.00  0.00    +0.289 C 
BRANCH  13  14
ATOM     14  O   UNL     1       9.250  -2.349  24.995  0.00  0.00    -0.359 OA
BRANCH  14  16
ATOM     15  C   UNL     1       8.225  -4.493  25.591  0.00  0.00    +0.034 C 
ATOM     16  C   UNL     1       9.102  -3.723  24.619  0.00  0.00    +0.159 C 
ENDBRANCH  14  16
ENDBRANCH  13  14
ENDBRANCH   1  13
BRANCH   2  17
ATOM     17  C   UNL     1       7.372  -0.813  22.414  0.00  0.00    +0.089 C 
BRANCH  17  18
ATOM     18  C   UNL     1       6.378  -1.725  23.128  0.00  0.00    -0.041 A 
ATOM     19  C   UNL     1       6.063  -2.943  22.497  0.00  0.00    +0.007 A 
ATOM     20  C   UNL     1       5.300  -3.928  23.136  0.00  0.00    -0.050 A 
ATOM     21  C   UNL     1       5.137  -5.280  22.505  0.00  0.00    +0.044 C 
ATOM     22  C   UNL     1       4.783  -3.666  24.406  0.00  0.00    +0.006 A 
ATOM     23  C   UNL     1       5.003  -2.428  25.024  0.00  0.00    -0.050 A 
ATOM     24  C   UNL     1       4.394  -2.174  26.374  0.00  0.00    +0.044 C 
ATOM     25  C   UNL     1       5.814  -1.469  24.388  0.00  0.00    +0.007 A 
ENDBRANCH  17  18
ENDBRANCH   2  17
TORSDOF 6
ENDMDL
MODEL 7
REMARK VINA RESULT:      -5.5      2.340      4.215
REMARK  Name = 
REMARK  11 active torsions:
REMARK  status: ('A' for Active; 'I' for Inactive)
REMARK    1  A    between atoms: C_1  and  C_2
REMARK    2  A    between atoms: C_2  and  O_3
REMARK    3  A    between atoms: O_3  and  C_4
REMARK    4  A    between atoms: C_4  and  N_5
REMARK    5  A    between atoms: C_11  and  C_12
REMARK    6  A    between atoms: C_12  and  C_13
REMARK    7  A    between atoms: C_12  and  C_14
REMARK    8  A    between atoms: C_15  and  C_16
REMARK    9  A    between atoms: C_16  and  C_17
REMARK   10  A    between atoms: C_19  and  C_20
REMARK   11  A    between atoms: C_22  and  C_23
REMARK                            x       y       z     vdW  Elec       q    Type
REMARK                         _______ _______ _______ _____ _____    ______ ____
ROOT
ATOM      1  N   UNL     1       8.057  -3.562  23.875  0.00  0.00    -0.273 N 
ATOM      2  C   UNL     1       7.226  -2.505  23.439  0.00  0.00    +0.039 A 
ATOM      3  C   UNL     1       7.612  -1.215  23.630  0.00  0.00    +0.039 A 
ATOM      4  C   UNL     1       8.932  -1.003  24.287  0.00  0.00    +0.258 A 
ATOM      5  O   UNL     1       9.234   0.038  24.865  0.00  0.00    -0.267 OA
ATOM      6  N   UNL     1       9.799  -2.040  24.198  0.00  0.00    -0.275 N 
ATOM      7  H   UNL     1      10.706  -1.890  24.614  0.00  0.00    +0.173 HD
ATOM      8  C   UNL     1       9.392  -3.339  24.203  0.00  0.00    +0.331 A 
ATOM      9  O   UNL     1      10.207  -4.215  24.488  0.00  0.00    -0.246 OA
ENDROOT
BRANCH   3  10
ATOM     10  C   UNL     1       6.803   0.035  23.276  0.00  0.00    +0.020 C 
ATOM     11  C   UNL     1       7.563   1.148  22.537  0.00  0.00    +0.012 C 
ATOM     12  C   UNL     1       6.139   0.605  24.531  0.00  0.00    +0.012 C 
ENDBRANCH   3  10
BRANCH   1  13
ATOM     13  C   UNL     1       7.649  -4.964  23.893  0.00  0.00    +0.289 C 
BRANCH  13  14
ATOM     14  O   UNL     1       7.962  -5.609  22.644  0.00  0.00    -0.359 OA
BRANCH  14  16
ATOM     15  C   UNL     1       6.294  -5.805  20.861  0.00  0.00    +0.034 C 
ATOM     16  C   UNL     1       6.822  -6.340  22.181  0.00  0.00    +0.159 C 
ENDBRANCH  14  16
ENDBRANCH  13  14
ENDBRANCH   1  13
BRANCH   2  17
ATOM     17  C   UNL     1       5.872  -2.829  22.803  0.00  0.00    +0.089 C 
BRANCH  17  18
ATOM     18  C   UNL     1       4.781  -3.390  23.711  0.00  0.00    -0.041 A 
ATOM     19  C   UNL     1       4.597  -2.756  24.954  0.00  0.00    +0.007 A 
ATOM     20  C   UNL     1       3.521  -3.073  25.792  0.00  0.00    -0.050 A 
ATOM     21  C   UNL     1       3.257  -2.254  27.020  0.00  0.00    +0.044 C 
ATOM     22  C   UNL     1       2.646  -4.093  25.413  0.00  0.00    +0.006 A 
ATOM     23  C   UNL     1       2.853  -4.805  24.224  0.00  0.00    -0.050 A 
ATOM     24  C   UNL     1       1.909  -5.921  23.874  0.00  0.00    +0.044 C 
ATOM     25  C   UNL     1       3.911  -4.438  23.370  0.00  0.00    +0.007 A 
ENDBRANCH  17  18
ENDBRANCH   2  17
TORSDOF 6
ENDMDL
MODEL 8
REMARK VINA RESULT:      -5.5      1.562      2.247
REMARK  Name = 
REMARK  11 active torsions:
REMARK  status: ('A' for Active; 'I' for Inactive)
REMARK    1  A    between atoms: C_1  and  C_2
REMARK    2  A    between atoms: C_2  and  O_3
REMARK    3  A    between atoms: O_3  and  C_4
REMARK    4  A    between atoms: C_4  and  N_5
REMARK    5  A    between atoms: C_11  and  C_12
REMARK    6  A    between atoms: C_12  and  C_13
REMARK    7  A    between atoms: C_12  and  C_14
REMARK    8  A    between atoms: C_15  and  C_16
REMARK    9  A    between atoms: C_16  and  C_17
REMARK   10  A    between atoms: C_19  and  C_20
REMARK   11  A    between atoms: C_22  and  C_23
REMARK                            x       y       z     vdW  Elec       q    Type
REMARK                         _______ _______ _______ _____ _____    ______ ____
ROOT
ATOM      1  N   UNL     1       6.838  -0.098  25.334  0.00  0.00    -0.273 N 
ATOM      2  C   UNL     1       7.332  -0.571  24.097  0.00  0.00    +0.039 A 
ATOM      3  C   UNL     1       8.625  -0.336  23.748  0.00  0.00    +0.039 A 
ATOM      4  C   UNL     1       9.459   0.409  24.733  0.00  0.00    +0.258 A 
ATOM      5  O   UNL     1      10.478   1.020  24.423  0.00  0.00    -0.267 OA
ATOM      6  N   UNL     1       9.025   0.359  26.016  0.00  0.00    -0.275 N 
ATOM      7  H   UNL     1       9.603   0.835  26.692  0.00  0.00    +0.173 HD
ATOM      8  C   UNL     1       7.704   0.319  26.342  0.00  0.00    +0.331 A 
ATOM      9  O   UNL     1       7.364   0.642  27.479  0.00  0.00    -0.246 OA
ENDROOT
BRANCH   3  10
ATOM     10  C   UNL     1       9.291  -0.722  22.426  0.00  0.00    +0.020 C 
ATOM     11  C   UNL     1      10.603  -1.517  22.534  0.00  0.00    +0.012 C 
ATOM     12  C   UNL     1       9.508   0.523  21.562  0.00  0.00    +0.012 C 
ENDBRANCH   3  10
BRANCH   1  13
ATOM     13  C   UNL     1       5.428  -0.128  25.712  0.00  0.00    +0.289 C 
BRANCH  13  14
ATOM     14  O   UNL     1       4.734   1.031  25.213  0.00  0.00    -0.359 OA
BRANCH  14  16
ATOM     15  C   UNL     1       4.167   3.277  26.008  0.00  0.00    +0.034 C 
ATOM     16  C   UNL     1       4.214   1.790  26.310  0.00  0.00    +0.159 C 
ENDBRANCH  14  16
ENDBRANCH  13  14
ENDBRANCH   1  13
BRANCH   2  17
ATOM     17  C   UNL     1       6.384  -1.297  23.139  0.00  0.00    +0.089 C 
BRANCH  17  18
ATOM     18  C   UNL     1       6.447  -2.821  23.103  0.00  0.00    -0.041 A 
ATOM     19  C   UNL     1       6.547  -3.485  24.340  0.00  0.00    +0.007 A 
ATOM     20  C   UNL     1       6.441  -4.878  24.440  0.00  0.00    -0.050 A 
ATOM     21  C   UNL     1       6.373  -5.532  25.788  0.00  0.00    +0.044 C 
ATOM     22  C   UNL     1       6.301  -5.632  23.274  0.00  0.00    +0.006 A 
ATOM     23  C   UNL     1       6.289  -5.008  22.019  0.00  0.00    -0.050 A 
ATOM     24  C   UNL     1       6.176  -5.861  20.787  0.00  0.00    +0.044 C 
ATOM     25  C   UNL     1       6.345  -3.603  21.941  0.00  0.00    +0.007 A 
ENDBRANCH  17  18
ENDBRANCH   2  17
TORSDOF 6
ENDMDL
MODEL 9
REMARK VINA RESULT:      -5.5      2.184      4.603
REMARK  Name = 
REMARK  11 active torsions:
REMARK  status: ('A' for Active; 'I' for Inactive)
REMARK    1  A    between atoms: C_1  and  C_2
REMARK    2  A    between atoms: C_2  and  O_3
REMARK    3  A    between atoms: O_3  and  C_4
REMARK    4  A    between atoms: C_4  and  N_5
REMARK    5  A    between atoms: C_11  and  C_12
REMARK    6  A    between atoms: C_12  and  C_13
REMARK    7  A    between atoms: C_12  and  C_14
REMARK    8  A    between atoms: C_15  and  C_16
REMARK    9  A    between atoms: C_16  and  C_17
REMARK   10  A    between atoms: C_19  and  C_20
REMARK   11  A    between atoms: C_22  and  C_23
REMARK                            x       y       z     vdW  Elec       q    Type
REMARK                         _______ _______ _______ _____ _____    ______ ____
ROOT
ATOM      1  N   UNL     1       7.935   1.184  22.644  0.00  0.00    -0.273 N 
ATOM      2  C   UNL     1       7.851   0.028  23.453  0.00  0.00    +0.039 A 
ATOM      3  C   UNL     1       6.794  -0.138  24.293  0.00  0.00    +0.039 A 
ATOM      4  C   UNL     1       5.760   0.935  24.285  0.00  0.00    +0.258 A 
ATOM      5  O   UNL     1       4.987   1.129  25.219  0.00  0.00    -0.267 OA
ATOM      6  N   UNL     1       5.713   1.689  23.160  0.00  0.00    -0.275 N 
ATOM      7  H   UNL     1       4.994   2.396  23.136  0.00  0.00    +0.173 HD
ATOM      8  C   UNL     1       6.826   2.001  22.440  0.00  0.00    +0.331 A 
ATOM      9  O   UNL     1       6.784   2.960  21.671  0.00  0.00    -0.246 OA
ENDROOT
BRANCH   3  10
ATOM     10  C   UNL     1       6.588  -1.293  25.274  0.00  0.00    +0.020 C 
ATOM     11  C   UNL     1       5.243  -2.032  25.181  0.00  0.00    +0.012 C 
ATOM     12  C   UNL     1       6.818  -0.812  26.709  0.00  0.00    +0.012 C 
ENDBRANCH   3  10
BRANCH   1  13
ATOM     13  C   UNL     1       9.113   1.545  21.861  0.00  0.00    +0.289 C 
BRANCH  13  14
ATOM     14  O   UNL     1      10.251   1.772  22.714  0.00  0.00    -0.359 OA
BRANCH  14  16
ATOM     15  C   UNL     1      11.407   3.822  23.392  0.00  0.00    +0.034 C 
ATOM     16  C   UNL     1      10.110   3.032  23.378  0.00  0.00    +0.159 C 
ENDBRANCH  14  16
ENDBRANCH  13  14
ENDBRANCH   1  13
BRANCH   2  17
ATOM     17  C   UNL     1       8.984  -1.001  23.411  0.00  0.00    +0.089 C 
BRANCH  17  18
ATOM     18  C   UNL     1       8.598  -2.474  23.325  0.00  0.00    -0.041 A 
ATOM     19  C   UNL     1       9.113  -3.328  24.318  0.00  0.00    +0.007 A 
ATOM     20  C   UNL     1       8.692  -4.658  24.438  0.00  0.00    -0.050 A 
ATOM     21  C   UNL     1       9.126  -5.482  25.614  0.00  0.00    +0.044 C 
ATOM     22  C   UNL     1       7.788  -5.169  23.505  0.00  0.00    +0.006 A 
ATOM     23  C   UNL     1       7.325  -4.371  22.450  0.00  0.00    -0.050 A 
ATOM     24  C   UNL     1       6.383  -4.973  21.446  0.00  0.00    +0.044 C 
ATOM     25  C   UNL     1       7.720  -3.021  22.375  0.00  0.00    +0.007 A 
ENDBRANCH  17  18
ENDBRANCH   2  17
TORSDOF 6
ENDMDL
