MODEL 1
REMARK VINA RESULT:      -5.2      0.000      0.000
REMARK  Name = 
REMARK  6 active torsions:
REMARK  status: ('A' for Active; 'I' for Inactive)
REMARK    1  A    between atoms: C_1  and  N_2
REMARK    2  A    between atoms: N_2  and  C_3
REMARK    3  A    between atoms: C_3  and  C_4
REMARK    4  A    between atoms: C_4  and  O_6
REMARK    5  A    between atoms: C_4  and  C_7
REMARK    6  A    between atoms: C_9  and  O_10
REMARK                            x       y       z     vdW  Elec       q    Type
REMARK                         _______ _______ _______ _____ _____    ______ ____
ROOT
ATOM      1  C   UNL     1      10.436   4.494  23.666  0.00  0.00    -0.014 A 
ATOM      2  C   UNL     1      10.122   5.656  24.392  0.00  0.00    +0.006 A 
ATOM      3  C   UNL     1      11.111   6.585  24.726  0.00  0.00    +0.004 A 
ATOM      4  C   UNL     1      12.428   6.377  24.326  0.00  0.00    +0.045 A 
ATOM      5  C   UNL     1      12.747   5.246  23.589  0.00  0.00    +0.117 A 
ATOM      6  C   UNL     1      11.772   4.305  23.262  0.00  0.00    +0.051 A 
ENDROOT
BRANCH   5   7
ATOM      7  O   UNL     1      14.048   5.081  23.214  0.00  0.00    -0.507 OA
ATOM      8  H   UNL     1      14.544   4.703  23.958  0.00  0.00    +0.292 HD
ENDBRANCH   5   7
BRANCH   1   9
ATOM      9  C   UNL     1       9.413   3.400  23.413  0.00  0.00    +0.158 C 
BRANCH   9  10
ATOM     10  O   UNL     1       8.424   3.800  22.455  0.00  0.00    -0.386 OA
ATOM     11  H   UNL     1       8.052   2.979  22.090  0.00  0.00    +0.210 HD
ENDBRANCH   9  10
BRANCH   9  12
ATOM     12  C   UNL     1      10.010   2.049  22.937  0.00  0.00    +0.116 C 
BRANCH  12  14
ATOM     13  C   UNL     1       9.202   0.402  21.325  0.00  0.00    +0.101 C 
ATOM     14  N   UNL     1       9.739   1.743  21.515  0.00  0.00    -0.316 NA
ATOM     15  H   UNL     1       9.042   2.423  21.196  0.00  0.00    +0.122 HD
ENDBRANCH  12  14
ENDBRANCH   9  12
ENDBRANCH   1   9
TORSDOF 5
ENDMDL
MODEL 2
REMARK VINA RESULT:      -4.9      7.018      8.997
REMARK  Name = 
REMARK  6 active torsions:
REMARK  status: ('A' for Active; 'I' for Inactive)
REMARK    1  A    between atoms: C_1  and  N_2
REMARK    2  A    between atoms: N_2  and  C_3
REMARK    3  A    between atoms: C_3  and  C_4
REMARK    4  A    between atoms: C_4  and  O_6
REMARK    5  A    between atoms: C_4  and  C_7
REMARK    6  A    between atoms: C_9  and  O_10
REMARK                            x       y       z     vdW  Elec       q    Type
REMARK                         _______ _______ _______ _____ _____    ______ ____
ROOT
ATOM      1  C   UNL     1       8.796  -4.104  24.193  0.00  0.00    -0.014 A 
ATOM      2  C   UNL     1       7.737  -4.108  23.269  0.00  0.00    +0.006 A 
ATOM      3  C   UNL     1       7.556  -3.046  22.379  0.00  0.00    +0.004 A 
ATOM      4  C   UNL     1       8.439  -1.970  22.385  0.00  0.00    +0.045 A 
ATOM      5  C   UNL     1       9.502  -1.966  23.276  0.00  0.00    +0.117 A 
ATOM      6  C   UNL     1       9.685  -3.012  24.178  0.00  0.00    +0.051 A 
ENDROOT
BRANCH   5   7
ATOM      7  O   UNL     1      10.347  -0.895  23.247  0.00  0.00    -0.507 OA
ATOM      8  H   UNL     1      10.551  -0.632  24.159  0.00  0.00    +0.292 HD
ENDBRANCH   5   7
BRANCH   1   9
ATOM      9  C   UNL     1       8.935  -5.170  25.265  0.00  0.00    +0.158 C 
BRANCH   9  10
ATOM     10  O   UNL     1      10.282  -5.650  25.376  0.00  0.00    -0.386 OA
ATOM     11  H   UNL     1      10.586  -5.820  24.468  0.00  0.00    +0.210 HD
ENDBRANCH   9  10
BRANCH   9  12
ATOM     12  C   UNL     1       8.474  -4.734  26.681  0.00  0.00    +0.116 C 
BRANCH  12  14
ATOM     13  C   UNL     1       6.440  -5.484  27.806  0.00  0.00    +0.101 C 
ATOM     14  N   UNL     1       7.816  -5.810  27.454  0.00  0.00    -0.316 NA
ATOM     15  H   UNL     1       7.813  -6.642  26.856  0.00  0.00    +0.122 HD
ENDBRANCH  12  14
ENDBRANCH   9  12
ENDBRANCH   1   9
TORSDOF 5
ENDMDL
MODEL 3
REMARK VINA RESULT:      -4.9      3.874      5.673
REMARK  Name = 
REMARK  6 active torsions:
REMARK  status: ('A' for Active; 'I' for Inactive)
REMARK    1  A    between atoms: C_1  and  N_2
REMARK    2  A    between atoms: N_2  and  C_3
REMARK    3  A    between atoms: C_3  and  C_4
REMARK    4  A    between atoms: C_4  and  O_6
REMARK    5  A    between atoms: C_4  and  C_7
REMARK    6  A    between atoms: C_9  and  O_10
REMARK                            x       y       z     vdW  Elec       q    Type
REMARK                         _______ _______ _______ _____ _____    ______ ____
ROOT
ATOM      1  C   UNL     1       9.803  -0.868  23.234  0.00  0.00    -0.014 A 
ATOM      2  C   UNL     1      10.177  -0.407  24.508  0.00  0.00    +0.006 A 
ATOM      3  C   UNL     1      10.509   0.934  24.718  0.00  0.00    +0.004 A 
ATOM      4  C   UNL     1      10.459   1.840  23.663  0.00  0.00    +0.045 A 
ATOM      5  C   UNL     1      10.068   1.402  22.406  0.00  0.00    +0.117 A 
ATOM      6  C   UNL     1       9.747   0.064  22.180  0.00  0.00    +0.051 A 
ENDROOT
BRANCH   5   7
ATOM      7  O   UNL     1      10.028   2.322  21.400  0.00  0.00    -0.507 OA
ATOM      8  H   UNL     1      10.828   2.869  21.442  0.00  0.00    +0.292 HD
ENDBRANCH   5   7
BRANCH   1   9
ATOM      9  C   UNL     1       9.575  -2.342  22.944  0.00  0.00    +0.158 C 
BRANCH   9  10
ATOM     10  O   UNL     1      10.115  -3.182  23.973  0.00  0.00    -0.386 OA
ATOM     11  H   UNL     1      10.271  -4.049  23.562  0.00  0.00    +0.210 HD
ENDBRANCH   9  10
BRANCH   9  12
ATOM     12  C   UNL     1       8.091  -2.744  22.740  0.00  0.00    +0.116 C 
BRANCH  12  14
ATOM     13  C   UNL     1       7.289  -5.042  22.540  0.00  0.00    +0.101 C 
ATOM     14  N   UNL     1       7.702  -3.982  23.450  0.00  0.00    -0.316 NA
ATOM     15  H   UNL     1       8.530  -4.296  23.966  0.00  0.00    +0.122 HD
ENDBRANCH  12  14
ENDBRANCH   9  12
ENDBRANCH   1   9
TORSDOF 5
ENDMDL
MODEL 4
REMARK VINA RESULT:      -4.8      8.789     10.165
REMARK  Name = 
REMARK  6 active torsions:
REMARK  status: ('A' for Active; 'I' for Inactive)
REMARK    1  A    between atoms: C_1  and  N_2
REMARK    2  A    between atoms: N_2  and  C_3
REMARK    3  A    between atoms: C_3  and  C_4
REMARK    4  A    between atoms: C_4  and  O_6
REMARK    5  A    between atoms: C_4  and  C_7
REMARK    6  A    between atoms: C_9  and  O_10
REMARK                            x       y       z     vdW  Elec       q    Type
REMARK                         _______ _______ _______ _____ _____    ______ ____
ROOT
ATOM      1  C   UNL     1       7.932  -4.782  23.833  0.00  0.00    -0.014 A 
ATOM      2  C   UNL     1       7.547  -5.588  22.748  0.00  0.00    +0.006 A 
ATOM      3  C   UNL     1       6.679  -5.103  21.765  0.00  0.00    +0.004 A 
ATOM      4  C   UNL     1       6.195  -3.801  21.841  0.00  0.00    +0.045 A 
ATOM      5  C   UNL     1       6.587  -2.988  22.895  0.00  0.00    +0.117 A 
ATOM      6  C   UNL     1       7.441  -3.464  23.889  0.00  0.00    +0.051 A 
ENDROOT
BRANCH   5   7
ATOM      7  O   UNL     1       6.093  -1.717  22.931  0.00  0.00    -0.507 OA
ATOM      8  H   UNL     1       6.716  -1.124  22.481  0.00  0.00    +0.292 HD
ENDBRANCH   5   7
BRANCH   1   9
ATOM      9  C   UNL     1       8.756  -5.325  24.988  0.00  0.00    +0.158 C 
BRANCH   9  10
ATOM     10  O   UNL     1      10.163  -5.158  24.770  0.00  0.00    -0.386 OA
ATOM     11  H   UNL     1      10.595  -5.355  25.619  0.00  0.00    +0.210 HD
ENDBRANCH   9  10
BRANCH   9  12
ATOM     12  C   UNL     1       8.418  -4.713  26.373  0.00  0.00    +0.116 C 
BRANCH  12  14
ATOM     13  C   UNL     1       6.502  -5.507  27.663  0.00  0.00    +0.101 C 
ATOM     14  N   UNL     1       7.914  -5.697  27.355  0.00  0.00    -0.316 NA
ATOM     15  H   UNL     1       8.035  -6.623  26.932  0.00  0.00    +0.122 HD
ENDBRANCH  12  14
ENDBRANCH   9  12
ENDBRANCH   1   9
TORSDOF 5
ENDMDL
MODEL 5
REMARK VINA RESULT:      -4.7      2.879      5.673
REMARK  Name = 
REMARK  6 active torsions:
REMARK  status: ('A' for Active; 'I' for Inactive)
REMARK    1  A    between atoms: C_1  and  N_2
REMARK    2  A    between atoms: N_2  and  C_3
REMARK    3  A    between atoms: C_3  and  C_4
REMARK    4  A    between atoms: C_4  and  O_6
REMARK    5  A    between atoms: C_4  and  C_7
REMARK    6  A    between atoms: C_9  and  O_10
REMARK                            x       y       z     vdW  Elec       q    Type
REMARK                         _______ _______ _______ _____ _____    ______ ____
ROOT
ATOM      1  C   UNL     1      10.003   0.757  23.200  0.00  0.00    -0.014 A 
ATOM      2  C   UNL     1      10.071  -0.490  22.557  0.00  0.00    +0.006 A 
ATOM      3  C   UNL     1       9.882  -1.678  23.269  0.00  0.00    +0.004 A 
ATOM      4  C   UNL     1       9.606  -1.639  24.632  0.00  0.00    +0.045 A 
ATOM      5  C   UNL     1       9.513  -0.413  25.274  0.00  0.00    +0.117 A 
ATOM      6  C   UNL     1       9.714   0.778  24.578  0.00  0.00    +0.051 A 
ENDROOT
BRANCH   5   7
ATOM      7  O   UNL     1       9.238  -0.417  26.610  0.00  0.00    -0.507 OA
ATOM      8  H   UNL     1       9.889   0.139  27.067  0.00  0.00    +0.292 HD
ENDBRANCH   5   7
BRANCH   1   9
ATOM      9  C   UNL     1      10.345   2.053  22.485  0.00  0.00    +0.158 C 
BRANCH   9  10
ATOM     10  O   UNL     1       9.386   2.376  21.469  0.00  0.00    -0.386 OA
ATOM     11  H   UNL     1       8.565   1.914  21.713  0.00  0.00    +0.210 HD
ENDBRANCH   9  10
BRANCH   9  12
ATOM     12  C   UNL     1      10.483   3.291  23.411  0.00  0.00    +0.116 C 
BRANCH  12  14
ATOM     13  C   UNL     1      11.473   5.516  23.588  0.00  0.00    +0.101 C 
ATOM     14  N   UNL     1      11.634   4.159  23.082  0.00  0.00    -0.316 NA
ATOM     15  H   UNL     1      12.455   3.738  23.529  0.00  0.00    +0.122 HD
ENDBRANCH  12  14
ENDBRANCH   9  12
ENDBRANCH   1   9
TORSDOF 5
ENDMDL
MODEL 6
REMARK VINA RESULT:      -4.7      2.530      5.137
REMARK  Name = 
REMARK  6 active torsions:
REMARK  status: ('A' for Active; 'I' for Inactive)
REMARK    1  A    between atoms: C_1  and  N_2
REMARK    2  A    between atoms: N_2  and  C_3
REMARK    3  A    between atoms: C_3  and  C_4
REMARK    4  A    between atoms: C_4  and  O_6
REMARK    5  A    between atoms: C_4  and  C_7
REMARK    6  A    between atoms: C_9  and  O_10
REMARK                            x       y       z     vdW  Elec       q    Type
REMARK                         _______ _______ _______ _____ _____    ______ ____
ROOT
ATOM      1  C   UNL     1      10.386   1.915  23.483  0.00  0.00    -0.014 A 
ATOM      2  C   UNL     1      10.516   1.026  24.564  0.00  0.00    +0.006 A 
ATOM      3  C   UNL     1      10.274  -0.341  24.404  0.00  0.00    +0.004 A 
ATOM      4  C   UNL     1       9.913  -0.846  23.158  0.00  0.00    +0.045 A 
ATOM      5  C   UNL     1       9.805   0.018  22.078  0.00  0.00    +0.117 A 
ATOM      6  C   UNL     1      10.030   1.385  22.228  0.00  0.00    +0.051 A 
ENDROOT
BRANCH   5   7
ATOM      7  O   UNL     1       9.453  -0.517  20.873  0.00  0.00    -0.507 OA
ATOM      8  H   UNL     1       9.893  -1.376  20.771  0.00  0.00    +0.292 HD
ENDBRANCH   5   7
BRANCH   1   9
ATOM      9  C   UNL     1      10.502   3.419  23.657  0.00  0.00    +0.158 C 
BRANCH   9  10
ATOM     10  O   UNL     1      11.439   3.996  22.738  0.00  0.00    -0.386 OA
ATOM     11  H   UNL     1      11.837   4.755  23.197  0.00  0.00    +0.210 HD
ENDBRANCH   9  10
BRANCH   9  12
ATOM     12  C   UNL     1       9.166   4.196  23.517  0.00  0.00    +0.116 C 
BRANCH  12  14
ATOM     13  C   UNL     1       8.058   6.237  22.761  0.00  0.00    +0.101 C 
ATOM     14  N   UNL     1       9.331   5.592  23.056  0.00  0.00    -0.316 NA
ATOM     15  H   UNL     1       9.787   6.101  23.819  0.00  0.00    +0.122 HD
ENDBRANCH  12  14
ENDBRANCH   9  12
ENDBRANCH   1   9
TORSDOF 5
ENDMDL
MODEL 7
REMARK VINA RESULT:      -4.7      6.308      9.322
REMARK  Name = 
REMARK  6 active torsions:
REMARK  status: ('A' for Active; 'I' for Inactive)
REMARK    1  A    between atoms: C_1  and  N_2
REMARK    2  A    between atoms: N_2  and  C_3
REMARK    3  A    between atoms: C_3  and  C_4
REMARK    4  A    between atoms: C_4  and  O_6
REMARK    5  A    between atoms: C_4  and  C_7
REMARK    6  A    between atoms: C_9  and  O_10
REMARK                            x       y       z     vdW  Elec       q    Type
REMARK                         _______ _______ _______ _____ _____    ______ ____
ROOT
ATOM      1  C   UNL     1       7.993  -3.561  24.535  0.00  0.00    -0.014 A 
ATOM      2  C   UNL     1       6.750  -3.909  23.980  0.00  0.00    +0.006 A 
ATOM      3  C   UNL     1       5.951  -4.894  24.567  0.00  0.00    +0.004 A 
ATOM      4  C   UNL     1       6.373  -5.536  25.728  0.00  0.00    +0.045 A 
ATOM      5  C   UNL     1       7.588  -5.184  26.299  0.00  0.00    +0.117 A 
ATOM      6  C   UNL     1       8.400  -4.214  25.714  0.00  0.00    +0.051 A 
ENDROOT
BRANCH   5   7
ATOM      7  O   UNL     1       7.964  -5.835  27.437  0.00  0.00    -0.507 OA
ATOM      8  H   UNL     1       8.516  -5.241  27.970  0.00  0.00    +0.292 HD
ENDBRANCH   5   7
BRANCH   1   9
ATOM      9  C   UNL     1       8.945  -2.600  23.843  0.00  0.00    +0.158 C 
BRANCH   9  10
ATOM     10  O   UNL     1      10.297  -3.078  23.858  0.00  0.00    -0.386 OA
ATOM     11  H   UNL     1      10.849  -2.323  24.128  0.00  0.00    +0.210 HD
ENDBRANCH   9  10
BRANCH   9  12
ATOM     12  C   UNL     1       8.580  -2.269  22.372  0.00  0.00    +0.116 C 
BRANCH  12  14
ATOM     13  C   UNL     1       9.653  -0.202  21.635  0.00  0.00    +0.101 C 
ATOM     14  N   UNL     1       9.687  -1.659  21.603  0.00  0.00    -0.316 NA
ATOM     15  H   UNL     1      10.558  -1.976  22.040  0.00  0.00    +0.122 HD
ENDBRANCH  12  14
ENDBRANCH   9  12
ENDBRANCH   1   9
TORSDOF 5
ENDMDL
MODEL 8
REMARK VINA RESULT:      -4.6      4.370      6.626
REMARK  Name = 
REMARK  6 active torsions:
REMARK  status: ('A' for Active; 'I' for Inactive)
REMARK    1  A    between atoms: C_1  and  N_2
REMARK    2  A    between atoms: N_2  and  C_3
REMARK    3  A    between atoms: C_3  and  C_4
REMARK    4  A    between atoms: C_4  and  O_6
REMARK    5  A    between atoms: C_4  and  C_7
REMARK    6  A    between atoms: C_9  and  O_10
REMARK                            x       y       z     vdW  Elec       q    Type
REMARK                         _______ _______ _______ _____ _____    ______ ____
ROOT
ATOM      1  C   UNL     1       9.762  -1.022  23.524  0.00  0.00    -0.014 A 
ATOM      2  C   UNL     1       9.094  -0.441  24.615  0.00  0.00    +0.006 A 
ATOM      3  C   UNL     1       8.554  -1.233  25.632  0.00  0.00    +0.004 A 
ATOM      4  C   UNL     1       8.686  -2.618  25.584  0.00  0.00    +0.045 A 
ATOM      5  C   UNL     1       9.365  -3.201  24.524  0.00  0.00    +0.117 A 
ATOM      6  C   UNL     1       9.896  -2.423  23.497  0.00  0.00    +0.051 A 
ENDROOT
BRANCH   5   7
ATOM      7  O   UNL     1       9.476  -4.561  24.516  0.00  0.00    -0.507 OA
ATOM      8  H   UNL     1      10.404  -4.799  24.360  0.00  0.00    +0.292 HD
ENDBRANCH   5   7
BRANCH   1   9
ATOM      9  C   UNL     1      10.233  -0.200  22.336  0.00  0.00    +0.158 C 
BRANCH   9  10
ATOM     10  O   UNL     1       9.641  -0.643  21.107  0.00  0.00    -0.386 OA
ATOM     11  H   UNL     1      10.101  -1.464  20.864  0.00  0.00    +0.210 HD
ENDBRANCH   9  10
BRANCH   9  12
ATOM     12  C   UNL     1       9.978   1.326  22.457  0.00  0.00    +0.116 C 
BRANCH  12  14
ATOM     13  C   UNL     1       7.818   2.258  21.803  0.00  0.00    +0.101 C 
ATOM     14  N   UNL     1       9.155   1.884  21.363  0.00  0.00    -0.316 NA
ATOM     15  H   UNL     1       9.639   2.726  21.032  0.00  0.00    +0.122 HD
ENDBRANCH  12  14
ENDBRANCH   9  12
ENDBRANCH   1   9
TORSDOF 5
ENDMDL
MODEL 9
REMARK VINA RESULT:      -4.5      7.486     10.559
REMARK  Name = 
REMARK  6 active torsions:
REMARK  status: ('A' for Active; 'I' for Inactive)
REMARK    1  A    between atoms: C_1  and  N_2
REMARK    2  A    between atoms: N_2  and  C_3
REMARK    3  A    between atoms: C_3  and  C_4
REMARK    4  A    between atoms: C_4  and  O_6
REMARK    5  A    between atoms: C_4  and  C_7
REMARK    6  A    between atoms: C_9  and  O_10
REMARK                            x       y       z     vdW  Elec       q    Type
REMARK                         _______ _______ _______ _____ _____    ______ ____
ROOT
ATOM      1  C   UNL     1       7.473  -5.064  23.717  0.00  0.00    -0.014 A 
ATOM      2  C   UNL     1       7.797  -5.815  22.574  0.00  0.00    +0.006 A 
ATOM      3  C   UNL     1       6.824  -6.131  21.622  0.00  0.00    +0.004 A 
ATOM      4  C   UNL     1       5.514  -5.690  21.788  0.00  0.00    +0.045 A 
ATOM      5  C   UNL     1       5.187  -4.928  22.901  0.00  0.00    +0.117 A 
ATOM      6  C   UNL     1       6.146  -4.618  23.864  0.00  0.00    +0.051 A 
ENDROOT
BRANCH   5   7
ATOM      7  O   UNL     1       3.894  -4.512  23.025  0.00  0.00    -0.507 OA
ATOM      8  H   UNL     1       3.332  -5.060  22.453  0.00  0.00    +0.292 HD
ENDBRANCH   5   7
BRANCH   1   9
ATOM      9  C   UNL     1       8.473  -4.827  24.836  0.00  0.00    +0.158 C 
BRANCH   9  10
ATOM     10  O   UNL     1       9.603  -5.705  24.743  0.00  0.00    -0.386 OA
ATOM     11  H   UNL     1       9.973  -5.767  25.640  0.00  0.00    +0.210 HD
ENDBRANCH   9  10
BRANCH   9  12
ATOM     12  C   UNL     1       9.012  -3.376  24.931  0.00  0.00    +0.116 C 
BRANCH  12  14
ATOM     13  C   UNL     1       9.714  -1.939  23.085  0.00  0.00    +0.101 C 
ATOM     14  N   UNL     1      10.067  -3.063  23.942  0.00  0.00    -0.316 NA
ATOM     15  H   UNL     1      10.906  -2.817  24.477  0.00  0.00    +0.122 HD
ENDBRANCH  12  14
ENDBRANCH   9  12
ENDBRANCH   1   9
TORSDOF 5
ENDMDL
