MODEL 1
REMARK VINA RESULT:      -7.7      0.000      0.000
REMARK  Name = 
REMARK  5 active torsions:
REMARK  status: ('A' for Active; 'I' for Inactive)
REMARK    1  A    between atoms: N_4  and  C_10
REMARK    2  A    between atoms: C_8  and  N_9
REMARK    3  A    between atoms: C_17  and  C_30
REMARK    4  A    between atoms: N_19  and  C_20
REMARK    5  A    between atoms: C_30  and  O_31
REMARK                            x       y       z     vdW  Elec       q    Type
REMARK                         _______ _______ _______ _____ _____    ______ ____
ROOT
ATOM      1  C   UNL     1       7.474   3.967  25.613  0.00  0.00    +0.159 A 
ATOM      2  N   UNL     1       8.321   3.247  24.820  0.00  0.00    -0.211 NA
ATOM      3  C   UNL     1       9.465   3.787  24.315  0.00  0.00    +0.151 A 
ATOM      4  C   UNL     1       9.792   5.110  24.625  0.00  0.00    +0.068 A 
ATOM      5  C   UNL     1      11.028   5.722  24.126  0.00  0.00    +0.205 A 
ATOM      6  C   UNL     1      11.929   4.907  23.306  0.00  0.00    +0.122 A 
ATOM      7  C   UNL     1      11.535   3.652  23.045  0.00  0.00    +0.112 A 
ATOM      8  O   UNL     1      11.311   6.893  24.384  0.00  0.00    -0.286 OA
ATOM      9  C   UNL     1       8.951   5.872  25.425  0.00  0.00    +0.057 A 
ATOM     10  N   UNL     1      10.364   3.015  23.480  0.00  0.00    -0.297 N 
ATOM     11  C   UNL     1       7.802   5.293  25.929  0.00  0.00    +0.164 A 
ATOM     12  F   UNL     1       7.022   6.071  26.690  0.00  0.00    -0.202 F 
ENDROOT
BRANCH  10  13
ATOM     13  C   UNL     1      10.095   1.653  23.076  0.00  0.00    +0.083 A 
ATOM     14  C   UNL     1       9.522   1.361  21.822  0.00  0.00    +0.032 A 
ATOM     15  C   UNL     1       9.271   0.044  21.413  0.00  0.00    +0.040 A 
ATOM     16  C   UNL     1       9.622  -1.011  22.242  0.00  0.00    +0.126 A 
ATOM     17  F   UNL     1       9.405  -2.268  21.839  0.00  0.00    -0.205 F 
ATOM     18  C   UNL     1      10.198  -0.775  23.478  0.00  0.00    +0.078 A 
ATOM     19  C   UNL     1      10.413   0.541  23.888  0.00  0.00    +0.150 A 
ATOM     20  F   UNL     1      10.918   0.716  25.120  0.00  0.00    -0.203 F 
ENDBRANCH  10  13
BRANCH   1  25
ATOM     21  C   UNL     1       5.441   1.243  26.558  0.00  0.00    +0.029 C 
ATOM     22  C   UNL     1       3.962   1.391  26.783  0.00  0.00    +0.061 C 
ATOM     23  C   UNL     1       4.588   1.899  25.518  0.00  0.00    +0.029 C 
ATOM     24  C   UNL     1       5.047   3.316  25.365  0.00  0.00    +0.112 C 
ATOM     25  N   UNL     1       6.334   3.336  26.049  0.00  0.00    -0.312 N 
ATOM     26  C   UNL     1       6.446   2.254  27.032  0.00  0.00    +0.112 C 
BRANCH  22  27
ATOM     27  N   UNL     1       3.107   0.206  26.710  0.00  0.00    -0.327 NA
ATOM     28  H   UNL     1       3.425  -0.422  25.972  0.00  0.00    +0.118 HD
ATOM     29  H   UNL     1       3.154  -0.340  27.571  0.00  0.00    +0.118 HD
ENDBRANCH  22  27
ENDBRANCH   1  25
BRANCH   6  30
ATOM     30  C   UNL     1      13.211   5.414  22.770  0.00  0.00    +0.342 C 
ATOM     31  O   UNL     1      13.283   6.235  21.867  0.00  0.00    -0.245 OA
BRANCH  30  32
ATOM     32  O   UNL     1      14.313   4.895  23.360  0.00  0.00    -0.477 OA
ATOM     33  H   UNL     1      15.112   4.855  22.779  0.00  0.00    +0.295 HD
ENDBRANCH  30  32
ENDBRANCH   6  30
TORSDOF 5
ENDMDL
MODEL 2
REMARK VINA RESULT:      -7.5      4.586      7.145
REMARK  Name = 
REMARK  5 active torsions:
REMARK  status: ('A' for Active; 'I' for Inactive)
REMARK    1  A    between atoms: N_4  and  C_10
REMARK    2  A    between atoms: C_8  and  N_9
REMARK    3  A    between atoms: C_17  and  C_30
REMARK    4  A    between atoms: N_19  and  C_20
REMARK    5  A    between atoms: C_30  and  O_31
REMARK                            x       y       z     vdW  Elec       q    Type
REMARK                         _______ _______ _______ _____ _____    ______ ____
ROOT
ATOM      1  C   UNL     1       6.366  -3.312  23.502  0.00  0.00    +0.159 A 
ATOM      2  N   UNL     1       6.399  -2.133  24.189  0.00  0.00    -0.211 NA
ATOM      3  C   UNL     1       7.299  -1.155  23.893  0.00  0.00    +0.151 A 
ATOM      4  C   UNL     1       8.208  -1.354  22.849  0.00  0.00    +0.068 A 
ATOM      5  C   UNL     1       9.176  -0.316  22.478  0.00  0.00    +0.205 A 
ATOM      6  C   UNL     1       9.158   0.950  23.216  0.00  0.00    +0.122 A 
ATOM      7  C   UNL     1       8.264   1.056  24.210  0.00  0.00    +0.112 A 
ATOM      8  O   UNL     1       9.988  -0.495  21.569  0.00  0.00    -0.286 OA
ATOM      9  C   UNL     1       8.203  -2.544  22.133  0.00  0.00    +0.057 A 
ATOM     10  N   UNL     1       7.325   0.098  24.621  0.00  0.00    -0.297 N 
ATOM     11  C   UNL     1       7.272  -3.513  22.452  0.00  0.00    +0.164 A 
ATOM     12  F   UNL     1       7.314  -4.644  21.735  0.00  0.00    -0.202 F 
ENDROOT
BRANCH  10  13
ATOM     13  C   UNL     1       6.451   0.383  25.737  0.00  0.00    +0.083 A 
ATOM     14  C   UNL     1       5.192   0.987  25.544  0.00  0.00    +0.032 A 
ATOM     15  C   UNL     1       4.330   1.254  26.616  0.00  0.00    +0.040 A 
ATOM     16  C   UNL     1       4.698   0.888  27.902  0.00  0.00    +0.126 A 
ATOM     17  F   UNL     1       3.862   1.121  28.921  0.00  0.00    -0.205 F 
ATOM     18  C   UNL     1       5.919   0.282  28.140  0.00  0.00    +0.078 A 
ATOM     19  C   UNL     1       6.784   0.051  27.070  0.00  0.00    +0.150 A 
ATOM     20  F   UNL     1       7.980  -0.484  27.362  0.00  0.00    -0.203 F 
ENDBRANCH  10  13
BRANCH   1  25
ATOM     21  C   UNL     1       5.049  -6.536  24.070  0.00  0.00    +0.029 C 
ATOM     22  C   UNL     1       3.607  -6.757  24.431  0.00  0.00    +0.061 C 
ATOM     23  C   UNL     1       3.968  -5.920  23.239  0.00  0.00    +0.029 C 
ATOM     24  C   UNL     1       4.108  -4.431  23.321  0.00  0.00    +0.112 C 
ATOM     25  N   UNL     1       5.435  -4.243  23.897  0.00  0.00    -0.312 N 
ATOM     26  C   UNL     1       5.876  -5.423  24.647  0.00  0.00    +0.112 C 
BRANCH  22  27
ATOM     27  N   UNL     1       3.007  -8.072  24.201  0.00  0.00    -0.327 NA
ATOM     28  H   UNL     1       3.073  -8.330  23.216  0.00  0.00    +0.118 HD
ATOM     29  H   UNL     1       3.507  -8.803  24.708  0.00  0.00    +0.118 HD
ENDBRANCH  22  27
ENDBRANCH   1  25
BRANCH   6  30
ATOM     30  C   UNL     1      10.072   2.072  22.911  0.00  0.00    +0.342 C 
ATOM     31  O   UNL     1      10.680   2.695  23.770  0.00  0.00    -0.245 OA
BRANCH  30  32
ATOM     32  O   UNL     1      10.187   2.365  21.595  0.00  0.00    -0.477 OA
ATOM     33  H   UNL     1      11.094   2.243  21.222  0.00  0.00    +0.295 HD
ENDBRANCH  30  32
ENDBRANCH   6  30
TORSDOF 5
ENDMDL
MODEL 3
REMARK VINA RESULT:      -7.4      4.618      7.545
REMARK  Name = 
REMARK  5 active torsions:
REMARK  status: ('A' for Active; 'I' for Inactive)
REMARK    1  A    between atoms: N_4  and  C_10
REMARK    2  A    between atoms: C_8  and  N_9
REMARK    3  A    between atoms: C_17  and  C_30
REMARK    4  A    between atoms: N_19  and  C_20
REMARK    5  A    between atoms: C_30  and  O_31
REMARK                            x       y       z     vdW  Elec       q    Type
REMARK                         _______ _______ _______ _____ _____    ______ ____
ROOT
ATOM      1  C   UNL     1       8.553   0.898  23.218  0.00  0.00    +0.159 A 
ATOM      2  N   UNL     1       7.878   0.484  24.331  0.00  0.00    -0.211 NA
ATOM      3  C   UNL     1       8.053  -0.761  24.855  0.00  0.00    +0.151 A 
ATOM      4  C   UNL     1       8.957  -1.637  24.249  0.00  0.00    +0.068 A 
ATOM      5  C   UNL     1       9.198  -2.977  24.797  0.00  0.00    +0.205 A 
ATOM      6  C   UNL     1       8.480  -3.372  26.012  0.00  0.00    +0.122 A 
ATOM      7  C   UNL     1       7.622  -2.477  26.524  0.00  0.00    +0.112 A 
ATOM      8  O   UNL     1       9.982  -3.758  24.256  0.00  0.00    -0.286 OA
ATOM      9  C   UNL     1       9.657  -1.250  23.114  0.00  0.00    +0.057 A 
ATOM     10  N   UNL     1       7.339  -1.192  26.041  0.00  0.00    -0.297 N 
ATOM     11  C   UNL     1       9.463   0.022  22.611  0.00  0.00    +0.164 A 
ATOM     12  F   UNL     1      10.157   0.344  21.512  0.00  0.00    -0.202 F 
ENDROOT
BRANCH  10  13
ATOM     13  C   UNL     1       6.360  -0.370  26.717  0.00  0.00    +0.083 A 
ATOM     14  C   UNL     1       5.026  -0.301  26.266  0.00  0.00    +0.032 A 
ATOM     15  C   UNL     1       4.065   0.479  26.921  0.00  0.00    +0.040 A 
ATOM     16  C   UNL     1       4.412   1.180  28.066  0.00  0.00    +0.126 A 
ATOM     17  F   UNL     1       3.486   1.904  28.705  0.00  0.00    -0.205 F 
ATOM     18  C   UNL     1       5.707   1.135  28.555  0.00  0.00    +0.078 A 
ATOM     19  C   UNL     1       6.664   0.381  27.875  0.00  0.00    +0.150 A 
ATOM     20  F   UNL     1       7.917   0.419  28.356  0.00  0.00    -0.203 F 
ENDBRANCH  10  13
BRANCH   1  25
ATOM     21  C   UNL     1       7.354   4.213  23.366  0.00  0.00    +0.029 C 
ATOM     22  C   UNL     1       7.247   5.078  22.142  0.00  0.00    +0.061 C 
ATOM     23  C   UNL     1       6.652   3.701  22.148  0.00  0.00    +0.029 C 
ATOM     24  C   UNL     1       7.400   2.505  21.647  0.00  0.00    +0.112 C 
ATOM     25  N   UNL     1       8.284   2.164  22.755  0.00  0.00    -0.312 N 
ATOM     26  C   UNL     1       8.526   3.313  23.633  0.00  0.00    +0.112 C 
BRANCH  22  27
ATOM     27  N   UNL     1       6.341   6.228  22.158  0.00  0.00    -0.327 NA
ATOM     28  H   UNL     1       6.768   7.029  21.695  0.00  0.00    +0.118 HD
ATOM     29  H   UNL     1       5.486   6.035  21.635  0.00  0.00    +0.118 HD
ENDBRANCH  22  27
ENDBRANCH   1  25
BRANCH   6  30
ATOM     30  C   UNL     1       8.663  -4.688  26.663  0.00  0.00    +0.342 C 
ATOM     31  O   UNL     1       7.781  -5.253  27.294  0.00  0.00    -0.245 OA
BRANCH  30  32
ATOM     32  O   UNL     1       9.895  -5.227  26.508  0.00  0.00    -0.477 OA
ATOM     33  H   UNL     1      10.406  -5.337  27.348  0.00  0.00    +0.295 HD
ENDBRANCH  30  32
ENDBRANCH   6  30
TORSDOF 5
ENDMDL
MODEL 4
REMARK VINA RESULT:      -7.1      3.264      5.767
REMARK  Name = 
REMARK  5 active torsions:
REMARK  status: ('A' for Active; 'I' for Inactive)
REMARK    1  A    between atoms: N_4  and  C_10
REMARK    2  A    between atoms: C_8  and  N_9
REMARK    3  A    between atoms: C_17  and  C_30
REMARK    4  A    between atoms: N_19  and  C_20
REMARK    5  A    between atoms: C_30  and  O_31
REMARK                            x       y       z     vdW  Elec       q    Type
REMARK                         _______ _______ _______ _____ _____    ______ ____
ROOT
ATOM      1  C   UNL     1       8.179  -0.950  23.516  0.00  0.00    +0.159 A 
ATOM      2  N   UNL     1       7.522   0.238  23.660  0.00  0.00    -0.211 NA
ATOM      3  C   UNL     1       8.189   1.423  23.737  0.00  0.00    +0.151 A 
ATOM      4  C   UNL     1       9.585   1.429  23.653  0.00  0.00    +0.068 A 
ATOM      5  C   UNL     1      10.342   2.685  23.702  0.00  0.00    +0.205 A 
ATOM      6  C   UNL     1       9.599   3.942  23.823  0.00  0.00    +0.122 A 
ATOM      7  C   UNL     1       8.264   3.848  23.910  0.00  0.00    +0.112 A 
ATOM      8  O   UNL     1      11.572   2.692  23.646  0.00  0.00    -0.286 OA
ATOM      9  C   UNL     1      10.284   0.238  23.511  0.00  0.00    +0.057 A 
ATOM     10  N   UNL     1       7.486   2.682  23.882  0.00  0.00    -0.297 N 
ATOM     11  C   UNL     1       9.578  -0.947  23.427  0.00  0.00    +0.164 A 
ATOM     12  F   UNL     1      10.299  -2.067  23.296  0.00  0.00    -0.202 F 
ENDROOT
BRANCH  10  13
ATOM     13  C   UNL     1       6.049   2.775  24.012  0.00  0.00    +0.083 A 
ATOM     14  C   UNL     1       5.406   2.511  25.238  0.00  0.00    +0.032 A 
ATOM     15  C   UNL     1       4.016   2.612  25.380  0.00  0.00    +0.040 A 
ATOM     16  C   UNL     1       3.243   3.015  24.302  0.00  0.00    +0.126 A 
ATOM     17  F   UNL     1       1.918   3.137  24.447  0.00  0.00    -0.205 F 
ATOM     18  C   UNL     1       3.829   3.297  23.081  0.00  0.00    +0.078 A 
ATOM     19  C   UNL     1       5.210   3.161  22.942  0.00  0.00    +0.150 A 
ATOM     20  F   UNL     1       5.721   3.388  21.720  0.00  0.00    -0.203 F 
ENDBRANCH  10  13
BRANCH   1  25
ATOM     21  C   UNL     1       5.657  -3.115  22.332  0.00  0.00    +0.029 C 
ATOM     22  C   UNL     1       5.248  -4.351  23.084  0.00  0.00    +0.061 C 
ATOM     23  C   UNL     1       5.309  -3.026  23.785  0.00  0.00    +0.029 C 
ATOM     24  C   UNL     1       6.526  -2.569  24.528  0.00  0.00    +0.112 C 
ATOM     25  N   UNL     1       7.413  -2.090  23.475  0.00  0.00    -0.312 N 
ATOM     26  C   UNL     1       7.089  -2.688  22.176  0.00  0.00    +0.112 C 
BRANCH  22  27
ATOM     27  N   UNL     1       3.934  -4.942  22.825  0.00  0.00    -0.327 NA
ATOM     28  H   UNL     1       3.715  -5.651  23.523  0.00  0.00    +0.118 HD
ATOM     29  H   UNL     1       3.192  -4.245  22.901  0.00  0.00    +0.118 HD
ENDBRANCH  22  27
ENDBRANCH   1  25
BRANCH   6  30
ATOM     30  C   UNL     1      10.258   5.266  23.859  0.00  0.00    +0.342 C 
ATOM     31  O   UNL     1       9.952   6.147  24.649  0.00  0.00    -0.245 OA
BRANCH  30  32
ATOM     32  O   UNL     1      11.237   5.434  22.939  0.00  0.00    -0.477 OA
ATOM     33  H   UNL     1      11.277   6.337  22.539  0.00  0.00    +0.295 HD
ENDBRANCH  30  32
ENDBRANCH   6  30
TORSDOF 5
ENDMDL
MODEL 5
REMARK VINA RESULT:      -6.9      4.869      7.533
REMARK  Name = 
REMARK  5 active torsions:
REMARK  status: ('A' for Active; 'I' for Inactive)
REMARK    1  A    between atoms: N_4  and  C_10
REMARK    2  A    between atoms: C_8  and  N_9
REMARK    3  A    between atoms: C_17  and  C_30
REMARK    4  A    between atoms: N_19  and  C_20
REMARK    5  A    between atoms: C_30  and  O_31
REMARK                            x       y       z     vdW  Elec       q    Type
REMARK                         _______ _______ _______ _____ _____    ______ ____
ROOT
ATOM      1  C   UNL     1       7.221  -4.131  25.044  0.00  0.00    +0.159 A 
ATOM      2  N   UNL     1       6.946  -2.833  25.366  0.00  0.00    -0.211 NA
ATOM      3  C   UNL     1       7.405  -1.794  24.613  0.00  0.00    +0.151 A 
ATOM      4  C   UNL     1       8.168  -2.061  23.473  0.00  0.00    +0.068 A 
ATOM      5  C   UNL     1       8.658  -0.973  22.618  0.00  0.00    +0.205 A 
ATOM      6  C   UNL     1       8.313   0.405  22.976  0.00  0.00    +0.122 A 
ATOM      7  C   UNL     1       7.588   0.575  24.092  0.00  0.00    +0.112 A 
ATOM      8  O   UNL     1       9.345  -1.204  21.621  0.00  0.00    -0.286 OA
ATOM      9  C   UNL     1       8.470  -3.369  23.120  0.00  0.00    +0.057 A 
ATOM     10  N   UNL     1       7.103  -0.418  24.955  0.00  0.00    -0.297 N 
ATOM     11  C   UNL     1       7.983  -4.401  23.899  0.00  0.00    +0.164 A 
ATOM     12  F   UNL     1       8.307  -5.644  23.519  0.00  0.00    -0.202 F 
ENDROOT
BRANCH  10  13
ATOM     13  C   UNL     1       6.352  -0.042  26.132  0.00  0.00    +0.083 A 
ATOM     14  C   UNL     1       4.964   0.191  26.070  0.00  0.00    +0.032 A 
ATOM     15  C   UNL     1       4.223   0.542  27.207  0.00  0.00    +0.040 A 
ATOM     16  C   UNL     1       4.854   0.632  28.438  0.00  0.00    +0.126 A 
ATOM     17  F   UNL     1       4.140   0.941  29.527  0.00  0.00    -0.205 F 
ATOM     18  C   UNL     1       6.214   0.400  28.551  0.00  0.00    +0.078 A 
ATOM     19  C   UNL     1       6.948   0.084  27.407  0.00  0.00    +0.150 A 
ATOM     20  F   UNL     1       8.273  -0.071  27.562  0.00  0.00    -0.203 F 
ENDBRANCH  10  13
BRANCH   1  25
ATOM     21  C   UNL     1       4.780  -5.882  26.895  0.00  0.00    +0.029 C 
ATOM     22  C   UNL     1       5.146  -6.937  27.901  0.00  0.00    +0.061 C 
ATOM     23  C   UNL     1       5.795  -5.585  27.954  0.00  0.00    +0.029 C 
ATOM     24  C   UNL     1       7.101  -5.298  27.281  0.00  0.00    +0.112 C 
ATOM     25  N   UNL     1       6.732  -5.103  25.884  0.00  0.00    -0.312 N 
ATOM     26  C   UNL     1       5.459  -5.753  25.561  0.00  0.00    +0.112 C 
BRANCH  22  27
ATOM     27  N   UNL     1       4.185  -7.289  28.947  0.00  0.00    -0.327 NA
ATOM     28  H   UNL     1       4.435  -8.177  29.381  0.00  0.00    +0.118 HD
ATOM     29  H   UNL     1       4.191  -6.604  29.704  0.00  0.00    +0.118 HD
ENDBRANCH  22  27
ENDBRANCH   1  25
BRANCH   6  30
ATOM     30  C   UNL     1       8.734   1.575  22.175  0.00  0.00    +0.342 C 
ATOM     31  O   UNL     1       9.156   2.610  22.668  0.00  0.00    -0.245 OA
BRANCH  30  32
ATOM     32  O   UNL     1       8.615   1.413  20.836  0.00  0.00    -0.477 OA
ATOM     33  H   UNL     1       8.873   2.203  20.300  0.00  0.00    +0.295 HD
ENDBRANCH  30  32
ENDBRANCH   6  30
TORSDOF 5
ENDMDL
MODEL 6
REMARK VINA RESULT:      -6.9      5.476      7.450
REMARK  Name = 
REMARK  5 active torsions:
REMARK  status: ('A' for Active; 'I' for Inactive)
REMARK    1  A    between atoms: N_4  and  C_10
REMARK    2  A    between atoms: C_8  and  N_9
REMARK    3  A    between atoms: C_17  and  C_30
REMARK    4  A    between atoms: N_19  and  C_20
REMARK    5  A    between atoms: C_30  and  O_31
REMARK                            x       y       z     vdW  Elec       q    Type
REMARK                         _______ _______ _______ _____ _____    ______ ____
ROOT
ATOM      1  C   UNL     1       5.344  -0.730  26.120  0.00  0.00    +0.159 A 
ATOM      2  N   UNL     1       6.141  -0.803  25.013  0.00  0.00    -0.211 NA
ATOM      3  C   UNL     1       6.113  -1.879  24.178  0.00  0.00    +0.151 A 
ATOM      4  C   UNL     1       5.237  -2.933  24.450  0.00  0.00    +0.068 A 
ATOM      5  C   UNL     1       5.154  -4.098  23.561  0.00  0.00    +0.205 A 
ATOM      6  C   UNL     1       6.000  -4.124  22.365  0.00  0.00    +0.122 A 
ATOM      7  C   UNL     1       6.821  -3.079  22.185  0.00  0.00    +0.112 A 
ATOM      8  O   UNL     1       4.395  -5.037  23.807  0.00  0.00    -0.286 OA
ATOM      9  C   UNL     1       4.416  -2.893  25.569  0.00  0.00    +0.057 A 
ATOM     10  N   UNL     1       6.956  -1.947  23.001  0.00  0.00    -0.297 N 
ATOM     11  C   UNL     1       4.461  -1.785  26.392  0.00  0.00    +0.164 A 
ATOM     12  F   UNL     1       3.654  -1.797  27.461  0.00  0.00    -0.202 F 
ENDROOT
BRANCH  10  13
ATOM     13  C   UNL     1       7.917  -0.923  22.656  0.00  0.00    +0.083 A 
ATOM     14  C   UNL     1       7.504   0.347  22.209  0.00  0.00    +0.032 A 
ATOM     15  C   UNL     1       8.426   1.352  21.886  0.00  0.00    +0.040 A 
ATOM     16  C   UNL     1       9.784   1.114  22.039  0.00  0.00    +0.126 A 
ATOM     17  F   UNL     1      10.661   2.083  21.755  0.00  0.00    -0.205 F 
ATOM     18  C   UNL     1      10.238  -0.115  22.486  0.00  0.00    +0.078 A 
ATOM     19  C   UNL     1       9.312  -1.119  22.773  0.00  0.00    +0.150 A 
ATOM     20  F   UNL     1       9.808  -2.310  23.145  0.00  0.00    -0.203 F 
ENDBRANCH  10  13
BRANCH   1  25
ATOM     21  C   UNL     1       6.681   2.362  27.168  0.00  0.00    +0.029 C 
ATOM     22  C   UNL     1       6.321   2.980  28.491  0.00  0.00    +0.061 C 
ATOM     23  C   UNL     1       6.787   1.555  28.425  0.00  0.00    +0.029 C 
ATOM     24  C   UNL     1       5.833   0.406  28.322  0.00  0.00    +0.112 C 
ATOM     25  N   UNL     1       5.468   0.387  26.910  0.00  0.00    -0.312 N 
ATOM     26  C   UNL     1       5.674   1.693  26.277  0.00  0.00    +0.112 C 
BRANCH  22  27
ATOM     27  N   UNL     1       7.216   3.978  29.079  0.00  0.00    -0.327 NA
ATOM     28  H   UNL     1       7.821   4.383  28.365  0.00  0.00    +0.118 HD
ATOM     29  H   UNL     1       6.692   4.762  29.469  0.00  0.00    +0.118 HD
ENDBRANCH  22  27
ENDBRANCH   1  25
BRANCH   6  30
ATOM     30  C   UNL     1       5.981  -5.236  21.390  0.00  0.00    +0.342 C 
ATOM     31  O   UNL     1       5.912  -5.067  20.181  0.00  0.00    -0.245 OA
BRANCH  30  32
ATOM     32  O   UNL     1       6.046  -6.470  21.941  0.00  0.00    -0.477 OA
ATOM     33  H   UNL     1       6.777  -7.039  21.595  0.00  0.00    +0.295 HD
ENDBRANCH  30  32
ENDBRANCH   6  30
TORSDOF 5
ENDMDL
MODEL 7
REMARK VINA RESULT:      -6.9      3.380      6.298
REMARK  Name = 
REMARK  5 active torsions:
REMARK  status: ('A' for Active; 'I' for Inactive)
REMARK    1  A    between atoms: N_4  and  C_10
REMARK    2  A    between atoms: C_8  and  N_9
REMARK    3  A    between atoms: C_17  and  C_30
REMARK    4  A    between atoms: N_19  and  C_20
REMARK    5  A    between atoms: C_30  and  O_31
REMARK                            x       y       z     vdW  Elec       q    Type
REMARK                         _______ _______ _______ _____ _____    ______ ____
ROOT
ATOM      1  C   UNL     1       7.792  -1.156  23.120  0.00  0.00    +0.159 A 
ATOM      2  N   UNL     1       7.290  -0.174  23.925  0.00  0.00    -0.211 NA
ATOM      3  C   UNL     1       7.874   1.054  24.006  0.00  0.00    +0.151 A 
ATOM      4  C   UNL     1       9.009   1.325  23.237  0.00  0.00    +0.068 A 
ATOM      5  C   UNL     1       9.652   2.643  23.273  0.00  0.00    +0.205 A 
ATOM      6  C   UNL     1       9.065   3.683  24.122  0.00  0.00    +0.122 A 
ATOM      7  C   UNL     1       7.984   3.338  24.837  0.00  0.00    +0.112 A 
ATOM      8  O   UNL     1      10.663   2.880  22.609  0.00  0.00    -0.286 OA
ATOM      9  C   UNL     1       9.547   0.346  22.412  0.00  0.00    +0.057 A 
ATOM     10  N   UNL     1       7.332   2.096  24.856  0.00  0.00    -0.297 N 
ATOM     11  C   UNL     1       8.927  -0.887  22.345  0.00  0.00    +0.164 A 
ATOM     12  F   UNL     1       9.489  -1.797  21.538  0.00  0.00    -0.202 F 
ENDROOT
BRANCH  10  13
ATOM     13  C   UNL     1       6.184   1.901  25.714  0.00  0.00    +0.083 A 
ATOM     14  C   UNL     1       6.334   1.522  27.062  0.00  0.00    +0.032 A 
ATOM     15  C   UNL     1       5.230   1.345  27.907  0.00  0.00    +0.040 A 
ATOM     16  C   UNL     1       3.952   1.579  27.424  0.00  0.00    +0.126 A 
ATOM     17  F   UNL     1       2.900   1.435  28.240  0.00  0.00    -0.205 F 
ATOM     18  C   UNL     1       3.754   1.965  26.110  0.00  0.00    +0.078 A 
ATOM     19  C   UNL     1       4.858   2.106  25.269  0.00  0.00    +0.150 A 
ATOM     20  F   UNL     1       4.607   2.424  23.989  0.00  0.00    -0.203 F 
ENDBRANCH  10  13
BRANCH   1  25
ATOM     21  C   UNL     1       7.437  -4.643  22.714  0.00  0.00    +0.029 C 
ATOM     22  C   UNL     1       6.096  -5.320  22.763  0.00  0.00    +0.061 C 
ATOM     23  C   UNL     1       6.311  -4.134  21.870  0.00  0.00    +0.029 C 
ATOM     24  C   UNL     1       5.996  -2.736  22.308  0.00  0.00    +0.112 C 
ATOM     25  N   UNL     1       7.143  -2.368  23.130  0.00  0.00    -0.312 N 
ATOM     26  C   UNL     1       7.835  -3.546  23.660  0.00  0.00    +0.112 C 
BRANCH  22  27
ATOM     27  N   UNL     1       5.938  -6.637  22.143  0.00  0.00    -0.327 NA
ATOM     28  H   UNL     1       6.375  -7.359  22.717  0.00  0.00    +0.118 HD
ATOM     29  H   UNL     1       4.955  -6.901  22.076  0.00  0.00    +0.118 HD
ENDBRANCH  22  27
ENDBRANCH   1  25
BRANCH   6  30
ATOM     30  C   UNL     1       9.616   5.052  24.217  0.00  0.00    +0.342 C 
ATOM     31  O   UNL     1       9.693   5.674  25.266  0.00  0.00    -0.245 OA
BRANCH  30  32
ATOM     32  O   UNL     1      10.035   5.574  23.040  0.00  0.00    -0.477 OA
ATOM     33  H   UNL     1       9.547   6.384  22.750  0.00  0.00    +0.295 HD
ENDBRANCH  30  32
ENDBRANCH   6  30
TORSDOF 5
ENDMDL
MODEL 8
REMARK VINA RESULT:      -6.8      5.187      8.491
REMARK  Name = 
REMARK  5 active torsions:
REMARK  status: ('A' for Active; 'I' for Inactive)
REMARK    1  A    between atoms: N_4  and  C_10
REMARK    2  A    between atoms: C_8  and  N_9
REMARK    3  A    between atoms: C_17  and  C_30
REMARK    4  A    between atoms: N_19  and  C_20
REMARK    5  A    between atoms: C_30  and  O_31
REMARK                            x       y       z     vdW  Elec       q    Type
REMARK                         _______ _______ _______ _____ _____    ______ ____
ROOT
ATOM      1  C   UNL     1       9.248  -0.463  23.959  0.00  0.00    +0.159 A 
ATOM      2  N   UNL     1       8.276  -0.592  24.909  0.00  0.00    -0.211 NA
ATOM      3  C   UNL     1       7.905  -1.809  25.395  0.00  0.00    +0.151 A 
ATOM      4  C   UNL     1       8.543  -2.959  24.921  0.00  0.00    +0.068 A 
ATOM      5  C   UNL     1       8.195  -4.287  25.438  0.00  0.00    +0.205 A 
ATOM      6  C   UNL     1       7.171  -4.382  26.482  0.00  0.00    +0.122 A 
ATOM      7  C   UNL     1       6.599  -3.233  26.872  0.00  0.00    +0.112 A 
ATOM      8  O   UNL     1       8.744  -5.304  25.011  0.00  0.00    -0.286 OA
ATOM      9  C   UNL     1       9.533  -2.863  23.952  0.00  0.00    +0.057 A 
ATOM     10  N   UNL     1       6.878  -1.940  26.409  0.00  0.00    -0.297 N 
ATOM     11  C   UNL     1       9.893  -1.614  23.485  0.00  0.00    +0.164 A 
ATOM     12  F   UNL     1      10.848  -1.576  22.547  0.00  0.00    -0.202 F 
ENDROOT
BRANCH  10  13
ATOM     13  C   UNL     1       6.138  -0.814  26.935  0.00  0.00    +0.083 A 
ATOM     14  C   UNL     1       4.780  -0.617  26.615  0.00  0.00    +0.032 A 
ATOM     15  C   UNL     1       4.048   0.461  27.131  0.00  0.00    +0.040 A 
ATOM     16  C   UNL     1       4.655   1.346  28.008  0.00  0.00    +0.126 A 
ATOM     17  F   UNL     1       3.948   2.360  28.520  0.00  0.00    -0.205 F 
ATOM     18  C   UNL     1       5.984   1.189  28.362  0.00  0.00    +0.078 A 
ATOM     19  C   UNL     1       6.712   0.130  27.816  0.00  0.00    +0.150 A 
ATOM     20  F   UNL     1       8.012   0.057  28.145  0.00  0.00    -0.203 F 
ENDBRANCH  10  13
BRANCH   1  25
ATOM     21  C   UNL     1       9.852   3.002  24.237  0.00  0.00    +0.029 C 
ATOM     22  C   UNL     1       9.916   3.901  23.034  0.00  0.00    +0.061 C 
ATOM     23  C   UNL     1       8.750   2.977  23.225  0.00  0.00    +0.029 C 
ATOM     24  C   UNL     1       8.705   1.609  22.619  0.00  0.00    +0.112 C 
ATOM     25  N   UNL     1       9.529   0.808  23.517  0.00  0.00    -0.312 N 
ATOM     26  C   UNL     1      10.474   1.636  24.273  0.00  0.00    +0.112 C 
BRANCH  22  27
ATOM     27  N   UNL     1       9.700   5.338  23.204  0.00  0.00    -0.327 NA
ATOM     28  H   UNL     1       9.593   5.571  24.191  0.00  0.00    +0.118 HD
ATOM     29  H   UNL     1      10.506   5.876  22.883  0.00  0.00    +0.118 HD
ENDBRANCH  22  27
ENDBRANCH   1  25
BRANCH   6  30
ATOM     30  C   UNL     1       6.758  -5.665  27.090  0.00  0.00    +0.342 C 
ATOM     31  O   UNL     1       7.093  -6.015  28.213  0.00  0.00    -0.245 OA
BRANCH  30  32
ATOM     32  O   UNL     1       5.972  -6.436  26.303  0.00  0.00    -0.477 OA
ATOM     33  H   UNL     1       5.062  -6.079  26.152  0.00  0.00    +0.295 HD
ENDBRANCH  30  32
ENDBRANCH   6  30
TORSDOF 5
ENDMDL
MODEL 9
REMARK VINA RESULT:      -6.7      4.862      6.622
REMARK  Name = 
REMARK  5 active torsions:
REMARK  status: ('A' for Active; 'I' for Inactive)
REMARK    1  A    between atoms: N_4  and  C_10
REMARK    2  A    between atoms: C_8  and  N_9
REMARK    3  A    between atoms: C_17  and  C_30
REMARK    4  A    between atoms: N_19  and  C_20
REMARK    5  A    between atoms: C_30  and  O_31
REMARK                            x       y       z     vdW  Elec       q    Type
REMARK                         _______ _______ _______ _____ _____    ______ ____
ROOT
ATOM      1  C   UNL     1       5.703   0.051  26.419  0.00  0.00    +0.159 A 
ATOM      2  N   UNL     1       6.776  -0.147  25.598  0.00  0.00    -0.211 NA
ATOM      3  C   UNL     1       7.389  -1.360  25.499  0.00  0.00    +0.151 A 
ATOM      4  C   UNL     1       6.902  -2.436  26.246  0.00  0.00    +0.068 A 
ATOM      5  C   UNL     1       7.515  -3.766  26.148  0.00  0.00    +0.205 A 
ATOM      6  C   UNL     1       8.643  -3.948  25.230  0.00  0.00    +0.122 A 
ATOM      7  C   UNL     1       9.057  -2.862  24.561  0.00  0.00    +0.112 A 
ATOM      8  O   UNL     1       7.099  -4.712  26.818  0.00  0.00    -0.286 OA
ATOM      9  C   UNL     1       5.816  -2.267  27.094  0.00  0.00    +0.057 A 
ATOM     10  N   UNL     1       8.523  -1.566  24.620  0.00  0.00    -0.297 N 
ATOM     11  C   UNL     1       5.210  -1.028  27.166  0.00  0.00    +0.164 A 
ATOM     12  F   UNL     1       4.169  -0.916  28.002  0.00  0.00    -0.202 F 
ENDROOT
BRANCH  10  13
ATOM     13  C   UNL     1       9.119  -0.508  23.836  0.00  0.00    +0.083 A 
ATOM     14  C   UNL     1       8.751  -0.297  22.492  0.00  0.00    +0.032 A 
ATOM     15  C   UNL     1       9.311   0.734  21.726  0.00  0.00    +0.040 A 
ATOM     16  C   UNL     1      10.227   1.600  22.304  0.00  0.00    +0.126 A 
ATOM     17  F   UNL     1      10.741   2.600  21.579  0.00  0.00    -0.205 F 
ATOM     18  C   UNL     1      10.611   1.441  23.624  0.00  0.00    +0.078 A 
ATOM     19  C   UNL     1      10.073   0.390  24.367  0.00  0.00    +0.150 A 
ATOM     20  F   UNL     1      10.524   0.244  25.624  0.00  0.00    -0.203 F 
ENDBRANCH  10  13
BRANCH   1  25
ATOM     21  C   UNL     1       5.299   3.427  25.477  0.00  0.00    +0.029 C 
ATOM     22  C   UNL     1       4.483   4.391  26.292  0.00  0.00    +0.061 C 
ATOM     23  C   UNL     1       5.546   3.560  26.947  0.00  0.00    +0.029 C 
ATOM     24  C   UNL     1       5.248   2.242  27.591  0.00  0.00    +0.112 C 
ATOM     25  N   UNL     1       5.173   1.318  26.464  0.00  0.00    -0.312 N 
ATOM     26  C   UNL     1       4.869   2.013  25.210  0.00  0.00    +0.112 C 
BRANCH  22  27
ATOM     27  N   UNL     1       4.716   5.828  26.142  0.00  0.00    -0.327 NA
ATOM     28  H   UNL     1       4.673   6.099  25.159  0.00  0.00    +0.118 HD
ATOM     29  H   UNL     1       3.990   6.374  26.607  0.00  0.00    +0.118 HD
ENDBRANCH  22  27
ENDBRANCH   1  25
BRANCH   6  30
ATOM     30  C   UNL     1       9.321  -5.248  25.036  0.00  0.00    +0.342 C 
ATOM     31  O   UNL     1       9.125  -5.969  24.068  0.00  0.00    -0.245 OA
BRANCH  30  32
ATOM     32  O   UNL     1      10.186  -5.586  26.021  0.00  0.00    -0.477 OA
ATOM     33  H   UNL     1       9.833  -6.239  26.674  0.00  0.00    +0.295 HD
ENDBRANCH  30  32
ENDBRANCH   6  30
TORSDOF 5
ENDMDL
