MODEL 1
REMARK VINA RESULT:      -5.9      0.000      0.000
REMARK  Name = 
REMARK  12 active torsions:
REMARK  status: ('A' for Active; 'I' for Inactive)
REMARK    1  A    between atoms: C_1  and  C_2
REMARK    2  A    between atoms: C_2  and  N_3
REMARK    3  A    between atoms: N_3  and  C_4
REMARK    4  A    between atoms: N_3  and  C_6
REMARK    5  A    between atoms: C_4  and  C_5
REMARK    6  A    between atoms: C_6  and  C_7
REMARK    7  A    between atoms: C_7  and  O_8
REMARK    8  A    between atoms: O_8  and  C_9
REMARK    9  A    between atoms: C_9  and  C_11
REMARK   10  A    between atoms: C_11  and  O_12
REMARK   11  A    between atoms: C_11  and  C_13
REMARK   12  A    between atoms: C_11  and  C_19
REMARK                            x       y       z     vdW  Elec       q    Type
REMARK                         _______ _______ _______ _____ _____    ______ ____
ROOT
ATOM      1  C   UNL     1       8.641  -3.094  24.100  0.00  0.00    +0.213 C 
ENDROOT
BRANCH   1   2
ATOM      2  C   UNL     1       9.178  -1.815  23.415  0.00  0.00    -0.001 A 
ATOM      3  C   UNL     1       8.993  -1.555  22.043  0.00  0.00    +0.007 A 
ATOM      4  C   UNL     1       9.444  -0.369  21.456  0.00  0.00    +0.000 A 
ATOM      5  C   UNL     1      10.109   0.579  22.223  0.00  0.00    +0.000 A 
ATOM      6  C   UNL     1      10.335   0.336  23.573  0.00  0.00    +0.000 A 
ATOM      7  C   UNL     1       9.881  -0.850  24.161  0.00  0.00    +0.007 A 
ENDBRANCH   1   2
BRANCH   1   8
ATOM      8  C   UNL     1       7.703  -3.909  23.190  0.00  0.00    -0.001 A 
ATOM      9  C   UNL     1       7.899  -5.283  22.959  0.00  0.00    +0.007 A 
ATOM     10  C   UNL     1       6.984  -6.028  22.210  0.00  0.00    +0.000 A 
ATOM     11  C   UNL     1       5.857  -5.413  21.671  0.00  0.00    +0.000 A 
ATOM     12  C   UNL     1       5.655  -4.051  21.864  0.00  0.00    +0.000 A 
ATOM     13  C   UNL     1       6.572  -3.305  22.608  0.00  0.00    +0.007 A 
ENDBRANCH   1   8
BRANCH   1  14
ATOM     14  C   UNL     1       7.897  -2.756  25.448  0.00  0.00    +0.349 C 
ATOM     15  O   UNL     1       7.121  -1.819  25.619  0.00  0.00    -0.247 OA
BRANCH  14  16
ATOM     16  O   UNL     1       8.236  -3.637  26.439  0.00  0.00    -0.461 OA
BRANCH  16  17
ATOM     17  C   UNL     1       7.111  -4.273  27.068  0.00  0.00    +0.247 C 
BRANCH  17  18
ATOM     18  C   UNL     1       6.666  -5.549  26.325  0.00  0.00    +0.125 C 
BRANCH  18  19
ATOM     19  N   UNL     1       5.358  -5.456  25.636  0.00  0.00    -0.300 NA
BRANCH  19  21
ATOM     20  C   UNL     1       3.901  -7.063  24.344  0.00  0.00    +0.020 C 
ATOM     21  C   UNL     1       4.655  -6.749  25.631  0.00  0.00    +0.081 C 
ENDBRANCH  19  21
BRANCH  19  22
ATOM     22  C   UNL     1       4.558  -4.337  26.168  0.00  0.00    +0.081 C 
ATOM     23  C   UNL     1       3.928  -3.400  25.140  0.00  0.00    +0.020 C 
ENDBRANCH  19  22
ENDBRANCH  18  19
ENDBRANCH  17  18
ENDBRANCH  16  17
ENDBRANCH  14  16
ENDBRANCH   1  14
BRANCH   1  24
ATOM     24  O   UNL     1       9.804  -3.903  24.397  0.00  0.00    -0.370 OA
ATOM     25  H   UNL     1       9.565  -4.423  25.187  0.00  0.00    +0.212 HD
ENDBRANCH   1  24
TORSDOF 10
ENDMDL
MODEL 2
REMARK VINA RESULT:      -5.8      0.664      4.027
REMARK  Name = 
REMARK  12 active torsions:
REMARK  status: ('A' for Active; 'I' for Inactive)
REMARK    1  A    between atoms: C_1  and  C_2
REMARK    2  A    between atoms: C_2  and  N_3
REMARK    3  A    between atoms: N_3  and  C_4
REMARK    4  A    between atoms: N_3  and  C_6
REMARK    5  A    between atoms: C_4  and  C_5
REMARK    6  A    between atoms: C_6  and  C_7
REMARK    7  A    between atoms: C_7  and  O_8
REMARK    8  A    between atoms: O_8  and  C_9
REMARK    9  A    between atoms: C_9  and  C_11
REMARK   10  A    between atoms: C_11  and  O_12
REMARK   11  A    between atoms: C_11  and  C_13
REMARK   12  A    between atoms: C_11  and  C_19
REMARK                            x       y       z     vdW  Elec       q    Type
REMARK                         _______ _______ _______ _____ _____    ______ ____
ROOT
ATOM      1  C   UNL     1       8.129  -3.093  24.325  0.00  0.00    +0.213 C 
ENDROOT
BRANCH   1   2
ATOM      2  C   UNL     1       7.399  -3.956  23.271  0.00  0.00    -0.001 A 
ATOM      3  C   UNL     1       7.773  -5.284  22.986  0.00  0.00    +0.007 A 
ATOM      4  C   UNL     1       7.068  -6.062  22.064  0.00  0.00    +0.000 A 
ATOM      5  C   UNL     1       5.980  -5.525  21.387  0.00  0.00    +0.000 A 
ATOM      6  C   UNL     1       5.607  -4.206  21.621  0.00  0.00    +0.000 A 
ATOM      7  C   UNL     1       6.312  -3.429  22.547  0.00  0.00    +0.007 A 
ENDBRANCH   1   2
BRANCH   1   8
ATOM      8  C   UNL     1       8.927  -1.934  23.699  0.00  0.00    -0.001 A 
ATOM      9  C   UNL     1       9.107  -1.821  22.308  0.00  0.00    +0.007 A 
ATOM     10  C   UNL     1       9.751  -0.712  21.751  0.00  0.00    +0.000 A 
ATOM     11  C   UNL     1      10.233   0.303  22.572  0.00  0.00    +0.000 A 
ATOM     12  C   UNL     1      10.089   0.200  23.952  0.00  0.00    +0.000 A 
ATOM     13  C   UNL     1       9.452  -0.909  24.510  0.00  0.00    +0.007 A 
ENDBRANCH   1   8
BRANCH   1  14
ATOM     14  C   UNL     1       9.090  -3.966  25.218  0.00  0.00    +0.349 C 
ATOM     15  O   UNL     1      10.125  -4.506  24.836  0.00  0.00    -0.247 OA
BRANCH  14  16
ATOM     16  O   UNL     1       8.620  -4.076  26.500  0.00  0.00    -0.461 OA
BRANCH  16  17
ATOM     17  C   UNL     1       7.936  -5.310  26.769  0.00  0.00    +0.247 C 
BRANCH  17  18
ATOM     18  C   UNL     1       6.500  -5.087  27.285  0.00  0.00    +0.125 C 
BRANCH  18  19
ATOM     19  N   UNL     1       5.438  -5.172  26.256  0.00  0.00    -0.300 NA
BRANCH  19  21
ATOM     20  C   UNL     1       4.587  -6.896  24.621  0.00  0.00    +0.020 C 
ATOM     21  C   UNL     1       4.992  -6.558  26.051  0.00  0.00    +0.081 C 
ENDBRANCH  19  21
BRANCH  19  22
ATOM     22  C   UNL     1       4.346  -4.223  26.545  0.00  0.00    +0.081 C 
ATOM     23  C   UNL     1       3.801  -3.430  25.358  0.00  0.00    +0.020 C 
ENDBRANCH  19  22
ENDBRANCH  18  19
ENDBRANCH  17  18
ENDBRANCH  16  17
ENDBRANCH  14  16
ENDBRANCH   1  14
BRANCH   1  24
ATOM     24  O   UNL     1       7.093  -2.531  25.165  0.00  0.00    -0.370 OA
ATOM     25  H   UNL     1       6.465  -3.259  25.327  0.00  0.00    +0.212 HD
ENDBRANCH   1  24
TORSDOF 10
ENDMDL
MODEL 3
REMARK VINA RESULT:      -5.8      1.290      2.169
REMARK  Name = 
REMARK  12 active torsions:
REMARK  status: ('A' for Active; 'I' for Inactive)
REMARK    1  A    between atoms: C_1  and  C_2
REMARK    2  A    between atoms: C_2  and  N_3
REMARK    3  A    between atoms: N_3  and  C_4
REMARK    4  A    between atoms: N_3  and  C_6
REMARK    5  A    between atoms: C_4  and  C_5
REMARK    6  A    between atoms: C_6  and  C_7
REMARK    7  A    between atoms: C_7  and  O_8
REMARK    8  A    between atoms: O_8  and  C_9
REMARK    9  A    between atoms: C_9  and  C_11
REMARK   10  A    between atoms: C_11  and  O_12
REMARK   11  A    between atoms: C_11  and  C_13
REMARK   12  A    between atoms: C_11  and  C_19
REMARK                            x       y       z     vdW  Elec       q    Type
REMARK                         _______ _______ _______ _____ _____    ______ ____
ROOT
ATOM      1  C   UNL     1       8.665  -4.080  24.769  0.00  0.00    +0.213 C 
ENDROOT
BRANCH   1   2
ATOM      2  C   UNL     1       9.012  -2.575  24.830  0.00  0.00    -0.001 A 
ATOM      3  C   UNL     1       8.544  -1.730  25.856  0.00  0.00    +0.007 A 
ATOM      4  C   UNL     1       8.911  -0.382  25.918  0.00  0.00    +0.000 A 
ATOM      5  C   UNL     1       9.741   0.160  24.945  0.00  0.00    +0.000 A 
ATOM      6  C   UNL     1      10.192  -0.641  23.902  0.00  0.00    +0.000 A 
ATOM      7  C   UNL     1       9.826  -1.991  23.841  0.00  0.00    +0.007 A 
ENDBRANCH   1   2
BRANCH   1   8
ATOM      8  C   UNL     1       7.703  -4.424  23.617  0.00  0.00    -0.001 A 
ATOM      9  C   UNL     1       6.765  -3.495  23.127  0.00  0.00    +0.007 A 
ATOM     10  C   UNL     1       5.966  -3.790  22.018  0.00  0.00    +0.000 A 
ATOM     11  C   UNL     1       6.085  -5.021  21.379  0.00  0.00    +0.000 A 
ATOM     12  C   UNL     1       6.987  -5.965  21.860  0.00  0.00    +0.000 A 
ATOM     13  C   UNL     1       7.780  -5.674  22.971  0.00  0.00    +0.007 A 
ENDBRANCH   1   8
BRANCH   1  14
ATOM     14  C   UNL     1       8.051  -4.586  26.130  0.00  0.00    +0.349 C 
ATOM     15  O   UNL     1       8.693  -4.907  27.126  0.00  0.00    -0.247 OA
BRANCH  14  16
ATOM     16  O   UNL     1       6.684  -4.647  26.068  0.00  0.00    -0.461 OA
BRANCH  16  17
ATOM     17  C   UNL     1       6.105  -5.665  26.901  0.00  0.00    +0.247 C 
BRANCH  17  18
ATOM     18  C   UNL     1       4.892  -6.347  26.238  0.00  0.00    +0.125 C 
BRANCH  18  19
ATOM     19  N   UNL     1       4.377  -5.678  25.021  0.00  0.00    -0.300 NA
BRANCH  19  21
ATOM     20  C   UNL     1       2.903  -6.220  23.045  0.00  0.00    +0.020 C 
ATOM     21  C   UNL     1       4.032  -6.651  23.973  0.00  0.00    +0.081 C 
ENDBRANCH  19  21
BRANCH  19  22
ATOM     22  C   UNL     1       3.290  -4.739  25.353  0.00  0.00    +0.081 C 
ATOM     23  C   UNL     1       3.621  -3.251  25.259  0.00  0.00    +0.020 C 
ENDBRANCH  19  22
ENDBRANCH  18  19
ENDBRANCH  17  18
ENDBRANCH  16  17
ENDBRANCH  14  16
ENDBRANCH   1  14
BRANCH   1  24
ATOM     24  O   UNL     1       9.917  -4.767  24.536  0.00  0.00    -0.370 OA
ATOM     25  H   UNL     1       9.860  -5.116  23.627  0.00  0.00    +0.212 HD
ENDBRANCH   1  24
TORSDOF 10
ENDMDL
MODEL 4
REMARK VINA RESULT:      -5.7      3.836      5.931
REMARK  Name = 
REMARK  12 active torsions:
REMARK  status: ('A' for Active; 'I' for Inactive)
REMARK    1  A    between atoms: C_1  and  C_2
REMARK    2  A    between atoms: C_2  and  N_3
REMARK    3  A    between atoms: N_3  and  C_4
REMARK    4  A    between atoms: N_3  and  C_6
REMARK    5  A    between atoms: C_4  and  C_5
REMARK    6  A    between atoms: C_6  and  C_7
REMARK    7  A    between atoms: C_7  and  O_8
REMARK    8  A    between atoms: O_8  and  C_9
REMARK    9  A    between atoms: C_9  and  C_11
REMARK   10  A    between atoms: C_11  and  O_12
REMARK   11  A    between atoms: C_11  and  C_13
REMARK   12  A    between atoms: C_11  and  C_19
REMARK                            x       y       z     vdW  Elec       q    Type
REMARK                         _______ _______ _______ _____ _____    ______ ____
ROOT
ATOM      1  C   UNL     1       9.781   2.310  22.920  0.00  0.00    +0.213 C 
ENDROOT
BRANCH   1   2
ATOM      2  C   UNL     1      10.395   3.645  23.400  0.00  0.00    -0.001 A 
ATOM      3  C   UNL     1      11.749   3.975  23.191  0.00  0.00    +0.007 A 
ATOM      4  C   UNL     1      12.271   5.209  23.591  0.00  0.00    +0.000 A 
ATOM      5  C   UNL     1      11.456   6.138  24.226  0.00  0.00    +0.000 A 
ATOM      6  C   UNL     1      10.124   5.827  24.476  0.00  0.00    +0.000 A 
ATOM      7  C   UNL     1       9.601   4.593  24.074  0.00  0.00    +0.007 A 
ENDBRANCH   1   2
BRANCH   1   8
ATOM      8  C   UNL     1       8.253   2.256  23.105  0.00  0.00    -0.001 A 
ATOM      9  C   UNL     1       7.661   1.696  24.253  0.00  0.00    +0.007 A 
ATOM     10  C   UNL     1       6.278   1.743  24.449  0.00  0.00    +0.000 A 
ATOM     11  C   UNL     1       5.457   2.344  23.499  0.00  0.00    +0.000 A 
ATOM     12  C   UNL     1       6.016   2.881  22.344  0.00  0.00    +0.000 A 
ATOM     13  C   UNL     1       7.397   2.830  22.145  0.00  0.00    +0.007 A 
ENDBRANCH   1   8
BRANCH   1  14
ATOM     14  C   UNL     1      10.438   1.078  23.651  0.00  0.00    +0.349 C 
ATOM     15  O   UNL     1      10.952   1.100  24.766  0.00  0.00    -0.247 OA
BRANCH  14  16
ATOM     16  O   UNL     1      10.389  -0.048  22.873  0.00  0.00    -0.461 OA
BRANCH  16  17
ATOM     17  C   UNL     1      10.017  -1.238  23.587  0.00  0.00    +0.247 C 
BRANCH  17  18
ATOM     18  C   UNL     1       9.047  -2.127  22.783  0.00  0.00    +0.125 C 
BRANCH  18  19
ATOM     19  N   UNL     1       8.450  -3.254  23.536  0.00  0.00    -0.300 NA
BRANCH  19  21
ATOM     20  C   UNL     1       9.319  -5.013  25.125  0.00  0.00    +0.020 C 
ATOM     21  C   UNL     1       9.196  -3.535  24.773  0.00  0.00    +0.081 C 
ENDBRANCH  19  21
BRANCH  19  22
ATOM     22  C   UNL     1       7.004  -3.048  23.738  0.00  0.00    +0.081 C 
ATOM     23  C   UNL     1       6.405  -1.780  23.133  0.00  0.00    +0.020 C 
ENDBRANCH  19  22
ENDBRANCH  18  19
ENDBRANCH  17  18
ENDBRANCH  16  17
ENDBRANCH  14  16
ENDBRANCH   1  14
BRANCH   1  24
ATOM     24  O   UNL     1      10.071   2.225  21.505  0.00  0.00    -0.370 OA
ATOM     25  H   UNL     1      11.010   2.474  21.416  0.00  0.00    +0.212 HD
ENDBRANCH   1  24
TORSDOF 10
ENDMDL
MODEL 5
REMARK VINA RESULT:      -5.7      0.943      1.753
REMARK  Name = 
REMARK  12 active torsions:
REMARK  status: ('A' for Active; 'I' for Inactive)
REMARK    1  A    between atoms: C_1  and  C_2
REMARK    2  A    between atoms: C_2  and  N_3
REMARK    3  A    between atoms: N_3  and  C_4
REMARK    4  A    between atoms: N_3  and  C_6
REMARK    5  A    between atoms: C_4  and  C_5
REMARK    6  A    between atoms: C_6  and  C_7
REMARK    7  A    between atoms: C_7  and  O_8
REMARK    8  A    between atoms: O_8  and  C_9
REMARK    9  A    between atoms: C_9  and  C_11
REMARK   10  A    between atoms: C_11  and  O_12
REMARK   11  A    between atoms: C_11  and  C_13
REMARK   12  A    between atoms: C_11  and  C_19
REMARK                            x       y       z     vdW  Elec       q    Type
REMARK                         _______ _______ _______ _____ _____    ______ ____
ROOT
ATOM      1  C   UNL     1       8.607  -3.098  24.129  0.00  0.00    +0.213 C 
ENDROOT
BRANCH   1   2
ATOM      2  C   UNL     1       9.154  -1.841  23.416  0.00  0.00    -0.001 A 
ATOM      3  C   UNL     1       8.967  -1.608  22.039  0.00  0.00    +0.007 A 
ATOM      4  C   UNL     1       9.428  -0.440  21.424  0.00  0.00    +0.000 A 
ATOM      5  C   UNL     1      10.106   0.518  22.168  0.00  0.00    +0.000 A 
ATOM      6  C   UNL     1      10.336   0.301  23.523  0.00  0.00    +0.000 A 
ATOM      7  C   UNL     1       9.871  -0.867  24.138  0.00  0.00    +0.007 A 
ENDBRANCH   1   2
BRANCH   1   8
ATOM      8  C   UNL     1       7.650  -3.918  23.243  0.00  0.00    -0.001 A 
ATOM      9  C   UNL     1       6.503  -3.348  22.660  0.00  0.00    +0.007 A 
ATOM     10  C   UNL     1       5.699  -4.080  21.781  0.00  0.00    +0.000 A 
ATOM     11  C   UNL     1       6.023  -5.398  21.471  0.00  0.00    +0.000 A 
ATOM     12  C   UNL     1       7.137  -5.991  22.056  0.00  0.00    +0.000 A 
ATOM     13  C   UNL     1       7.937  -5.263  22.938  0.00  0.00    +0.007 A 
ENDBRANCH   1   8
BRANCH   1  14
ATOM     14  C   UNL     1       7.878  -2.725  25.476  0.00  0.00    +0.349 C 
ATOM     15  O   UNL     1       7.129  -1.766  25.640  0.00  0.00    -0.247 OA
BRANCH  14  16
ATOM     16  O   UNL     1       8.199  -3.602  26.477  0.00  0.00    -0.461 OA
BRANCH  16  17
ATOM     17  C   UNL     1       7.065  -4.256  27.069  0.00  0.00    +0.247 C 
BRANCH  17  18
ATOM     18  C   UNL     1       6.784  -5.634  26.436  0.00  0.00    +0.125 C 
BRANCH  18  19
ATOM     19  N   UNL     1       5.842  -6.495  27.187  0.00  0.00    -0.300 NA
BRANCH  19  21
ATOM     20  C   UNL     1       4.004  -5.699  28.723  0.00  0.00    +0.020 C 
ATOM     21  C   UNL     1       5.496  -5.910  28.492  0.00  0.00    +0.081 C 
ENDBRANCH  19  21
BRANCH  19  22
ATOM     22  C   UNL     1       4.676  -6.852  26.358  0.00  0.00    +0.081 C 
ATOM     23  C   UNL     1       4.708  -6.390  24.902  0.00  0.00    +0.020 C 
ENDBRANCH  19  22
ENDBRANCH  18  19
ENDBRANCH  17  18
ENDBRANCH  16  17
ENDBRANCH  14  16
ENDBRANCH   1  14
BRANCH   1  24
ATOM     24  O   UNL     1       9.761  -3.917  24.432  0.00  0.00    -0.370 OA
ATOM     25  H   UNL     1      10.396  -3.321  24.872  0.00  0.00    +0.212 HD
ENDBRANCH   1  24
TORSDOF 10
ENDMDL
MODEL 6
REMARK VINA RESULT:      -5.6      1.476      4.274
REMARK  Name = 
REMARK  12 active torsions:
REMARK  status: ('A' for Active; 'I' for Inactive)
REMARK    1  A    between atoms: C_1  and  C_2
REMARK    2  A    between atoms: C_2  and  N_3
REMARK    3  A    between atoms: N_3  and  C_4
REMARK    4  A    between atoms: N_3  and  C_6
REMARK    5  A    between atoms: C_4  and  C_5
REMARK    6  A    between atoms: C_6  and  C_7
REMARK    7  A    between atoms: C_7  and  O_8
REMARK    8  A    between atoms: O_8  and  C_9
REMARK    9  A    between atoms: C_9  and  C_11
REMARK   10  A    between atoms: C_11  and  O_12
REMARK   11  A    between atoms: C_11  and  C_13
REMARK   12  A    between atoms: C_11  and  C_19
REMARK                            x       y       z     vdW  Elec       q    Type
REMARK                         _______ _______ _______ _____ _____    ______ ____
ROOT
ATOM      1  C   UNL     1       6.986  -2.227  23.687  0.00  0.00    +0.213 C 
ENDROOT
BRANCH   1   2
ATOM      2  C   UNL     1       6.937  -3.556  22.899  0.00  0.00    -0.001 A 
ATOM      3  C   UNL     1       7.763  -4.654  23.210  0.00  0.00    +0.007 A 
ATOM      4  C   UNL     1       7.667  -5.863  22.515  0.00  0.00    +0.000 A 
ATOM      5  C   UNL     1       6.754  -5.999  21.476  0.00  0.00    +0.000 A 
ATOM      6  C   UNL     1       5.948  -4.922  21.124  0.00  0.00    +0.000 A 
ATOM      7  C   UNL     1       6.043  -3.713  21.822  0.00  0.00    +0.007 A 
ENDBRANCH   1   2
BRANCH   1   8
ATOM      8  C   UNL     1       7.814  -1.141  22.974  0.00  0.00    -0.001 A 
ATOM      9  C   UNL     1       8.938  -1.457  22.188  0.00  0.00    +0.007 A 
ATOM     10  C   UNL     1       9.619  -0.470  21.470  0.00  0.00    +0.000 A 
ATOM     11  C   UNL     1       9.194   0.855  21.528  0.00  0.00    +0.000 A 
ATOM     12  C   UNL     1       8.101   1.196  22.318  0.00  0.00    +0.000 A 
ATOM     13  C   UNL     1       7.424   0.211  23.040  0.00  0.00    +0.007 A 
ENDBRANCH   1   8
BRANCH   1  14
ATOM     14  C   UNL     1       7.551  -2.441  25.143  0.00  0.00    +0.349 C 
ATOM     15  O   UNL     1       8.689  -2.165  25.515  0.00  0.00    -0.247 OA
BRANCH  14  16
ATOM     16  O   UNL     1       6.612  -3.005  25.965  0.00  0.00    -0.461 OA
BRANCH  16  17
ATOM     17  C   UNL     1       7.151  -3.936  26.918  0.00  0.00    +0.247 C 
BRANCH  17  18
ATOM     18  C   UNL     1       7.008  -5.400  26.456  0.00  0.00    +0.125 C 
BRANCH  18  19
ATOM     19  N   UNL     1       6.130  -6.246  27.297  0.00  0.00    -0.300 NA
BRANCH  19  21
ATOM     20  C   UNL     1       4.344  -5.421  28.879  0.00  0.00    +0.020 C 
ATOM     21  C   UNL     1       5.829  -5.602  28.585  0.00  0.00    +0.081 C 
ENDBRANCH  19  21
BRANCH  19  22
ATOM     22  C   UNL     1       4.937  -6.679  26.546  0.00  0.00    +0.081 C 
ATOM     23  C   UNL     1       4.921  -6.366  25.051  0.00  0.00    +0.020 C 
ENDBRANCH  19  22
ENDBRANCH  18  19
ENDBRANCH  17  18
ENDBRANCH  16  17
ENDBRANCH  14  16
ENDBRANCH   1  14
BRANCH   1  24
ATOM     24  O   UNL     1       5.617  -1.769  23.779  0.00  0.00    -0.370 OA
ATOM     25  H   UNL     1       5.651  -0.946  24.302  0.00  0.00    +0.212 HD
ENDBRANCH   1  24
TORSDOF 10
ENDMDL
MODEL 7
REMARK VINA RESULT:      -5.6      3.819      6.876
REMARK  Name = 
REMARK  12 active torsions:
REMARK  status: ('A' for Active; 'I' for Inactive)
REMARK    1  A    between atoms: C_1  and  C_2
REMARK    2  A    between atoms: C_2  and  N_3
REMARK    3  A    between atoms: N_3  and  C_4
REMARK    4  A    between atoms: N_3  and  C_6
REMARK    5  A    between atoms: C_4  and  C_5
REMARK    6  A    between atoms: C_6  and  C_7
REMARK    7  A    between atoms: C_7  and  O_8
REMARK    8  A    between atoms: O_8  and  C_9
REMARK    9  A    between atoms: C_9  and  C_11
REMARK   10  A    between atoms: C_11  and  O_12
REMARK   11  A    between atoms: C_11  and  C_13
REMARK   12  A    between atoms: C_11  and  C_19
REMARK                            x       y       z     vdW  Elec       q    Type
REMARK                         _______ _______ _______ _____ _____    ______ ____
ROOT
ATOM      1  C   UNL     1       9.341   2.046  23.849  0.00  0.00    +0.213 C 
ENDROOT
BRANCH   1   2
ATOM      2  C   UNL     1       7.802   2.195  23.810  0.00  0.00    -0.001 A 
ATOM      3  C   UNL     1       6.988   1.955  24.934  0.00  0.00    +0.007 A 
ATOM      4  C   UNL     1       5.603   2.143  24.889  0.00  0.00    +0.000 A 
ATOM      5  C   UNL     1       4.995   2.560  23.712  0.00  0.00    +0.000 A 
ATOM      6  C   UNL     1       5.768   2.774  22.576  0.00  0.00    +0.000 A 
ATOM      7  C   UNL     1       7.155   2.588  22.622  0.00  0.00    +0.007 A 
ENDBRANCH   1   2
BRANCH   1   8
ATOM      8  C   UNL     1      10.074   3.395  23.731  0.00  0.00    -0.001 A 
ATOM      9  C   UNL     1       9.465   4.609  24.102  0.00  0.00    +0.007 A 
ATOM     10  C   UNL     1      10.177   5.811  24.080  0.00  0.00    +0.000 A 
ATOM     11  C   UNL     1      11.511   5.827  23.682  0.00  0.00    +0.000 A 
ATOM     12  C   UNL     1      12.127   4.643  23.287  0.00  0.00    +0.000 A 
ATOM     13  C   UNL     1      11.415   3.443  23.303  0.00  0.00    +0.007 A 
ENDBRANCH   1   8
BRANCH   1  14
ATOM     14  C   UNL     1       9.854   1.073  22.720  0.00  0.00    +0.349 C 
ATOM     15  O   UNL     1       9.631   1.194  21.518  0.00  0.00    -0.247 OA
BRANCH  14  16
ATOM     16  O   UNL     1      10.579   0.037  23.245  0.00  0.00    -0.461 OA
BRANCH  16  17
ATOM     17  C   UNL     1      10.325  -1.232  22.621  0.00  0.00    +0.247 C 
BRANCH  17  18
ATOM     18  C   UNL     1       9.962  -2.328  23.643  0.00  0.00    +0.125 C 
BRANCH  18  19
ATOM     19  N   UNL     1       8.564  -2.812  23.580  0.00  0.00    -0.300 NA
BRANCH  19  21
ATOM     20  C   UNL     1       7.685  -5.171  23.391  0.00  0.00    +0.020 C 
ATOM     21  C   UNL     1       8.416  -4.126  24.226  0.00  0.00    +0.081 C 
ENDBRANCH  19  21
BRANCH  19  22
ATOM     22  C   UNL     1       7.627  -1.788  24.078  0.00  0.00    +0.081 C 
ATOM     23  C   UNL     1       6.611  -1.247  23.073  0.00  0.00    +0.020 C 
ENDBRANCH  19  22
ENDBRANCH  18  19
ENDBRANCH  17  18
ENDBRANCH  16  17
ENDBRANCH  14  16
ENDBRANCH   1  14
BRANCH   1  24
ATOM     24  O   UNL     1       9.651   1.470  25.140  0.00  0.00    -0.370 OA
ATOM     25  H   UNL     1       8.817   1.079  25.459  0.00  0.00    +0.212 HD
ENDBRANCH   1  24
TORSDOF 10
ENDMDL
MODEL 8
REMARK VINA RESULT:      -5.5      1.967      3.448
REMARK  Name = 
REMARK  12 active torsions:
REMARK  status: ('A' for Active; 'I' for Inactive)
REMARK    1  A    between atoms: C_1  and  C_2
REMARK    2  A    between atoms: C_2  and  N_3
REMARK    3  A    between atoms: N_3  and  C_4
REMARK    4  A    between atoms: N_3  and  C_6
REMARK    5  A    between atoms: C_4  and  C_5
REMARK    6  A    between atoms: C_6  and  C_7
REMARK    7  A    between atoms: C_7  and  O_8
REMARK    8  A    between atoms: O_8  and  C_9
REMARK    9  A    between atoms: C_9  and  C_11
REMARK   10  A    between atoms: C_11  and  O_12
REMARK   11  A    between atoms: C_11  and  C_13
REMARK   12  A    between atoms: C_11  and  C_19
REMARK                            x       y       z     vdW  Elec       q    Type
REMARK                         _______ _______ _______ _____ _____    ______ ____
ROOT
ATOM      1  C   UNL     1       7.724  -0.714  24.971  0.00  0.00    +0.213 C 
ENDROOT
BRANCH   1   2
ATOM      2  C   UNL     1       8.555   0.121  23.969  0.00  0.00    -0.001 A 
ATOM      3  C   UNL     1       8.264   0.164  22.592  0.00  0.00    +0.007 A 
ATOM      4  C   UNL     1       8.999   0.964  21.712  0.00  0.00    +0.000 A 
ATOM      5  C   UNL     1      10.058   1.730  22.186  0.00  0.00    +0.000 A 
ATOM      6  C   UNL     1      10.390   1.683  23.535  0.00  0.00    +0.000 A 
ATOM      7  C   UNL     1       9.652   0.883  24.416  0.00  0.00    +0.007 A 
ENDBRANCH   1   2
BRANCH   1   8
ATOM      8  C   UNL     1       8.337  -2.100  25.245  0.00  0.00    -0.001 A 
ATOM      9  C   UNL     1       7.984  -2.859  26.376  0.00  0.00    +0.007 A 
ATOM     10  C   UNL     1       8.476  -4.155  26.559  0.00  0.00    +0.000 A 
ATOM     11  C   UNL     1       9.336  -4.716  25.619  0.00  0.00    +0.000 A 
ATOM     12  C   UNL     1       9.719  -3.974  24.506  0.00  0.00    +0.000 A 
ATOM     13  C   UNL     1       9.233  -2.679  24.325  0.00  0.00    +0.007 A 
ENDBRANCH   1   8
BRANCH   1  14
ATOM     14  C   UNL     1       6.237  -0.890  24.478  0.00  0.00    +0.349 C 
ATOM     15  O   UNL     1       5.275  -0.231  24.864  0.00  0.00    -0.247 OA
BRANCH  14  16
ATOM     16  O   UNL     1       6.131  -1.901  23.561  0.00  0.00    -0.461 OA
BRANCH  16  17
ATOM     17  C   UNL     1       5.163  -2.905  23.905  0.00  0.00    +0.247 C 
BRANCH  17  18
ATOM     18  C   UNL     1       5.664  -4.332  23.601  0.00  0.00    +0.125 C 
BRANCH  18  19
ATOM     19  N   UNL     1       4.931  -5.045  22.529  0.00  0.00    -0.300 NA
BRANCH  19  21
ATOM     20  C   UNL     1       7.295  -5.823  22.108  0.00  0.00    +0.020 C 
ATOM     21  C   UNL     1       5.849  -5.761  21.630  0.00  0.00    +0.081 C 
ENDBRANCH  19  21
BRANCH  19  22
ATOM     22  C   UNL     1       3.858  -5.886  23.091  0.00  0.00    +0.081 C 
ATOM     23  C   UNL     1       4.243  -6.791  24.260  0.00  0.00    +0.020 C 
ENDBRANCH  19  22
ENDBRANCH  18  19
ENDBRANCH  17  18
ENDBRANCH  16  17
ENDBRANCH  14  16
ENDBRANCH   1  14
BRANCH   1  24
ATOM     24  O   UNL     1       7.722   0.037  26.208  0.00  0.00    -0.370 OA
ATOM     25  H   UNL     1       7.251  -0.524  26.852  0.00  0.00    +0.212 HD
ENDBRANCH   1  24
TORSDOF 10
ENDMDL
MODEL 9
REMARK VINA RESULT:      -5.4      3.263      6.311
REMARK  Name = 
REMARK  12 active torsions:
REMARK  status: ('A' for Active; 'I' for Inactive)
REMARK    1  A    between atoms: C_1  and  C_2
REMARK    2  A    between atoms: C_2  and  N_3
REMARK    3  A    between atoms: N_3  and  C_4
REMARK    4  A    between atoms: N_3  and  C_6
REMARK    5  A    between atoms: C_4  and  C_5
REMARK    6  A    between atoms: C_6  and  C_7
REMARK    7  A    between atoms: C_7  and  O_8
REMARK    8  A    between atoms: O_8  and  C_9
REMARK    9  A    between atoms: C_9  and  C_11
REMARK   10  A    between atoms: C_11  and  O_12
REMARK   11  A    between atoms: C_11  and  C_13
REMARK   12  A    between atoms: C_11  and  C_19
REMARK                            x       y       z     vdW  Elec       q    Type
REMARK                         _______ _______ _______ _____ _____    ______ ____
ROOT
ATOM      1  C   UNL     1       7.496  -1.480  23.025  0.00  0.00    +0.213 C 
ENDROOT
BRANCH   1   2
ATOM      2  C   UNL     1       7.601  -1.100  24.520  0.00  0.00    -0.001 A 
ATOM      3  C   UNL     1       6.479  -0.741  25.293  0.00  0.00    +0.007 A 
ATOM      4  C   UNL     1       6.592  -0.448  26.655  0.00  0.00    +0.000 A 
ATOM      5  C   UNL     1       7.834  -0.490  27.276  0.00  0.00    +0.000 A 
ATOM      6  C   UNL     1       8.965  -0.809  26.533  0.00  0.00    +0.000 A 
ATOM      7  C   UNL     1       8.851  -1.104  25.169  0.00  0.00    +0.007 A 
ENDBRANCH   1   2
BRANCH   1   8
ATOM      8  C   UNL     1       7.314  -2.994  22.806  0.00  0.00    -0.001 A 
ATOM      9  C   UNL     1       7.969  -3.947  23.609  0.00  0.00    +0.007 A 
ATOM     10  C   UNL     1       7.717  -5.314  23.459  0.00  0.00    +0.000 A 
ATOM     11  C   UNL     1       6.810  -5.757  22.501  0.00  0.00    +0.000 A 
ATOM     12  C   UNL     1       6.170  -4.835  21.678  0.00  0.00    +0.000 A 
ATOM     13  C   UNL     1       6.425  -3.471  21.823  0.00  0.00    +0.007 A 
ENDBRANCH   1   8
BRANCH   1  14
ATOM     14  C   UNL     1       8.753  -0.983  22.214  0.00  0.00    +0.349 C 
ATOM     15  O   UNL     1       9.666  -1.696  21.805  0.00  0.00    -0.247 OA
BRANCH  14  16
ATOM     16  O   UNL     1       8.723   0.373  22.028  0.00  0.00    -0.461 OA
BRANCH  16  17
ATOM     17  C   UNL     1      10.011   1.004  22.110  0.00  0.00    +0.247 C 
BRANCH  17  18
ATOM     18  C   UNL     1      10.209   1.767  23.435  0.00  0.00    +0.125 C 
BRANCH  18  19
ATOM     19  N   UNL     1      10.052   3.237  23.349  0.00  0.00    -0.300 NA
BRANCH  19  21
ATOM     20  C   UNL     1       8.281   2.685  25.060  0.00  0.00    +0.020 C 
ATOM     21  C   UNL     1       9.141   3.747  24.385  0.00  0.00    +0.081 C 
ENDBRANCH  19  21
BRANCH  19  22
ATOM     22  C   UNL     1      11.366   3.908  23.318  0.00  0.00    +0.081 C 
ATOM     23  C   UNL     1      11.378   5.399  23.649  0.00  0.00    +0.020 C 
ENDBRANCH  19  22
ENDBRANCH  18  19
ENDBRANCH  17  18
ENDBRANCH  16  17
ENDBRANCH  14  16
ENDBRANCH   1  14
BRANCH   1  24
ATOM     24  O   UNL     1       6.319  -0.803  22.525  0.00  0.00    -0.370 OA
ATOM     25  H   UNL     1       6.421  -0.783  21.556  0.00  0.00    +0.212 HD
ENDBRANCH   1  24
TORSDOF 10
ENDMDL
