MODEL 1
REMARK VINA RESULT:      -6.9      0.000      0.000
REMARK  Name = 
REMARK  9 active torsions:
REMARK  status: ('A' for Active; 'I' for Inactive)
REMARK    1  A    between atoms: C_1  and  N_2
REMARK    2  A    between atoms: N_5  and  C_6
REMARK    3  A    between atoms: C_6  and  C_7
REMARK    4  A    between atoms: C_7  and  C_8
REMARK    5  A    between atoms: C_8  and  C_9
REMARK    6  A    between atoms: C_9  and  N_10
REMARK    7  A    between atoms: N_14  and  N_15
REMARK    8  A    between atoms: C_16  and  C_17
REMARK    9  A    between atoms: C_20  and  C_22
REMARK                            x       y       z     vdW  Elec       q    Type
REMARK                         _______ _______ _______ _____ _____    ______ ____
ROOT
ATOM      1  N   UNL     1       6.797  -4.685  22.447  0.00  0.00    -0.223 N 
ATOM      2  C   UNL     1       6.442  -3.385  22.160  0.00  0.00    +0.331 C 
ATOM      3  O   UNL     1       5.497  -3.041  21.466  0.00  0.00    -0.250 OA
ATOM      4  N   UNL     1       7.359  -2.550  22.823  0.00  0.00    -0.168 N 
ATOM      5  C   UNL     1       8.253  -3.305  23.663  0.00  0.00    +0.232 C 
ATOM      6  C   UNL     1       7.886  -4.716  23.272  0.00  0.00    +0.242 C 
ATOM      7  O   UNL     1       8.460  -5.717  23.683  0.00  0.00    -0.273 OA
ENDROOT
BRANCH   4   8
ATOM      8  N   UNL     1       7.423  -1.188  22.875  0.00  0.00    -0.180 NA
ATOM      9  C   UNL     1       6.699  -0.492  23.693  0.00  0.00    +0.176 C 
BRANCH   9  10
ATOM     10  C   UNL     1       6.845   0.945  23.648  0.00  0.00    +0.148 A 
ATOM     11  O   UNL     1       8.091   1.521  23.684  0.00  0.00    -0.454 OA
ATOM     12  C   UNL     1       7.916   2.883  23.614  0.00  0.00    +0.136 A 
ATOM     13  C   UNL     1       6.564   3.166  23.550  0.00  0.00    +0.050 A 
ATOM     14  C   UNL     1       5.884   1.933  23.567  0.00  0.00    +0.051 A 
BRANCH  12  15
ATOM     15  C   UNL     1       9.108   3.735  23.600  0.00  0.00    +0.017 A 
ATOM     16  C   UNL     1       9.043   5.123  23.789  0.00  0.00    +0.013 A 
ATOM     17  C   UNL     1      10.210   5.902  23.798  0.00  0.00    +0.021 A 
ATOM     18  C   UNL     1      11.453   5.299  23.618  0.00  0.00    +0.041 A 
ATOM     19 CL   UNL     1      12.887   6.248  23.650  0.00  0.00    -0.084 Cl
ATOM     20  C   UNL     1      11.542   3.930  23.416  0.00  0.00    +0.021 A 
ATOM     21  C   UNL     1      10.375   3.154  23.406  0.00  0.00    +0.013 A 
ENDBRANCH  12  15
ENDBRANCH   9  10
ENDBRANCH   4   8
BRANCH   1  22
ATOM     22  C   UNL     1       6.056  -5.868  22.049  0.00  0.00    +0.118 C 
BRANCH  22  23
ATOM     23  C   UNL     1       5.175  -6.458  23.144  0.00  0.00    +0.021 C 
BRANCH  23  24
ATOM     24  C   UNL     1       4.196  -5.443  23.736  0.00  0.00    +0.017 C 
BRANCH  24  25
ATOM     25  C   UNL     1       4.572  -5.046  25.172  0.00  0.00    +0.084 C 
BRANCH  25  30
ATOM     26  C   UNL     1       6.058  -6.385  29.566  0.00  0.00    +0.105 C 
ATOM     27  N   UNL     1       5.230  -5.439  28.818  0.00  0.00    -0.303 NA
ATOM     28  C   UNL     1       4.166  -6.140  28.068  0.00  0.00    +0.099 C 
ATOM     29  C   UNL     1       4.638  -6.867  26.783  0.00  0.00    +0.100 C 
ATOM     30  N   UNL     1       5.431  -6.025  25.860  0.00  0.00    -0.300 NA
ATOM     31  C   UNL     1       6.526  -5.399  26.630  0.00  0.00    +0.100 C 
ATOM     32  C   UNL     1       6.055  -4.637  27.891  0.00  0.00    +0.099 C 
ENDBRANCH  25  30
ENDBRANCH  24  25
ENDBRANCH  23  24
ENDBRANCH  22  23
ENDBRANCH   1  22
TORSDOF 8
ENDMDL
MODEL 2
REMARK VINA RESULT:      -6.8      2.402      4.162
REMARK  Name = 
REMARK  9 active torsions:
REMARK  status: ('A' for Active; 'I' for Inactive)
REMARK    1  A    between atoms: C_1  and  N_2
REMARK    2  A    between atoms: N_5  and  C_6
REMARK    3  A    between atoms: C_6  and  C_7
REMARK    4  A    between atoms: C_7  and  C_8
REMARK    5  A    between atoms: C_8  and  C_9
REMARK    6  A    between atoms: C_9  and  N_10
REMARK    7  A    between atoms: N_14  and  N_15
REMARK    8  A    between atoms: C_16  and  C_17
REMARK    9  A    between atoms: C_20  and  C_22
REMARK                            x       y       z     vdW  Elec       q    Type
REMARK                         _______ _______ _______ _____ _____    ______ ____
ROOT
ATOM      1  N   UNL     1       6.268  -4.090  27.286  0.00  0.00    -0.223 N 
ATOM      2  C   UNL     1       6.353  -2.829  26.741  0.00  0.00    +0.331 C 
ATOM      3  O   UNL     1       5.493  -1.963  26.810  0.00  0.00    -0.250 OA
ATOM      4  N   UNL     1       7.607  -2.733  26.113  0.00  0.00    -0.168 N 
ATOM      5  C   UNL     1       8.413  -3.901  26.356  0.00  0.00    +0.232 C 
ATOM      6  C   UNL     1       7.414  -4.797  27.048  0.00  0.00    +0.242 C 
ATOM      7  O   UNL     1       7.638  -5.955  27.376  0.00  0.00    -0.273 OA
ENDROOT
BRANCH   4   8
ATOM      8  N   UNL     1       8.177  -1.684  25.452  0.00  0.00    -0.180 NA
ATOM      9  C   UNL     1       8.924  -0.812  26.052  0.00  0.00    +0.176 C 
BRANCH   9  10
ATOM     10  C   UNL     1       9.463   0.263  25.249  0.00  0.00    +0.148 A 
ATOM     11  O   UNL     1       8.662   1.304  24.851  0.00  0.00    -0.454 OA
ATOM     12  C   UNL     1       9.445   2.168  24.122  0.00  0.00    +0.136 A 
ATOM     13  C   UNL     1      10.731   1.665  24.047  0.00  0.00    +0.050 A 
ATOM     14  C   UNL     1      10.742   0.456  24.768  0.00  0.00    +0.051 A 
BRANCH  12  15
ATOM     15  C   UNL     1       8.830   3.393  23.605  0.00  0.00    +0.017 A 
ATOM     16  C   UNL     1       9.299   4.671  23.940  0.00  0.00    +0.013 A 
ATOM     17  C   UNL     1       8.702   5.820  23.402  0.00  0.00    +0.021 A 
ATOM     18  C   UNL     1       7.628   5.702  22.522  0.00  0.00    +0.041 A 
ATOM     19 CL   UNL     1       6.906   7.108  21.843  0.00  0.00    -0.084 Cl
ATOM     20  C   UNL     1       7.137   4.449  22.185  0.00  0.00    +0.021 A 
ATOM     21  C   UNL     1       7.734   3.303  22.725  0.00  0.00    +0.013 A 
ENDBRANCH  12  15
ENDBRANCH   9  10
ENDBRANCH   4   8
BRANCH   1  22
ATOM     22  C   UNL     1       5.181  -4.579  28.115  0.00  0.00    +0.118 C 
BRANCH  22  23
ATOM     23  C   UNL     1       4.417  -5.757  27.521  0.00  0.00    +0.021 C 
BRANCH  23  24
ATOM     24  C   UNL     1       3.981  -5.519  26.075  0.00  0.00    +0.017 C 
BRANCH  24  25
ATOM     25  C   UNL     1       4.654  -6.495  25.099  0.00  0.00    +0.084 C 
BRANCH  25  30
ATOM     26  C   UNL     1       5.799  -3.222  21.739  0.00  0.00    +0.105 C 
ATOM     27  N   UNL     1       5.959  -3.605  23.142  0.00  0.00    -0.303 NA
ATOM     28  C   UNL     1       6.627  -4.919  23.261  0.00  0.00    +0.099 C 
ATOM     29  C   UNL     1       5.730  -6.143  22.945  0.00  0.00    +0.100 C 
ATOM     30  N   UNL     1       4.445  -6.165  23.678  0.00  0.00    -0.300 NA
ATOM     31  C   UNL     1       3.774  -4.863  23.477  0.00  0.00    +0.100 C 
ATOM     32  C   UNL     1       4.652  -3.640  23.831  0.00  0.00    +0.099 C 
ENDBRANCH  25  30
ENDBRANCH  24  25
ENDBRANCH  23  24
ENDBRANCH  22  23
ENDBRANCH   1  22
TORSDOF 8
ENDMDL
MODEL 3
REMARK VINA RESULT:      -6.7      2.704      4.310
REMARK  Name = 
REMARK  9 active torsions:
REMARK  status: ('A' for Active; 'I' for Inactive)
REMARK    1  A    between atoms: C_1  and  N_2
REMARK    2  A    between atoms: N_5  and  C_6
REMARK    3  A    between atoms: C_6  and  C_7
REMARK    4  A    between atoms: C_7  and  C_8
REMARK    5  A    between atoms: C_8  and  C_9
REMARK    6  A    between atoms: C_9  and  N_10
REMARK    7  A    between atoms: N_14  and  N_15
REMARK    8  A    between atoms: C_16  and  C_17
REMARK    9  A    between atoms: C_20  and  C_22
REMARK                            x       y       z     vdW  Elec       q    Type
REMARK                         _______ _______ _______ _____ _____    ______ ____
ROOT
ATOM      1  N   UNL     1       6.043  -5.618  26.162  0.00  0.00    -0.223 N 
ATOM      2  C   UNL     1       5.939  -4.731  25.114  0.00  0.00    +0.331 C 
ATOM      3  O   UNL     1       5.023  -4.686  24.306  0.00  0.00    -0.250 OA
ATOM      4  N   UNL     1       7.068  -3.894  25.167  0.00  0.00    -0.168 N 
ATOM      5  C   UNL     1       7.863  -4.150  26.341  0.00  0.00    +0.232 C 
ATOM      6  C   UNL     1       7.176  -5.378  26.888  0.00  0.00    +0.242 C 
ATOM      7  O   UNL     1       7.568  -6.011  27.860  0.00  0.00    -0.273 OA
ENDROOT
BRANCH   4   8
ATOM      8  N   UNL     1       7.417  -2.844  24.369  0.00  0.00    -0.180 NA
ATOM      9  C   UNL     1       8.635  -2.653  23.972  0.00  0.00    +0.176 C 
BRANCH   9  10
ATOM     10  C   UNL     1       8.887  -1.499  23.138  0.00  0.00    +0.148 A 
ATOM     11  O   UNL     1       8.604  -0.235  23.594  0.00  0.00    -0.454 OA
ATOM     12  C   UNL     1       8.956   0.647  22.600  0.00  0.00    +0.136 A 
ATOM     13  C   UNL     1       9.443  -0.058  21.516  0.00  0.00    +0.050 A 
ATOM     14  C   UNL     1       9.403  -1.423  21.860  0.00  0.00    +0.051 A 
BRANCH  12  15
ATOM     15  C   UNL     1       8.785   2.081  22.853  0.00  0.00    +0.017 A 
ATOM     16  C   UNL     1       9.634   2.801  23.705  0.00  0.00    +0.013 A 
ATOM     17  C   UNL     1       9.455   4.179  23.899  0.00  0.00    +0.021 A 
ATOM     18  C   UNL     1       8.425   4.849  23.243  0.00  0.00    +0.041 A 
ATOM     19 CL   UNL     1       8.216   6.542  23.462  0.00  0.00    -0.084 Cl
ATOM     20  C   UNL     1       7.564   4.156  22.406  0.00  0.00    +0.021 A 
ATOM     21  C   UNL     1       7.743   2.779  22.214  0.00  0.00    +0.013 A 
ENDBRANCH  12  15
ENDBRANCH   9  10
ENDBRANCH   4   8
BRANCH   1  22
ATOM     22  C   UNL     1       5.039  -6.596  26.542  0.00  0.00    +0.118 C 
BRANCH  22  23
ATOM     23  C   UNL     1       4.026  -6.094  27.565  0.00  0.00    +0.021 C 
BRANCH  23  24
ATOM     24  C   UNL     1       2.589  -6.494  27.230  0.00  0.00    +0.017 C 
BRANCH  24  25
ATOM     25  C   UNL     1       2.014  -5.671  26.068  0.00  0.00    +0.084 C 
BRANCH  25  30
ATOM     26  C   UNL     1       0.843  -7.728  21.860  0.00  0.00    +0.105 C 
ATOM     27  N   UNL     1       1.907  -7.065  22.614  0.00  0.00    -0.303 NA
ATOM     28  C   UNL     1       2.256  -7.833  23.828  0.00  0.00    +0.099 C 
ATOM     29  C   UNL     1       1.244  -7.714  24.996  0.00  0.00    +0.100 C 
ATOM     30  N   UNL     1       0.896  -6.323  25.364  0.00  0.00    -0.300 NA
ATOM     31  C   UNL     1       0.484  -5.608  24.138  0.00  0.00    +0.100 C 
ATOM     32  C   UNL     1       1.511  -5.690  22.985  0.00  0.00    +0.099 C 
ENDBRANCH  25  30
ENDBRANCH  24  25
ENDBRANCH  23  24
ENDBRANCH  22  23
ENDBRANCH   1  22
TORSDOF 8
ENDMDL
MODEL 4
REMARK VINA RESULT:      -6.7      2.322      4.274
REMARK  Name = 
REMARK  9 active torsions:
REMARK  status: ('A' for Active; 'I' for Inactive)
REMARK    1  A    between atoms: C_1  and  N_2
REMARK    2  A    between atoms: N_5  and  C_6
REMARK    3  A    between atoms: C_6  and  C_7
REMARK    4  A    between atoms: C_7  and  C_8
REMARK    5  A    between atoms: C_8  and  C_9
REMARK    6  A    between atoms: C_9  and  N_10
REMARK    7  A    between atoms: N_14  and  N_15
REMARK    8  A    between atoms: C_16  and  C_17
REMARK    9  A    between atoms: C_20  and  C_22
REMARK                            x       y       z     vdW  Elec       q    Type
REMARK                         _______ _______ _______ _____ _____    ______ ____
ROOT
ATOM      1  N   UNL     1       5.746  -4.543  28.006  0.00  0.00    -0.223 N 
ATOM      2  C   UNL     1       5.842  -3.370  27.292  0.00  0.00    +0.331 C 
ATOM      3  O   UNL     1       5.020  -2.466  27.293  0.00  0.00    -0.250 OA
ATOM      4  N   UNL     1       7.058  -3.413  26.587  0.00  0.00    -0.168 N 
ATOM      5  C   UNL     1       7.835  -4.573  26.939  0.00  0.00    +0.232 C 
ATOM      6  C   UNL     1       6.849  -5.325  27.800  0.00  0.00    +0.242 C 
ATOM      7  O   UNL     1       7.051  -6.438  28.268  0.00  0.00    -0.273 OA
ENDROOT
BRANCH   4   8
ATOM      8  N   UNL     1       7.623  -2.486  25.761  0.00  0.00    -0.180 NA
ATOM      9  C   UNL     1       8.758  -2.687  25.169  0.00  0.00    +0.176 C 
BRANCH   9  10
ATOM     10  C   UNL     1       9.263  -1.627  24.326  0.00  0.00    +0.148 A 
ATOM     11  O   UNL     1       9.117  -0.313  24.696  0.00  0.00    -0.454 OA
ATOM     12  C   UNL     1       9.700   0.455  23.716  0.00  0.00    +0.136 A 
ATOM     13  C   UNL     1      10.196  -0.369  22.724  0.00  0.00    +0.050 A 
ATOM     14  C   UNL     1       9.922  -1.694  23.115  0.00  0.00    +0.051 A 
BRANCH  12  15
ATOM     15  C   UNL     1       9.710   1.910  23.891  0.00  0.00    +0.017 A 
ATOM     16  C   UNL     1      10.731   2.723  23.378  0.00  0.00    +0.013 A 
ATOM     17  C   UNL     1      10.691   4.116  23.541  0.00  0.00    +0.021 A 
ATOM     18  C   UNL     1       9.629   4.709  24.220  0.00  0.00    +0.041 A 
ATOM     19 CL   UNL     1       9.565   6.418  24.403  0.00  0.00    -0.084 Cl
ATOM     20  C   UNL     1       8.613   3.925  24.748  0.00  0.00    +0.021 A 
ATOM     21  C   UNL     1       8.656   2.534  24.585  0.00  0.00    +0.013 A 
ENDBRANCH  12  15
ENDBRANCH   9  10
ENDBRANCH   4   8
BRANCH   1  22
ATOM     22  C   UNL     1       4.695  -4.871  28.953  0.00  0.00    +0.118 C 
BRANCH  22  23
ATOM     23  C   UNL     1       3.359  -5.229  28.312  0.00  0.00    +0.021 C 
BRANCH  23  24
ATOM     24  C   UNL     1       3.509  -6.097  27.062  0.00  0.00    +0.017 C 
BRANCH  24  25
ATOM     25  C   UNL     1       3.032  -5.374  25.794  0.00  0.00    +0.084 C 
BRANCH  25  30
ATOM     26  C   UNL     1       5.821  -5.760  21.871  0.00  0.00    +0.105 C 
ATOM     27  N   UNL     1       5.594  -5.018  23.112  0.00  0.00    -0.303 NA
ATOM     28  C   UNL     1       5.717  -5.903  24.290  0.00  0.00    +0.099 C 
ATOM     29  C   UNL     1       4.509  -6.842  24.536  0.00  0.00    +0.100 C 
ATOM     30  N   UNL     1       3.197  -6.158  24.557  0.00  0.00    -0.300 NA
ATOM     31  C   UNL     1       3.081  -5.342  23.331  0.00  0.00    +0.100 C 
ATOM     32  C   UNL     1       4.265  -4.373  23.104  0.00  0.00    +0.099 C 
ENDBRANCH  25  30
ENDBRANCH  24  25
ENDBRANCH  23  24
ENDBRANCH  22  23
ENDBRANCH   1  22
TORSDOF 8
ENDMDL
MODEL 5
REMARK VINA RESULT:      -6.6      2.785      5.171
REMARK  Name = 
REMARK  9 active torsions:
REMARK  status: ('A' for Active; 'I' for Inactive)
REMARK    1  A    between atoms: C_1  and  N_2
REMARK    2  A    between atoms: N_5  and  C_6
REMARK    3  A    between atoms: C_6  and  C_7
REMARK    4  A    between atoms: C_7  and  C_8
REMARK    5  A    between atoms: C_8  and  C_9
REMARK    6  A    between atoms: C_9  and  N_10
REMARK    7  A    between atoms: N_14  and  N_15
REMARK    8  A    between atoms: C_16  and  C_17
REMARK    9  A    between atoms: C_20  and  C_22
REMARK                            x       y       z     vdW  Elec       q    Type
REMARK                         _______ _______ _______ _____ _____    ______ ____
ROOT
ATOM      1  N   UNL     1       5.347  -5.404  29.128  0.00  0.00    -0.223 N 
ATOM      2  C   UNL     1       5.312  -4.348  28.246  0.00  0.00    +0.331 C 
ATOM      3  O   UNL     1       4.584  -3.370  28.333  0.00  0.00    -0.250 OA
ATOM      4  N   UNL     1       6.271  -4.607  27.251  0.00  0.00    -0.168 N 
ATOM      5  C   UNL     1       7.040  -5.788  27.550  0.00  0.00    +0.232 C 
ATOM      6  C   UNL     1       6.292  -6.317  28.750  0.00  0.00    +0.242 C 
ATOM      7  O   UNL     1       6.546  -7.377  29.308  0.00  0.00    -0.273 OA
ENDROOT
BRANCH   4   8
ATOM      8  N   UNL     1       6.638  -3.857  26.172  0.00  0.00    -0.180 NA
ATOM      9  C   UNL     1       7.400  -4.322  25.233  0.00  0.00    +0.176 C 
BRANCH   9  10
ATOM     10  C   UNL     1       7.730  -3.430  24.145  0.00  0.00    +0.148 A 
ATOM     11  O   UNL     1       8.359  -2.234  24.390  0.00  0.00    -0.454 OA
ATOM     12  C   UNL     1       8.552  -1.617  23.177  0.00  0.00    +0.136 A 
ATOM     13  C   UNL     1       8.033  -2.411  22.172  0.00  0.00    +0.050 A 
ATOM     14  C   UNL     1       7.514  -3.567  22.788  0.00  0.00    +0.051 A 
BRANCH  12  15
ATOM     15  C   UNL     1       9.243  -0.324  23.159  0.00  0.00    +0.017 A 
ATOM     16  C   UNL     1       9.334   0.465  22.004  0.00  0.00    +0.013 A 
ATOM     17  C   UNL     1       9.979   1.711  22.034  0.00  0.00    +0.021 A 
ATOM     18  C   UNL     1      10.540   2.178  23.221  0.00  0.00    +0.041 A 
ATOM     19 CL   UNL     1      11.313   3.714  23.267  0.00  0.00    -0.084 Cl
ATOM     20  C   UNL     1      10.475   1.409  24.374  0.00  0.00    +0.021 A 
ATOM     21  C   UNL     1       9.831   0.165  24.341  0.00  0.00    +0.013 A 
ENDBRANCH  12  15
ENDBRANCH   9  10
ENDBRANCH   4   8
BRANCH   1  22
ATOM     22  C   UNL     1       4.589  -5.497  30.363  0.00  0.00    +0.118 C 
BRANCH  22  23
ATOM     23  C   UNL     1       3.468  -6.529  30.339  0.00  0.00    +0.021 C 
BRANCH  23  24
ATOM     24  C   UNL     1       2.307  -6.129  29.427  0.00  0.00    +0.017 C 
BRANCH  24  25
ATOM     25  C   UNL     1       2.164  -7.073  28.223  0.00  0.00    +0.084 C 
BRANCH  25  30
ATOM     26  C   UNL     1       2.564  -7.361  23.420  0.00  0.00    +0.105 C 
ATOM     27  N   UNL     1       2.946  -7.973  24.693  0.00  0.00    -0.303 NA
ATOM     28  C   UNL     1       1.755  -8.430  25.441  0.00  0.00    +0.099 C 
ATOM     29  C   UNL     1       0.942  -7.307  26.133  0.00  0.00    +0.100 C 
ATOM     30  N   UNL     1       1.749  -6.401  26.979  0.00  0.00    -0.300 NA
ATOM     31  C   UNL     1       2.887  -5.908  26.176  0.00  0.00    +0.100 C 
ATOM     32  C   UNL     1       3.726  -7.028  25.519  0.00  0.00    +0.099 C 
ENDBRANCH  25  30
ENDBRANCH  24  25
ENDBRANCH  23  24
ENDBRANCH  22  23
ENDBRANCH   1  22
TORSDOF 8
ENDMDL
MODEL 6
REMARK VINA RESULT:      -6.4      2.686      3.633
REMARK  Name = 
REMARK  9 active torsions:
REMARK  status: ('A' for Active; 'I' for Inactive)
REMARK    1  A    between atoms: C_1  and  N_2
REMARK    2  A    between atoms: N_5  and  C_6
REMARK    3  A    between atoms: C_6  and  C_7
REMARK    4  A    between atoms: C_7  and  C_8
REMARK    5  A    between atoms: C_8  and  C_9
REMARK    6  A    between atoms: C_9  and  N_10
REMARK    7  A    between atoms: N_14  and  N_15
REMARK    8  A    between atoms: C_16  and  C_17
REMARK    9  A    between atoms: C_20  and  C_22
REMARK                            x       y       z     vdW  Elec       q    Type
REMARK                         _______ _______ _______ _____ _____    ______ ____
ROOT
ATOM      1  N   UNL     1       6.229  -5.482  25.994  0.00  0.00    -0.223 N 
ATOM      2  C   UNL     1       6.261  -4.548  24.983  0.00  0.00    +0.331 C 
ATOM      3  O   UNL     1       5.484  -4.488  24.042  0.00  0.00    -0.250 OA
ATOM      4  N   UNL     1       7.338  -3.684  25.252  0.00  0.00    -0.168 N 
ATOM      5  C   UNL     1       7.946  -3.975  26.525  0.00  0.00    +0.232 C 
ATOM      6  C   UNL     1       7.224  -5.247  26.901  0.00  0.00    +0.242 C 
ATOM      7  O   UNL     1       7.478  -5.916  27.894  0.00  0.00    -0.273 OA
ENDROOT
BRANCH   4   8
ATOM      8  N   UNL     1       7.773  -2.587  24.567  0.00  0.00    -0.180 NA
ATOM      9  C   UNL     1       8.954  -2.526  24.038  0.00  0.00    +0.176 C 
BRANCH   9  10
ATOM     10  C   UNL     1       9.307  -1.307  23.346  0.00  0.00    +0.148 A 
ATOM     11  O   UNL     1       9.219  -0.094  23.983  0.00  0.00    -0.454 OA
ATOM     12  C   UNL     1       9.627   0.869  23.089  0.00  0.00    +0.136 A 
ATOM     13  C   UNL     1       9.956   0.267  21.889  0.00  0.00    +0.050 A 
ATOM     14  C   UNL     1       9.756  -1.118  22.055  0.00  0.00    +0.051 A 
BRANCH  12  15
ATOM     15  C   UNL     1       9.660   2.263  23.539  0.00  0.00    +0.017 A 
ATOM     16  C   UNL     1      10.736   3.118  23.262  0.00  0.00    +0.013 A 
ATOM     17  C   UNL     1      10.717   4.456  23.685  0.00  0.00    +0.021 A 
ATOM     18  C   UNL     1       9.622   4.951  24.390  0.00  0.00    +0.041 A 
ATOM     19 CL   UNL     1       9.586   6.595  24.891  0.00  0.00    -0.084 Cl
ATOM     20  C   UNL     1       8.551   4.120  24.687  0.00  0.00    +0.021 A 
ATOM     21  C   UNL     1       8.572   2.784  24.266  0.00  0.00    +0.013 A 
ENDBRANCH  12  15
ENDBRANCH   9  10
ENDBRANCH   4   8
BRANCH   1  22
ATOM     22  C   UNL     1       5.211  -6.503  26.165  0.00  0.00    +0.118 C 
BRANCH  22  23
ATOM     23  C   UNL     1       4.124  -6.148  27.173  0.00  0.00    +0.021 C 
BRANCH  23  24
ATOM     24  C   UNL     1       2.991  -5.322  26.564  0.00  0.00    +0.017 C 
BRANCH  24  25
ATOM     25  C   UNL     1       2.783  -3.990  27.301  0.00  0.00    +0.084 C 
BRANCH  25  30
ATOM     26  C   UNL     1       4.563  -0.042  29.436  0.00  0.00    +0.105 C 
ATOM     27  N   UNL     1       3.392  -0.624  28.779  0.00  0.00    -0.303 NA
ATOM     28  C   UNL     1       2.894  -1.800  29.524  0.00  0.00    +0.099 C 
ATOM     29  C   UNL     1       3.734  -3.091  29.352  0.00  0.00    +0.100 C 
ATOM     30  N   UNL     1       4.000  -3.465  27.945  0.00  0.00    -0.300 NA
ATOM     31  C   UNL     1       4.564  -2.288  27.252  0.00  0.00    +0.100 C 
ATOM     32  C   UNL     1       3.707  -1.007  27.387  0.00  0.00    +0.099 C 
ENDBRANCH  25  30
ENDBRANCH  24  25
ENDBRANCH  23  24
ENDBRANCH  22  23
ENDBRANCH   1  22
TORSDOF 8
ENDMDL
MODEL 7
REMARK VINA RESULT:      -6.4      4.310     10.203
REMARK  Name = 
REMARK  9 active torsions:
REMARK  status: ('A' for Active; 'I' for Inactive)
REMARK    1  A    between atoms: C_1  and  N_2
REMARK    2  A    between atoms: N_5  and  C_6
REMARK    3  A    between atoms: C_6  and  C_7
REMARK    4  A    between atoms: C_7  and  C_8
REMARK    5  A    between atoms: C_8  and  C_9
REMARK    6  A    between atoms: C_9  and  N_10
REMARK    7  A    between atoms: N_14  and  N_15
REMARK    8  A    between atoms: C_16  and  C_17
REMARK    9  A    between atoms: C_20  and  C_22
REMARK                            x       y       z     vdW  Elec       q    Type
REMARK                         _______ _______ _______ _____ _____    ______ ____
ROOT
ATOM      1  N   UNL     1       9.527  -0.336  23.155  0.00  0.00    -0.223 N 
ATOM      2  C   UNL     1       8.573  -1.321  23.035  0.00  0.00    +0.331 C 
ATOM      3  O   UNL     1       8.081  -1.713  21.987  0.00  0.00    -0.250 OA
ATOM      4  N   UNL     1       8.294  -1.787  24.332  0.00  0.00    -0.168 N 
ATOM      5  C   UNL     1       9.167  -1.191  25.310  0.00  0.00    +0.232 C 
ATOM      6  C   UNL     1       9.878  -0.162  24.465  0.00  0.00    +0.242 C 
ATOM      7  O   UNL     1      10.677   0.657  24.903  0.00  0.00    -0.273 OA
ENDROOT
BRANCH   4   8
ATOM      8  N   UNL     1       7.443  -2.771  24.744  0.00  0.00    -0.180 NA
ATOM      9  C   UNL     1       7.808  -3.702  25.568  0.00  0.00    +0.176 C 
BRANCH   9  10
ATOM     10  C   UNL     1       6.822  -4.697  25.923  0.00  0.00    +0.148 A 
ATOM     11  O   UNL     1       5.835  -5.047  25.036  0.00  0.00    -0.454 OA
ATOM     12  C   UNL     1       5.065  -6.013  25.640  0.00  0.00    +0.136 A 
ATOM     13  C   UNL     1       5.554  -6.259  26.909  0.00  0.00    +0.050 A 
ATOM     14  C   UNL     1       6.675  -5.425  27.087  0.00  0.00    +0.051 A 
BRANCH  12  15
ATOM     15  C   UNL     1       3.950  -6.587  24.880  0.00  0.00    +0.017 A 
ATOM     16  C   UNL     1       3.247  -7.719  25.315  0.00  0.00    +0.013 A 
ATOM     17  C   UNL     1       2.167  -8.222  24.574  0.00  0.00    +0.021 A 
ATOM     18  C   UNL     1       1.780  -7.597  23.391  0.00  0.00    +0.041 A 
ATOM     19 CL   UNL     1       0.443  -8.197  22.491  0.00  0.00    -0.084 Cl
ATOM     20  C   UNL     1       2.469  -6.483  22.933  0.00  0.00    +0.021 A 
ATOM     21  C   UNL     1       3.548  -5.983  23.673  0.00  0.00    +0.013 A 
ENDBRANCH  12  15
ENDBRANCH   9  10
ENDBRANCH   4   8
BRANCH   1  22
ATOM     22  C   UNL     1      10.178   0.346  22.051  0.00  0.00    +0.118 C 
BRANCH  22  23
ATOM     23  C   UNL     1       9.841   1.828  21.939  0.00  0.00    +0.021 C 
BRANCH  23  24
ATOM     24  C   UNL     1       8.336   2.101  21.938  0.00  0.00    +0.017 C 
BRANCH  24  25
ATOM     25  C   UNL     1       7.974   3.352  22.753  0.00  0.00    +0.084 C 
BRANCH  25  30
ATOM     26  C   UNL     1       8.802   6.493  26.325  0.00  0.00    +0.105 C 
ATOM     27  N   UNL     1       7.962   6.192  25.166  0.00  0.00    -0.303 NA
ATOM     28  C   UNL     1       7.235   4.918  25.352  0.00  0.00    +0.099 C 
ATOM     29  C   UNL     1       8.092   3.639  25.166  0.00  0.00    +0.100 C 
ATOM     30  N   UNL     1       8.862   3.597  23.903  0.00  0.00    -0.300 NA
ATOM     31  C   UNL     1       9.630   4.855  23.787  0.00  0.00    +0.100 C 
ATOM     32  C   UNL     1       8.772   6.133  23.931  0.00  0.00    +0.099 C 
ENDBRANCH  25  30
ENDBRANCH  24  25
ENDBRANCH  23  24
ENDBRANCH  22  23
ENDBRANCH   1  22
TORSDOF 8
ENDMDL
MODEL 8
REMARK VINA RESULT:      -6.4      2.562      3.457
REMARK  Name = 
REMARK  9 active torsions:
REMARK  status: ('A' for Active; 'I' for Inactive)
REMARK    1  A    between atoms: C_1  and  N_2
REMARK    2  A    between atoms: N_5  and  C_6
REMARK    3  A    between atoms: C_6  and  C_7
REMARK    4  A    between atoms: C_7  and  C_8
REMARK    5  A    between atoms: C_8  and  C_9
REMARK    6  A    between atoms: C_9  and  N_10
REMARK    7  A    between atoms: N_14  and  N_15
REMARK    8  A    between atoms: C_16  and  C_17
REMARK    9  A    between atoms: C_20  and  C_22
REMARK                            x       y       z     vdW  Elec       q    Type
REMARK                         _______ _______ _______ _____ _____    ______ ____
ROOT
ATOM      1  N   UNL     1       6.767  -4.816  22.513  0.00  0.00    -0.223 N 
ATOM      2  C   UNL     1       6.490  -3.517  22.151  0.00  0.00    +0.331 C 
ATOM      3  O   UNL     1       5.532  -3.150  21.488  0.00  0.00    -0.250 OA
ATOM      4  N   UNL     1       7.504  -2.711  22.698  0.00  0.00    -0.168 N 
ATOM      5  C   UNL     1       8.391  -3.471  23.540  0.00  0.00    +0.232 C 
ATOM      6  C   UNL     1       7.900  -4.874  23.277  0.00  0.00    +0.242 C 
ATOM      7  O   UNL     1       8.424  -5.884  23.728  0.00  0.00    -0.273 OA
ENDROOT
BRANCH   4   8
ATOM      8  N   UNL     1       7.670  -1.357  22.645  0.00  0.00    -0.180 NA
ATOM      9  C   UNL     1       8.757  -0.810  22.203  0.00  0.00    +0.176 C 
BRANCH   9  10
ATOM     10  C   UNL     1       8.822   0.634  22.206  0.00  0.00    +0.148 A 
ATOM     11  O   UNL     1       7.678   1.382  22.330  0.00  0.00    -0.454 OA
ATOM     12  C   UNL     1       8.050   2.706  22.314  0.00  0.00    +0.136 A 
ATOM     13  C   UNL     1       9.422   2.792  22.164  0.00  0.00    +0.050 A 
ATOM     14  C   UNL     1       9.913   1.474  22.100  0.00  0.00    +0.051 A 
BRANCH  12  15
ATOM     15  C   UNL     1       7.005   3.722  22.467  0.00  0.00    +0.017 A 
ATOM     16  C   UNL     1       7.277   5.096  22.408  0.00  0.00    +0.013 A 
ATOM     17  C   UNL     1       6.245   6.038  22.530  0.00  0.00    +0.021 A 
ATOM     18  C   UNL     1       4.930   5.614  22.714  0.00  0.00    +0.041 A 
ATOM     19 CL   UNL     1       3.659   6.766  22.843  0.00  0.00    -0.084 Cl
ATOM     20  C   UNL     1       4.638   4.260  22.789  0.00  0.00    +0.021 A 
ATOM     21  C   UNL     1       5.671   3.321  22.668  0.00  0.00    +0.013 A 
ENDBRANCH  12  15
ENDBRANCH   9  10
ENDBRANCH   4   8
BRANCH   1  22
ATOM     22  C   UNL     1       5.920  -5.965  22.246  0.00  0.00    +0.118 C 
BRANCH  22  23
ATOM     23  C   UNL     1       4.605  -5.971  23.017  0.00  0.00    +0.021 C 
BRANCH  23  24
ATOM     24  C   UNL     1       4.779  -6.331  24.493  0.00  0.00    +0.017 C 
BRANCH  24  25
ATOM     25  C   UNL     1       3.858  -5.505  25.404  0.00  0.00    +0.084 C 
BRANCH  25  30
ATOM     26  C   UNL     1       4.478  -1.003  27.036  0.00  0.00    +0.105 C 
ATOM     27  N   UNL     1       3.807  -1.833  26.035  0.00  0.00    -0.303 NA
ATOM     28  C   UNL     1       2.908  -2.816  26.676  0.00  0.00    +0.099 C 
ATOM     29  C   UNL     1       3.618  -4.031  27.325  0.00  0.00    +0.100 C 
ATOM     30  N   UNL     1       4.571  -4.729  26.434  0.00  0.00    -0.300 NA
ATOM     31  C   UNL     1       5.498  -3.725  25.869  0.00  0.00    +0.100 C 
ATOM     32  C   UNL     1       4.792  -2.532  25.184  0.00  0.00    +0.099 C 
ENDBRANCH  25  30
ENDBRANCH  24  25
ENDBRANCH  23  24
ENDBRANCH  22  23
ENDBRANCH   1  22
TORSDOF 8
ENDMDL
MODEL 9
REMARK VINA RESULT:      -6.3      1.778      3.087
REMARK  Name = 
REMARK  9 active torsions:
REMARK  status: ('A' for Active; 'I' for Inactive)
REMARK    1  A    between atoms: C_1  and  N_2
REMARK    2  A    between atoms: N_5  and  C_6
REMARK    3  A    between atoms: C_6  and  C_7
REMARK    4  A    between atoms: C_7  and  C_8
REMARK    5  A    between atoms: C_8  and  C_9
REMARK    6  A    between atoms: C_9  and  N_10
REMARK    7  A    between atoms: N_14  and  N_15
REMARK    8  A    between atoms: C_16  and  C_17
REMARK    9  A    between atoms: C_20  and  C_22
REMARK                            x       y       z     vdW  Elec       q    Type
REMARK                         _______ _______ _______ _____ _____    ______ ____
ROOT
ATOM      1  N   UNL     1       8.081  -4.188  25.137  0.00  0.00    -0.223 N 
ATOM      2  C   UNL     1       8.085  -2.826  25.341  0.00  0.00    +0.331 C 
ATOM      3  O   UNL     1       8.022  -2.268  26.427  0.00  0.00    -0.250 OA
ATOM      4  N   UNL     1       8.190  -2.218  24.078  0.00  0.00    -0.168 N 
ATOM      5  C   UNL     1       8.385  -3.192  23.035  0.00  0.00    +0.232 C 
ATOM      6  C   UNL     1       8.192  -4.476  23.805  0.00  0.00    +0.242 C 
ATOM      7  O   UNL     1       8.187  -5.590  23.297  0.00  0.00    -0.273 OA
ENDROOT
BRANCH   4   8
ATOM      8  N   UNL     1       8.258  -0.896  23.745  0.00  0.00    -0.180 NA
ATOM      9  C   UNL     1       7.203  -0.197  23.467  0.00  0.00    +0.176 C 
BRANCH   9  10
ATOM     10  C   UNL     1       7.402   1.191  23.117  0.00  0.00    +0.148 A 
ATOM     11  O   UNL     1       8.377   1.933  23.735  0.00  0.00    -0.454 OA
ATOM     12  C   UNL     1       8.337   3.196  23.192  0.00  0.00    +0.136 A 
ATOM     13  C   UNL     1       7.329   3.255  22.248  0.00  0.00    +0.050 A 
ATOM     14  C   UNL     1       6.738   1.978  22.197  0.00  0.00    +0.051 A 
BRANCH  12  15
ATOM     15  C   UNL     1       9.312   4.184  23.662  0.00  0.00    +0.017 A 
ATOM     16  C   UNL     1       8.946   5.290  24.441  0.00  0.00    +0.013 A 
ATOM     17  C   UNL     1       9.914   6.199  24.897  0.00  0.00    +0.021 A 
ATOM     18  C   UNL     1      11.256   6.009  24.577  0.00  0.00    +0.041 A 
ATOM     19 CL   UNL     1      12.447   7.108  25.152  0.00  0.00    -0.084 Cl
ATOM     20  C   UNL     1      11.641   4.928  23.797  0.00  0.00    +0.021 A 
ATOM     21  C   UNL     1      10.673   4.023  23.342  0.00  0.00    +0.013 A 
ENDBRANCH  12  15
ENDBRANCH   9  10
ENDBRANCH   4   8
BRANCH   1  22
ATOM     22  C   UNL     1       8.091  -5.197  26.180  0.00  0.00    +0.118 C 
BRANCH  22  23
ATOM     23  C   UNL     1       6.938  -5.089  27.172  0.00  0.00    +0.021 C 
BRANCH  23  24
ATOM     24  C   UNL     1       5.687  -5.845  26.719  0.00  0.00    +0.017 C 
BRANCH  24  25
ATOM     25  C   UNL     1       4.854  -5.036  25.714  0.00  0.00    +0.084 C 
BRANCH  25  30
ATOM     26  C   UNL     1       1.651  -7.275  22.877  0.00  0.00    +0.105 C 
ATOM     27  N   UNL     1       1.858  -6.632  24.175  0.00  0.00    -0.303 NA
ATOM     28  C   UNL     1       2.242  -5.213  24.011  0.00  0.00    +0.099 C 
ATOM     29  C   UNL     1       3.709  -4.976  23.568  0.00  0.00    +0.100 C 
ATOM     30  N   UNL     1       4.717  -5.676  24.394  0.00  0.00    -0.300 NA
ATOM     31  C   UNL     1       4.340  -7.103  24.475  0.00  0.00    +0.100 C 
ATOM     32  C   UNL     1       2.890  -7.345  24.957  0.00  0.00    +0.099 C 
ENDBRANCH  25  30
ENDBRANCH  24  25
ENDBRANCH  23  24
ENDBRANCH  22  23
ENDBRANCH   1  22
TORSDOF 8
ENDMDL
