MODEL 1
REMARK VINA RESULT:      -7.4      0.000      0.000
REMARK  Name = 
REMARK  9 active torsions:
REMARK  status: ('A' for Active; 'I' for Inactive)
REMARK    1  A    between atoms: C_2  and  C_3
REMARK    2  A    between atoms: C_2  and  C_4
REMARK    3  A    between atoms: C_2  and  C_17
REMARK    4  A    between atoms: C_6  and  C_9
REMARK    5  A    between atoms: C_12  and  C_15
REMARK    6  A    between atoms: C_17  and  O_18
REMARK    7  A    between atoms: C_17  and  C_19
REMARK    8  A    between atoms: C_17  and  C_25
REMARK    9  A    between atoms: C_19  and  N_20
REMARK                            x       y       z     vdW  Elec       q    Type
REMARK                         _______ _______ _______ _____ _____    ______ ____
ROOT
ATOM      1  C   UNL     1       9.439   2.457  23.566  0.00  0.00    +0.121 C 
ENDROOT
BRANCH   1   2
ATOM      2  C   UNL     1      10.305   3.736  23.731  0.00  0.00    +0.024 A 
ATOM      3  C   UNL     1      11.671   3.734  23.359  0.00  0.00    +0.047 A 
ATOM      4  C   UNL     1      12.430   4.908  23.363  0.00  0.00    +0.124 A 
ATOM      5  F   UNL     1      13.714   4.858  22.985  0.00  0.00    -0.205 F 
ATOM      6  C   UNL     1      11.875   6.120  23.735  0.00  0.00    +0.041 A 
ATOM      7  C   UNL     1      10.563   6.138  24.189  0.00  0.00    +0.041 A 
ATOM      8  C   UNL     1       9.813   4.955  24.227  0.00  0.00    +0.130 A 
ATOM      9  F   UNL     1       8.599   5.035  24.782  0.00  0.00    -0.205 F 
ENDBRANCH   1   2
BRANCH   1  10
ATOM     10  C   UNL     1      10.195   1.062  23.523  0.00  0.00    +0.080 C 
ATOM     11  C   UNL     1      10.887   0.666  24.854  0.00  0.00    +0.018 C 
BRANCH  10  12
ATOM     12  C   UNL     1       9.303  -0.150  23.190  0.00  0.00    +0.085 A 
ATOM     13  S   UNL     1       9.443  -0.914  21.648  0.00  0.00    -0.080 S 
ATOM     14  C   UNL     1       8.630  -2.293  22.263  0.00  0.00    +0.075 A 
ATOM     15  C   UNL     1       8.225  -2.075  23.565  0.00  0.00    +0.078 A 
ATOM     16  N   UNL     1       8.589  -0.832  24.073  0.00  0.00    -0.244 NA
BRANCH  15  17
ATOM     17  C   UNL     1       7.557  -3.093  24.382  0.00  0.00    +0.001 A 
ATOM     18  C   UNL     1       7.539  -2.981  25.781  0.00  0.00    +0.011 A 
ATOM     19  C   UNL     1       6.957  -3.983  26.577  0.00  0.00    +0.019 A 
ATOM     20  C   UNL     1       6.375  -5.109  25.988  0.00  0.00    +0.052 A 
ATOM     21  C   UNL     1       6.373  -5.224  24.598  0.00  0.00    +0.019 A 
ATOM     22  C   UNL     1       6.959  -4.224  23.805  0.00  0.00    +0.011 A 
BRANCH  20  23
ATOM     23  C   UNL     1       5.784  -6.131  26.811  0.00  0.00    +0.099 C 
ATOM     24  N   UNL     1       5.318  -6.954  27.484  0.00  0.00    -0.191 NA
ENDBRANCH  20  23
ENDBRANCH  15  17
ENDBRANCH  10  12
ENDBRANCH   1  10
BRANCH   1  25
ATOM     25  O   UNL     1       8.620   2.401  24.767  0.00  0.00    -0.381 OA
ATOM     26  H   UNL     1       7.815   1.883  24.616  0.00  0.00    +0.211 HD
ENDBRANCH   1  25
BRANCH   1  27
ATOM     27  C   UNL     1       8.452   2.643  22.371  0.00  0.00    +0.185 C 
BRANCH  27  28
ATOM     28  N   UNL     1       7.066   2.887  22.695  0.00  0.00    -0.249 N 
ATOM     29  N   UNL     1       6.299   1.938  23.255  0.00  0.00    -0.158 NA
ATOM     30  C   UNL     1       5.163   2.610  23.470  0.00  0.00    +0.244 A 
ATOM     31  N   UNL     1       5.181   3.919  23.084  0.00  0.00    -0.223 NA
ATOM     32  C   UNL     1       6.395   4.071  22.610  0.00  0.00    +0.219 A 
ENDBRANCH  27  28
ENDBRANCH   1  27
TORSDOF 8
ENDMDL
MODEL 2
REMARK VINA RESULT:      -7.3      3.563      7.899
REMARK  Name = 
REMARK  9 active torsions:
REMARK  status: ('A' for Active; 'I' for Inactive)
REMARK    1  A    between atoms: C_2  and  C_3
REMARK    2  A    between atoms: C_2  and  C_4
REMARK    3  A    between atoms: C_2  and  C_17
REMARK    4  A    between atoms: C_6  and  C_9
REMARK    5  A    between atoms: C_12  and  C_15
REMARK    6  A    between atoms: C_17  and  O_18
REMARK    7  A    between atoms: C_17  and  C_19
REMARK    8  A    between atoms: C_17  and  C_25
REMARK    9  A    between atoms: C_19  and  N_20
REMARK                            x       y       z     vdW  Elec       q    Type
REMARK                         _______ _______ _______ _____ _____    ______ ____
ROOT
ATOM      1  C   UNL     1       6.360  -2.424  24.061  0.00  0.00    +0.121 C 
ENDROOT
BRANCH   1   2
ATOM      2  C   UNL     1       7.792  -2.202  23.501  0.00  0.00    +0.024 A 
ATOM      3  C   UNL     1       7.992  -1.466  22.308  0.00  0.00    +0.047 A 
ATOM      4  C   UNL     1       9.275  -1.130  21.865  0.00  0.00    +0.124 A 
ATOM      5  F   UNL     1       9.413  -0.418  20.740  0.00  0.00    -0.205 F 
ATOM      6  C   UNL     1      10.402  -1.508  22.576  0.00  0.00    +0.041 A 
ATOM      7  C   UNL     1      10.240  -2.304  23.702  0.00  0.00    +0.041 A 
ATOM      8  C   UNL     1       8.957  -2.678  24.124  0.00  0.00    +0.130 A 
ATOM      9  F   UNL     1       8.892  -3.537  25.146  0.00  0.00    -0.205 F 
ENDBRANCH   1   2
BRANCH   1  10
ATOM     10  C   UNL     1       5.957  -1.632  25.376  0.00  0.00    +0.080 C 
ATOM     11  C   UNL     1       6.631  -2.155  26.672  0.00  0.00    +0.018 C 
BRANCH  10  12
ATOM     12  C   UNL     1       6.294  -0.129  25.359  0.00  0.00    +0.085 A 
ATOM     13  S   UNL     1       5.652   0.904  26.585  0.00  0.00    -0.080 S 
ATOM     14  C   UNL     1       6.820   2.095  26.187  0.00  0.00    +0.075 A 
ATOM     15  C   UNL     1       7.575   1.689  25.104  0.00  0.00    +0.078 A 
ATOM     16  N   UNL     1       7.243   0.428  24.620  0.00  0.00    -0.244 NA
BRANCH  15  17
ATOM     17  C   UNL     1       8.696   2.467  24.566  0.00  0.00    +0.001 A 
ATOM     18  C   UNL     1       9.839   1.819  24.075  0.00  0.00    +0.011 A 
ATOM     19  C   UNL     1      10.944   2.555  23.616  0.00  0.00    +0.019 A 
ATOM     20  C   UNL     1      10.921   3.953  23.629  0.00  0.00    +0.052 A 
ATOM     21  C   UNL     1       9.783   4.609  24.100  0.00  0.00    +0.019 A 
ATOM     22  C   UNL     1       8.683   3.870  24.562  0.00  0.00    +0.011 A 
BRANCH  20  23
ATOM     23  C   UNL     1      12.059   4.699  23.160  0.00  0.00    +0.099 C 
ATOM     24  N   UNL     1      12.974   5.296  22.768  0.00  0.00    -0.191 NA
ENDBRANCH  20  23
ENDBRANCH  15  17
ENDBRANCH  10  12
ENDBRANCH   1  10
BRANCH   1  25
ATOM     25  O   UNL     1       5.470  -1.912  23.030  0.00  0.00    -0.381 OA
ATOM     26  H   UNL     1       4.791  -2.563  22.800  0.00  0.00    +0.211 HD
ENDBRANCH   1  25
BRANCH   1  27
ATOM     27  C   UNL     1       6.071  -3.954  24.168  0.00  0.00    +0.185 C 
BRANCH  27  28
ATOM     28  N   UNL     1       6.288  -4.749  22.981  0.00  0.00    -0.249 N 
ATOM     29  N   UNL     1       5.522  -4.603  21.889  0.00  0.00    -0.158 NA
ATOM     30  C   UNL     1       6.125  -5.432  21.031  0.00  0.00    +0.244 A 
ATOM     31  N   UNL     1       7.223  -6.078  21.521  0.00  0.00    -0.223 NA
ATOM     32  C   UNL     1       7.311  -5.620  22.748  0.00  0.00    +0.219 A 
ENDBRANCH  27  28
ENDBRANCH   1  27
TORSDOF 8
ENDMDL
MODEL 3
REMARK VINA RESULT:      -7.2      1.844      2.536
REMARK  Name = 
REMARK  9 active torsions:
REMARK  status: ('A' for Active; 'I' for Inactive)
REMARK    1  A    between atoms: C_2  and  C_3
REMARK    2  A    between atoms: C_2  and  C_4
REMARK    3  A    between atoms: C_2  and  C_17
REMARK    4  A    between atoms: C_6  and  C_9
REMARK    5  A    between atoms: C_12  and  C_15
REMARK    6  A    between atoms: C_17  and  O_18
REMARK    7  A    between atoms: C_17  and  C_19
REMARK    8  A    between atoms: C_17  and  C_25
REMARK    9  A    between atoms: C_19  and  N_20
REMARK                            x       y       z     vdW  Elec       q    Type
REMARK                         _______ _______ _______ _____ _____    ______ ____
ROOT
ATOM      1  C   UNL     1       8.509   2.289  24.143  0.00  0.00    +0.121 C 
ENDROOT
BRANCH   1   2
ATOM      2  C   UNL     1       9.496   3.446  23.830  0.00  0.00    +0.024 A 
ATOM      3  C   UNL     1       9.047   4.788  23.800  0.00  0.00    +0.047 A 
ATOM      4  C   UNL     1       9.941   5.855  23.665  0.00  0.00    +0.124 A 
ATOM      5  F   UNL     1       9.469   7.107  23.660  0.00  0.00    -0.205 F 
ATOM      6  C   UNL     1      11.303   5.638  23.550  0.00  0.00    +0.041 A 
ATOM      7  C   UNL     1      11.765   4.330  23.488  0.00  0.00    +0.041 A 
ATOM      8  C   UNL     1      10.866   3.260  23.581  0.00  0.00    +0.130 A 
ATOM      9  F   UNL     1      11.374   2.036  23.398  0.00  0.00    -0.205 F 
ENDBRANCH   1   2
BRANCH   1  10
ATOM     10  C   UNL     1       8.046   1.373  22.932  0.00  0.00    +0.080 C 
ATOM     11  C   UNL     1       8.701   1.729  21.571  0.00  0.00    +0.018 C 
BRANCH  10  12
ATOM     12  C   UNL     1       8.336  -0.130  23.106  0.00  0.00    +0.085 A 
ATOM     13  S   UNL     1       9.786  -0.800  22.450  0.00  0.00    -0.080 S 
ATOM     14  C   UNL     1       9.597  -2.178  23.452  0.00  0.00    +0.075 A 
ATOM     15  C   UNL     1       8.415  -2.101  24.163  0.00  0.00    +0.078 A 
ATOM     16  N   UNL     1       7.688  -0.938  23.932  0.00  0.00    -0.244 NA
BRANCH  15  17
ATOM     17  C   UNL     1       8.003  -3.102  25.152  0.00  0.00    +0.001 A 
ATOM     18  C   UNL     1       6.799  -2.949  25.857  0.00  0.00    +0.011 A 
ATOM     19  C   UNL     1       6.425  -3.869  26.852  0.00  0.00    +0.019 A 
ATOM     20  C   UNL     1       7.243  -4.963  27.152  0.00  0.00    +0.052 A 
ATOM     21  C   UNL     1       8.434  -5.134  26.446  0.00  0.00    +0.019 A 
ATOM     22  C   UNL     1       8.807  -4.211  25.456  0.00  0.00    +0.011 A 
BRANCH  20  23
ATOM     23  C   UNL     1       6.853  -5.897  28.174  0.00  0.00    +0.099 C 
ATOM     24  N   UNL     1       6.552  -6.656  29.000  0.00  0.00    -0.191 NA
ENDBRANCH  20  23
ENDBRANCH  15  17
ENDBRANCH  10  12
ENDBRANCH   1  10
BRANCH   1  25
ATOM     25  O   UNL     1       9.244   1.396  25.026  0.00  0.00    -0.381 OA
ATOM     26  H   UNL     1       9.322   1.770  25.916  0.00  0.00    +0.211 HD
ENDBRANCH   1  25
BRANCH   1  27
ATOM     27  C   UNL     1       7.308   2.836  24.977  0.00  0.00    +0.185 C 
BRANCH  27  28
ATOM     28  N   UNL     1       6.370   1.866  25.494  0.00  0.00    -0.249 N 
ATOM     29  N   UNL     1       6.654   1.124  26.575  0.00  0.00    -0.158 NA
ATOM     30  C   UNL     1       5.504   0.465  26.752  0.00  0.00    +0.244 A 
ATOM     31  N   UNL     1       4.521   0.759  25.851  0.00  0.00    -0.223 NA
ATOM     32  C   UNL     1       5.090   1.653  25.076  0.00  0.00    +0.219 A 
ENDBRANCH  27  28
ENDBRANCH   1  27
TORSDOF 8
ENDMDL
MODEL 4
REMARK VINA RESULT:      -7.1      4.479      9.254
REMARK  Name = 
REMARK  9 active torsions:
REMARK  status: ('A' for Active; 'I' for Inactive)
REMARK    1  A    between atoms: C_2  and  C_3
REMARK    2  A    between atoms: C_2  and  C_4
REMARK    3  A    between atoms: C_2  and  C_17
REMARK    4  A    between atoms: C_6  and  C_9
REMARK    5  A    between atoms: C_12  and  C_15
REMARK    6  A    between atoms: C_17  and  O_18
REMARK    7  A    between atoms: C_17  and  C_19
REMARK    8  A    between atoms: C_17  and  C_25
REMARK    9  A    between atoms: C_19  and  N_20
REMARK                            x       y       z     vdW  Elec       q    Type
REMARK                         _______ _______ _______ _____ _____    ______ ____
ROOT
ATOM      1  C   UNL     1       5.138  -5.676  23.850  0.00  0.00    +0.121 C 
ENDROOT
BRANCH   1   2
ATOM      2  C   UNL     1       5.100  -5.467  25.388  0.00  0.00    +0.024 A 
ATOM      3  C   UNL     1       5.121  -6.577  26.267  0.00  0.00    +0.047 A 
ATOM      4  C   UNL     1       5.234  -6.411  27.651  0.00  0.00    +0.124 A 
ATOM      5  F   UNL     1       5.268  -7.493  28.439  0.00  0.00    -0.205 F 
ATOM      6  C   UNL     1       5.325  -5.151  28.216  0.00  0.00    +0.041 A 
ATOM      7  C   UNL     1       5.219  -4.042  27.388  0.00  0.00    +0.041 A 
ATOM      8  C   UNL     1       5.063  -4.206  26.006  0.00  0.00    +0.130 A 
ATOM      9  F   UNL     1       4.854  -3.094  25.292  0.00  0.00    -0.205 F 
ENDBRANCH   1   2
BRANCH   1  10
ATOM     10  C   UNL     1       6.536  -5.492  23.120  0.00  0.00    +0.080 C 
ATOM     11  C   UNL     1       6.446  -4.843  21.714  0.00  0.00    +0.018 C 
BRANCH  10  12
ATOM     12  C   UNL     1       7.552  -4.612  23.875  0.00  0.00    +0.085 A 
ATOM     13  S   UNL     1       8.801  -5.357  24.805  0.00  0.00    -0.080 S 
ATOM     14  C   UNL     1       9.668  -3.878  24.817  0.00  0.00    +0.075 A 
ATOM     15  C   UNL     1       8.938  -2.884  24.194  0.00  0.00    +0.078 A 
ATOM     16  N   UNL     1       7.715  -3.310  23.687  0.00  0.00    -0.244 NA
BRANCH  15  17
ATOM     17  C   UNL     1       9.441  -1.522  23.991  0.00  0.00    +0.001 A 
ATOM     18  C   UNL     1       9.677  -0.681  25.089  0.00  0.00    +0.011 A 
ATOM     19  C   UNL     1      10.098   0.647  24.903  0.00  0.00    +0.019 A 
ATOM     20  C   UNL     1      10.300   1.154  23.616  0.00  0.00    +0.052 A 
ATOM     21  C   UNL     1      10.084   0.323  22.517  0.00  0.00    +0.019 A 
ATOM     22  C   UNL     1       9.659  -1.002  22.706  0.00  0.00    +0.011 A 
BRANCH  20  23
ATOM     23  C   UNL     1      10.729   2.516  23.435  0.00  0.00    +0.099 C 
ATOM     24  N   UNL     1      11.079   3.612  23.276  0.00  0.00    -0.191 NA
ENDBRANCH  20  23
ENDBRANCH  15  17
ENDBRANCH  10  12
ENDBRANCH   1  10
BRANCH   1  25
ATOM     25  O   UNL     1       4.796  -7.076  23.653  0.00  0.00    -0.381 OA
ATOM     26  H   UNL     1       4.386  -7.217  22.787  0.00  0.00    +0.211 HD
ENDBRANCH   1  25
BRANCH   1  27
ATOM     27  C   UNL     1       3.997  -4.848  23.180  0.00  0.00    +0.185 C 
BRANCH  27  28
ATOM     28  N   UNL     1       2.656  -5.377  23.278  0.00  0.00    -0.249 N 
ATOM     29  N   UNL     1       2.246  -6.395  22.506  0.00  0.00    -0.158 NA
ATOM     30  C   UNL     1       1.020  -6.617  22.992  0.00  0.00    +0.244 A 
ATOM     31  N   UNL     1       0.648  -5.803  24.023  0.00  0.00    -0.223 NA
ATOM     32  C   UNL     1       1.702  -5.040  24.191  0.00  0.00    +0.219 A 
ENDBRANCH  27  28
ENDBRANCH   1  27
TORSDOF 8
ENDMDL
MODEL 5
REMARK VINA RESULT:      -7.1      4.121      9.020
REMARK  Name = 
REMARK  9 active torsions:
REMARK  status: ('A' for Active; 'I' for Inactive)
REMARK    1  A    between atoms: C_2  and  C_3
REMARK    2  A    between atoms: C_2  and  C_4
REMARK    3  A    between atoms: C_2  and  C_17
REMARK    4  A    between atoms: C_6  and  C_9
REMARK    5  A    between atoms: C_12  and  C_15
REMARK    6  A    between atoms: C_17  and  O_18
REMARK    7  A    between atoms: C_17  and  C_19
REMARK    8  A    between atoms: C_17  and  C_25
REMARK    9  A    between atoms: C_19  and  N_20
REMARK                            x       y       z     vdW  Elec       q    Type
REMARK                         _______ _______ _______ _____ _____    ______ ____
ROOT
ATOM      1  C   UNL     1       6.796  -3.503  25.114  0.00  0.00    +0.121 C 
ENDROOT
BRANCH   1   2
ATOM      2  C   UNL     1       6.310  -4.721  25.947  0.00  0.00    +0.024 A 
ATOM      3  C   UNL     1       6.659  -4.845  27.313  0.00  0.00    +0.047 A 
ATOM      4  C   UNL     1       6.116  -5.851  28.117  0.00  0.00    +0.124 A 
ATOM      5  F   UNL     1       6.464  -5.916  29.408  0.00  0.00    -0.205 F 
ATOM      6  C   UNL     1       5.216  -6.770  27.606  0.00  0.00    +0.041 A 
ATOM      7  C   UNL     1       4.921  -6.727  26.250  0.00  0.00    +0.041 A 
ATOM      8  C   UNL     1       5.498  -5.745  25.433  0.00  0.00    +0.130 A 
ATOM      9  F   UNL     1       5.254  -5.841  24.121  0.00  0.00    -0.205 F 
ENDBRANCH   1   2
BRANCH   1  10
ATOM     10  C   UNL     1       5.706  -2.440  24.666  0.00  0.00    +0.080 C 
ATOM     11  C   UNL     1       4.316  -2.626  25.330  0.00  0.00    +0.018 C 
BRANCH  10  12
ATOM     12  C   UNL     1       6.069  -0.972  24.965  0.00  0.00    +0.085 A 
ATOM     13  S   UNL     1       5.494  -0.229  26.413  0.00  0.00    -0.080 S 
ATOM     14  C   UNL     1       6.666   1.011  26.237  0.00  0.00    +0.075 A 
ATOM     15  C   UNL     1       7.370   0.847  25.060  0.00  0.00    +0.078 A 
ATOM     16  N   UNL     1       6.997  -0.274  24.326  0.00  0.00    -0.244 NA
BRANCH  15  17
ATOM     17  C   UNL     1       8.482   1.714  24.658  0.00  0.00    +0.001 A 
ATOM     18  C   UNL     1       8.308   3.104  24.587  0.00  0.00    +0.011 A 
ATOM     19  C   UNL     1       9.347   3.939  24.142  0.00  0.00    +0.019 A 
ATOM     20  C   UNL     1      10.583   3.399  23.772  0.00  0.00    +0.052 A 
ATOM     21  C   UNL     1      10.773   2.020  23.854  0.00  0.00    +0.019 A 
ATOM     22  C   UNL     1       9.730   1.188  24.294  0.00  0.00    +0.011 A 
BRANCH  20  23
ATOM     23  C   UNL     1      11.640   4.261  23.315  0.00  0.00    +0.099 C 
ATOM     24  N   UNL     1      12.498   4.947  22.937  0.00  0.00    -0.191 NA
ENDBRANCH  20  23
ENDBRANCH  15  17
ENDBRANCH  10  12
ENDBRANCH   1  10
BRANCH   1  25
ATOM     25  O   UNL     1       7.687  -2.772  26.002  0.00  0.00    -0.381 OA
ATOM     26  H   UNL     1       7.373  -2.806  26.918  0.00  0.00    +0.211 HD
ENDBRANCH   1  25
BRANCH   1  27
ATOM     27  C   UNL     1       7.676  -4.000  23.924  0.00  0.00    +0.185 C 
BRANCH  27  28
ATOM     28  N   UNL     1       8.589  -3.046  23.339  0.00  0.00    -0.249 N 
ATOM     29  N   UNL     1       9.822  -2.860  23.835  0.00  0.00    -0.158 NA
ATOM     30  C   UNL     1      10.335  -1.997  22.952  0.00  0.00    +0.244 A 
ATOM     31  N   UNL     1       9.497  -1.641  21.934  0.00  0.00    -0.223 NA
ATOM     32  C   UNL     1       8.409  -2.326  22.195  0.00  0.00    +0.219 A 
ENDBRANCH  27  28
ENDBRANCH   1  27
TORSDOF 8
ENDMDL
MODEL 6
REMARK VINA RESULT:      -7.0      2.686      4.326
REMARK  Name = 
REMARK  9 active torsions:
REMARK  status: ('A' for Active; 'I' for Inactive)
REMARK    1  A    between atoms: C_2  and  C_3
REMARK    2  A    between atoms: C_2  and  C_4
REMARK    3  A    between atoms: C_2  and  C_17
REMARK    4  A    between atoms: C_6  and  C_9
REMARK    5  A    between atoms: C_12  and  C_15
REMARK    6  A    between atoms: C_17  and  O_18
REMARK    7  A    between atoms: C_17  and  C_19
REMARK    8  A    between atoms: C_17  and  C_25
REMARK    9  A    between atoms: C_19  and  N_20
REMARK                            x       y       z     vdW  Elec       q    Type
REMARK                         _______ _______ _______ _____ _____    ______ ____
ROOT
ATOM      1  C   UNL     1       7.575   1.372  23.072  0.00  0.00    +0.121 C 
ENDROOT
BRANCH   1   2
ATOM      2  C   UNL     1       7.263   0.719  24.446  0.00  0.00    +0.024 A 
ATOM      3  C   UNL     1       5.950   0.295  24.760  0.00  0.00    +0.047 A 
ATOM      4  C   UNL     1       5.675  -0.424  25.928  0.00  0.00    +0.124 A 
ATOM      5  F   UNL     1       4.419  -0.818  26.172  0.00  0.00    -0.205 F 
ATOM      6  C   UNL     1       6.678  -0.746  26.825  0.00  0.00    +0.041 A 
ATOM      7  C   UNL     1       7.960  -0.268  26.587  0.00  0.00    +0.041 A 
ATOM      8  C   UNL     1       8.229   0.489  25.440  0.00  0.00    +0.130 A 
ATOM      9  F   UNL     1       9.458   1.007  25.341  0.00  0.00    -0.205 F 
ENDBRANCH   1   2
BRANCH   1  10
ATOM     10  C   UNL     1       8.493   0.557  22.065  0.00  0.00    +0.080 C 
ATOM     11  C   UNL     1       9.945   1.091  21.944  0.00  0.00    +0.018 C 
BRANCH  10  12
ATOM     12  C   UNL     1       8.671  -0.935  22.410  0.00  0.00    +0.085 A 
ATOM     13  S   UNL     1      10.168  -1.484  23.073  0.00  0.00    -0.080 S 
ATOM     14  C   UNL     1       9.400  -2.923  23.603  0.00  0.00    +0.075 A 
ATOM     15  C   UNL     1       8.084  -2.951  23.184  0.00  0.00    +0.078 A 
ATOM     16  N   UNL     1       7.689  -1.821  22.475  0.00  0.00    -0.244 NA
BRANCH  15  17
ATOM     17  C   UNL     1       7.149  -4.025  23.534  0.00  0.00    +0.001 A 
ATOM     18  C   UNL     1       6.761  -4.971  22.573  0.00  0.00    +0.011 A 
ATOM     19  C   UNL     1       5.818  -5.966  22.880  0.00  0.00    +0.019 A 
ATOM     20  C   UNL     1       5.254  -6.040  24.158  0.00  0.00    +0.052 A 
ATOM     21  C   UNL     1       5.644  -5.115  25.127  0.00  0.00    +0.019 A 
ATOM     22  C   UNL     1       6.583  -4.119  24.815  0.00  0.00    +0.011 A 
BRANCH  20  23
ATOM     23  C   UNL     1       4.287  -7.061  24.463  0.00  0.00    +0.099 C 
ATOM     24  N   UNL     1       3.512  -7.886  24.722  0.00  0.00    -0.191 NA
ENDBRANCH  20  23
ENDBRANCH  15  17
ENDBRANCH  10  12
ENDBRANCH   1  10
BRANCH   1  25
ATOM     25  O   UNL     1       6.287   1.473  22.403  0.00  0.00    -0.381 OA
ATOM     26  H   UNL     1       5.877   2.335  22.564  0.00  0.00    +0.211 HD
ENDBRANCH   1  25
BRANCH   1  27
ATOM     27  C   UNL     1       8.072   2.836  23.287  0.00  0.00    +0.185 C 
BRANCH  27  28
ATOM     28  N   UNL     1       7.101   3.892  23.118  0.00  0.00    -0.249 N 
ATOM     29  N   UNL     1       6.002   3.964  23.884  0.00  0.00    -0.158 NA
ATOM     30  C   UNL     1       5.463   5.114  23.467  0.00  0.00    +0.244 A 
ATOM     31  N   UNL     1       6.165   5.764  22.492  0.00  0.00    -0.223 NA
ATOM     32  C   UNL     1       7.199   4.978  22.300  0.00  0.00    +0.219 A 
ENDBRANCH  27  28
ENDBRANCH   1  27
TORSDOF 8
ENDMDL
MODEL 7
REMARK VINA RESULT:      -7.0      2.222      2.888
REMARK  Name = 
REMARK  9 active torsions:
REMARK  status: ('A' for Active; 'I' for Inactive)
REMARK    1  A    between atoms: C_2  and  C_3
REMARK    2  A    between atoms: C_2  and  C_4
REMARK    3  A    between atoms: C_2  and  C_17
REMARK    4  A    between atoms: C_6  and  C_9
REMARK    5  A    between atoms: C_12  and  C_15
REMARK    6  A    between atoms: C_17  and  O_18
REMARK    7  A    between atoms: C_17  and  C_19
REMARK    8  A    between atoms: C_17  and  C_25
REMARK    9  A    between atoms: C_19  and  N_20
REMARK                            x       y       z     vdW  Elec       q    Type
REMARK                         _______ _______ _______ _____ _____    ______ ____
ROOT
ATOM      1  C   UNL     1       7.692   1.963  23.456  0.00  0.00    +0.121 C 
ENDROOT
BRANCH   1   2
ATOM      2  C   UNL     1       7.919   3.489  23.637  0.00  0.00    +0.024 A 
ATOM      3  C   UNL     1       8.491   3.996  24.828  0.00  0.00    +0.047 A 
ATOM      4  C   UNL     1       8.837   5.344  24.956  0.00  0.00    +0.124 A 
ATOM      5  F   UNL     1       9.393   5.772  26.096  0.00  0.00    -0.205 F 
ATOM      6  C   UNL     1       8.629   6.239  23.920  0.00  0.00    +0.041 A 
ATOM      7  C   UNL     1       7.989   5.790  22.773  0.00  0.00    +0.041 A 
ATOM      8  C   UNL     1       7.603   4.448  22.660  0.00  0.00    +0.130 A 
ATOM      9  F   UNL     1       6.892   4.121  21.576  0.00  0.00    -0.205 F 
ENDBRANCH   1   2
BRANCH   1  10
ATOM     10  C   UNL     1       8.526   1.229  22.322  0.00  0.00    +0.080 C 
ATOM     11  C   UNL     1       9.945   1.811  22.089  0.00  0.00    +0.018 C 
BRANCH  10  12
ATOM     12  C   UNL     1       8.774  -0.272  22.566  0.00  0.00    +0.085 A 
ATOM     13  S   UNL     1      10.311  -0.800  23.147  0.00  0.00    -0.080 S 
ATOM     14  C   UNL     1       9.618  -2.299  23.608  0.00  0.00    +0.075 A 
ATOM     15  C   UNL     1       8.291  -2.356  23.227  0.00  0.00    +0.078 A 
ATOM     16  N   UNL     1       7.829  -1.201  22.604  0.00  0.00    -0.244 NA
BRANCH  15  17
ATOM     17  C   UNL     1       7.411  -3.487  23.537  0.00  0.00    +0.001 A 
ATOM     18  C   UNL     1       7.162  -4.477  22.575  0.00  0.00    +0.011 A 
ATOM     19  C   UNL     1       6.271  -5.531  22.838  0.00  0.00    +0.019 A 
ATOM     20  C   UNL     1       5.622  -5.620  24.074  0.00  0.00    +0.052 A 
ATOM     21  C   UNL     1       5.874  -4.650  25.044  0.00  0.00    +0.019 A 
ATOM     22  C   UNL     1       6.761  -3.596  24.776  0.00  0.00    +0.011 A 
BRANCH  20  23
ATOM     23  C   UNL     1       4.709  -6.701  24.334  0.00  0.00    +0.099 C 
ATOM     24  N   UNL     1       3.969  -7.568  24.556  0.00  0.00    -0.191 NA
ENDBRANCH  20  23
ENDBRANCH  15  17
ENDBRANCH  10  12
ENDBRANCH   1  10
BRANCH   1  25
ATOM     25  O   UNL     1       8.149   1.365  24.701  0.00  0.00    -0.381 OA
ATOM     26  H   UNL     1       7.726   1.784  25.465  0.00  0.00    +0.211 HD
ENDBRANCH   1  25
BRANCH   1  27
ATOM     27  C   UNL     1       6.162   1.668  23.363  0.00  0.00    +0.185 C 
BRANCH  27  28
ATOM     28  N   UNL     1       5.500   1.245  24.575  0.00  0.00    -0.249 N 
ATOM     29  N   UNL     1       5.579  -0.022  25.013  0.00  0.00    -0.158 NA
ATOM     30  C   UNL     1       4.931   0.060  26.179  0.00  0.00    +0.244 A 
ATOM     31  N   UNL     1       4.460   1.302  26.495  0.00  0.00    -0.223 NA
ATOM     32  C   UNL     1       4.843   2.032  25.474  0.00  0.00    +0.219 A 
ENDBRANCH  27  28
ENDBRANCH   1  27
TORSDOF 8
ENDMDL
MODEL 8
REMARK VINA RESULT:      -7.0      3.394      8.218
REMARK  Name = 
REMARK  9 active torsions:
REMARK  status: ('A' for Active; 'I' for Inactive)
REMARK    1  A    between atoms: C_2  and  C_3
REMARK    2  A    between atoms: C_2  and  C_4
REMARK    3  A    between atoms: C_2  and  C_17
REMARK    4  A    between atoms: C_6  and  C_9
REMARK    5  A    between atoms: C_12  and  C_15
REMARK    6  A    between atoms: C_17  and  O_18
REMARK    7  A    between atoms: C_17  and  C_19
REMARK    8  A    between atoms: C_17  and  C_25
REMARK    9  A    between atoms: C_19  and  N_20
REMARK                            x       y       z     vdW  Elec       q    Type
REMARK                         _______ _______ _______ _____ _____    ______ ____
ROOT
ATOM      1  C   UNL     1       7.454  -4.539  25.708  0.00  0.00    +0.121 C 
ENDROOT
BRANCH   1   2
ATOM      2  C   UNL     1       6.910  -3.107  25.963  0.00  0.00    +0.024 A 
ATOM      3  C   UNL     1       7.672  -2.168  26.699  0.00  0.00    +0.047 A 
ATOM      4  C   UNL     1       7.269  -0.834  26.818  0.00  0.00    +0.124 A 
ATOM      5  F   UNL     1       8.034   0.021  27.509  0.00  0.00    -0.205 F 
ATOM      6  C   UNL     1       6.105  -0.380  26.222  0.00  0.00    +0.041 A 
ATOM      7  C   UNL     1       5.293  -1.297  25.568  0.00  0.00    +0.041 A 
ATOM      8  C   UNL     1       5.673  -2.643  25.485  0.00  0.00    +0.130 A 
ATOM      9  F   UNL     1       4.785  -3.482  24.940  0.00  0.00    -0.205 F 
ENDBRANCH   1   2
BRANCH   1  10
ATOM     10  C   UNL     1       8.129  -4.825  24.299  0.00  0.00    +0.080 C 
ATOM     11  C   UNL     1       7.381  -5.869  23.430  0.00  0.00    +0.018 C 
BRANCH  10  12
ATOM     12  C   UNL     1       8.258  -3.595  23.379  0.00  0.00    +0.085 A 
ATOM     13  S   UNL     1       7.085  -3.330  22.140  0.00  0.00    -0.080 S 
ATOM     14  C   UNL     1       7.599  -1.700  22.009  0.00  0.00    +0.075 A 
ATOM     15  C   UNL     1       8.676  -1.463  22.841  0.00  0.00    +0.078 A 
ATOM     16  N   UNL     1       9.063  -2.566  23.596  0.00  0.00    -0.244 NA
BRANCH  15  17
ATOM     17  C   UNL     1       9.301  -0.146  22.997  0.00  0.00    +0.001 A 
ATOM     18  C   UNL     1       9.446   0.707  21.892  0.00  0.00    +0.011 A 
ATOM     19  C   UNL     1      10.099   1.944  22.018  0.00  0.00    +0.019 A 
ATOM     20  C   UNL     1      10.610   2.356  23.252  0.00  0.00    +0.052 A 
ATOM     21  C   UNL     1      10.458   1.524  24.361  0.00  0.00    +0.019 A 
ATOM     22  C   UNL     1       9.809   0.286  24.232  0.00  0.00    +0.011 A 
BRANCH  20  23
ATOM     23  C   UNL     1      11.280   3.623  23.371  0.00  0.00    +0.099 C 
ATOM     24  N   UNL     1      11.834   4.640  23.467  0.00  0.00    -0.191 NA
ENDBRANCH  20  23
ENDBRANCH  15  17
ENDBRANCH  10  12
ENDBRANCH   1  10
BRANCH   1  25
ATOM     25  O   UNL     1       8.526  -4.712  26.676  0.00  0.00    -0.381 OA
ATOM     26  H   UNL     1       8.900  -3.858  26.939  0.00  0.00    +0.211 HD
ENDBRANCH   1  25
BRANCH   1  27
ATOM     27  C   UNL     1       6.359  -5.589  26.074  0.00  0.00    +0.185 C 
BRANCH  27  28
ATOM     28  N   UNL     1       6.017  -5.722  27.471  0.00  0.00    -0.249 N 
ATOM     29  N   UNL     1       6.875  -6.253  28.356  0.00  0.00    -0.158 NA
ATOM     30  C   UNL     1       6.209  -6.087  29.503  0.00  0.00    +0.244 A 
ATOM     31  N   UNL     1       4.992  -5.477  29.384  0.00  0.00    -0.223 NA
ATOM     32  C   UNL     1       4.902  -5.247  28.096  0.00  0.00    +0.219 A 
ENDBRANCH  27  28
ENDBRANCH   1  27
TORSDOF 8
ENDMDL
MODEL 9
REMARK VINA RESULT:      -6.9      3.428      8.739
REMARK  Name = 
REMARK  9 active torsions:
REMARK  status: ('A' for Active; 'I' for Inactive)
REMARK    1  A    between atoms: C_2  and  C_3
REMARK    2  A    between atoms: C_2  and  C_4
REMARK    3  A    between atoms: C_2  and  C_17
REMARK    4  A    between atoms: C_6  and  C_9
REMARK    5  A    between atoms: C_12  and  C_15
REMARK    6  A    between atoms: C_17  and  O_18
REMARK    7  A    between atoms: C_17  and  C_19
REMARK    8  A    between atoms: C_17  and  C_25
REMARK    9  A    between atoms: C_19  and  N_20
REMARK                            x       y       z     vdW  Elec       q    Type
REMARK                         _______ _______ _______ _____ _____    ______ ____
ROOT
ATOM      1  C   UNL     1       6.584  -3.960  25.554  0.00  0.00    +0.121 C 
ENDROOT
BRANCH   1   2
ATOM      2  C   UNL     1       6.487  -4.128  24.013  0.00  0.00    +0.024 A 
ATOM      3  C   UNL     1       6.904  -5.330  23.392  0.00  0.00    +0.047 A 
ATOM      4  C   UNL     1       6.692  -5.560  22.029  0.00  0.00    +0.124 A 
ATOM      5  F   UNL     1       7.089  -6.720  21.492  0.00  0.00    -0.205 F 
ATOM      6  C   UNL     1       6.068  -4.616  21.232  0.00  0.00    +0.041 A 
ATOM      7  C   UNL     1       5.727  -3.393  21.793  0.00  0.00    +0.041 A 
ATOM      8  C   UNL     1       5.977  -3.145  23.149  0.00  0.00    +0.130 A 
ATOM      9  F   UNL     1       5.725  -1.906  23.585  0.00  0.00    -0.205 F 
ENDBRANCH   1   2
BRANCH   1  10
ATOM     10  C   UNL     1       7.952  -3.411  26.145  0.00  0.00    +0.080 C 
ATOM     11  C   UNL     1       9.044  -4.494  26.349  0.00  0.00    +0.018 C 
BRANCH  10  12
ATOM     12  C   UNL     1       8.646  -2.336  25.286  0.00  0.00    +0.085 A 
ATOM     13  S   UNL     1       9.818  -2.810  24.110  0.00  0.00    -0.080 S 
ATOM     14  C   UNL     1       9.667  -1.280  23.350  0.00  0.00    +0.075 A 
ATOM     15  C   UNL     1       8.809  -0.467  24.065  0.00  0.00    +0.078 A 
ATOM     16  N   UNL     1       8.256  -1.073  25.189  0.00  0.00    -0.244 NA
BRANCH  15  17
ATOM     17  C   UNL     1       8.429   0.882  23.634  0.00  0.00    +0.001 A 
ATOM     18  C   UNL     1       7.785   1.079  22.403  0.00  0.00    +0.011 A 
ATOM     19  C   UNL     1       7.474   2.372  21.951  0.00  0.00    +0.019 A 
ATOM     20  C   UNL     1       7.791   3.491  22.727  0.00  0.00    +0.052 A 
ATOM     21  C   UNL     1       8.416   3.307  23.960  0.00  0.00    +0.019 A 
ATOM     22  C   UNL     1       8.731   2.013  24.406  0.00  0.00    +0.011 A 
BRANCH  20  23
ATOM     23  C   UNL     1       7.471   4.812  22.255  0.00  0.00    +0.099 C 
ATOM     24  N   UNL     1       7.212   5.873  21.860  0.00  0.00    -0.191 NA
ENDBRANCH  20  23
ENDBRANCH  15  17
ENDBRANCH  10  12
ENDBRANCH   1  10
BRANCH   1  25
ATOM     25  O   UNL     1       5.600  -2.940  25.883  0.00  0.00    -0.381 OA
ATOM     26  H   UNL     1       4.981  -2.803  25.151  0.00  0.00    +0.211 HD
ENDBRANCH   1  25
BRANCH   1  27
ATOM     27  C   UNL     1       6.109  -5.270  26.256  0.00  0.00    +0.185 C 
BRANCH  27  28
ATOM     28  N   UNL     1       5.859  -5.201  27.677  0.00  0.00    -0.249 N 
ATOM     29  N   UNL     1       4.885  -4.429  28.181  0.00  0.00    -0.158 NA
ATOM     30  C   UNL     1       4.942  -4.745  29.479  0.00  0.00    +0.244 A 
ATOM     31  N   UNL     1       5.889  -5.672  29.810  0.00  0.00    -0.223 NA
ATOM     32  C   UNL     1       6.444  -5.952  28.654  0.00  0.00    +0.219 A 
ENDBRANCH  27  28
ENDBRANCH   1  27
TORSDOF 8
ENDMDL
