MODEL 1
REMARK VINA RESULT:      -3.7      0.000      0.000
REMARK  Name = 
REMARK  5 active torsions:
REMARK  status: ('A' for Active; 'I' for Inactive)
REMARK    1  A    between atoms: N_1  and  CA_2
REMARK    2  A    between atoms: CA_2  and  C_3
REMARK    3  A    between atoms: CA_2  and  C_6
REMARK    4  A    between atoms: C_3  and  O_4
REMARK    5  A    between atoms: C_6  and  O_7
REMARK                            x       y       z     vdW  Elec       q    Type
REMARK                         _______ _______ _______ _____ _____    ______ ____
ROOT
ATOM      1  CA  UNL     1       8.896  -5.042  25.296  0.00  0.00    +0.270 C 
ENDROOT
BRANCH   1   2
ATOM      2  N   UNL     1      10.296  -5.577  25.468  0.00  0.00    -0.309 NA
ATOM      3  H1  UNL     1      10.206  -6.571  25.722  0.00  0.00    +0.119 HD
ATOM      4  H2  UNL     1      10.688  -5.642  24.518  0.00  0.00    +0.119 HD
ENDBRANCH   1   2
BRANCH   1   5
ATOM      5  C   UNL     1       8.961  -3.802  24.426  0.00  0.00    +0.333 C 
ATOM      6  OXT UNL     1      10.007  -3.277  24.069  0.00  0.00    -0.249 OA
BRANCH   5   7
ATOM      7  O   UNL     1       7.730  -3.317  24.127  0.00  0.00    -0.479 OA
ATOM      8  H   UNL     1       7.115  -4.092  24.080  0.00  0.00    +0.295 HD
ENDBRANCH   5   7
ENDBRANCH   1   5
BRANCH   1   9
ATOM      9  C   UNL     1       8.221  -4.820  26.646  0.00  0.00    +0.333 C 
ATOM     10  O   UNL     1       7.908  -3.700  27.039  0.00  0.00    -0.249 OA
BRANCH   9  11
ATOM     11  O   UNL     1       8.035  -5.915  27.415  0.00  0.00    -0.479 OA
ATOM     12  H   UNL     1       7.153  -5.979  27.857  0.00  0.00    +0.295 HD
ENDBRANCH   9  11
ENDBRANCH   1   9
TORSDOF 5
ENDMDL
MODEL 2
REMARK VINA RESULT:      -3.7      4.758      6.048
REMARK  Name = 
REMARK  5 active torsions:
REMARK  status: ('A' for Active; 'I' for Inactive)
REMARK    1  A    between atoms: N_1  and  CA_2
REMARK    2  A    between atoms: CA_2  and  C_3
REMARK    3  A    between atoms: CA_2  and  C_6
REMARK    4  A    between atoms: C_3  and  O_4
REMARK    5  A    between atoms: C_6  and  O_7
REMARK                            x       y       z     vdW  Elec       q    Type
REMARK                         _______ _______ _______ _____ _____    ______ ____
ROOT
ATOM      1  CA  UNL     1      10.270   0.315  22.974  0.00  0.00    +0.270 C 
ENDROOT
BRANCH   1   2
ATOM      2  N   UNL     1       9.604   0.677  24.278  0.00  0.00    -0.309 NA
ATOM      3  H1  UNL     1       8.589   0.691  24.101  0.00  0.00    +0.119 HD
ATOM      4  H2  UNL     1       9.695  -0.155  24.878  0.00  0.00    +0.119 HD
ENDBRANCH   1   2
BRANCH   1   5
ATOM      5  C   UNL     1       9.684   1.187  21.880  0.00  0.00    +0.333 C 
ATOM      6  OXT UNL     1       8.711   0.871  21.209  0.00  0.00    -0.249 OA
BRANCH   5   7
ATOM      7  O   UNL     1      10.389   2.331  21.701  0.00  0.00    -0.479 OA
ATOM      8  H   UNL     1       9.948   2.834  20.969  0.00  0.00    +0.295 HD
ENDBRANCH   5   7
ENDBRANCH   1   5
BRANCH   1   9
ATOM      9  C   UNL     1      10.167  -1.182  22.700  0.00  0.00    +0.333 C 
ATOM     10  O   UNL     1      10.120  -2.007  23.608  0.00  0.00    -0.249 OA
BRANCH   9  11
ATOM     11  O   UNL     1      10.189  -1.560  21.404  0.00  0.00    -0.479 OA
ATOM     12  H   UNL     1       9.395  -2.060  21.093  0.00  0.00    +0.295 HD
ENDBRANCH   9  11
ENDBRANCH   1   9
TORSDOF 5
ENDMDL
MODEL 3
REMARK VINA RESULT:      -3.6      4.970      6.517
REMARK  Name = 
REMARK  5 active torsions:
REMARK  status: ('A' for Active; 'I' for Inactive)
REMARK    1  A    between atoms: N_1  and  CA_2
REMARK    2  A    between atoms: CA_2  and  C_3
REMARK    3  A    between atoms: CA_2  and  C_6
REMARK    4  A    between atoms: C_3  and  O_4
REMARK    5  A    between atoms: C_6  and  O_7
REMARK                            x       y       z     vdW  Elec       q    Type
REMARK                         _______ _______ _______ _____ _____    ______ ____
ROOT
ATOM      1  CA  UNL     1       9.572   0.357  22.985  0.00  0.00    +0.270 C 
ENDROOT
BRANCH   1   2
ATOM      2  N   UNL     1      10.705   0.774  23.889  0.00  0.00    -0.309 NA
ATOM      3  H1  UNL     1      11.282  -0.064  24.049  0.00  0.00    +0.119 HD
ATOM      4  H2  UNL     1      11.332   1.345  23.305  0.00  0.00    +0.119 HD
ENDBRANCH   1   2
BRANCH   1   5
ATOM      5  C   UNL     1       9.925  -0.978  22.359  0.00  0.00    +0.333 C 
ATOM      6  OXT UNL     1      10.343  -1.936  22.994  0.00  0.00    -0.249 OA
BRANCH   5   7
ATOM      7  O   UNL     1       9.768  -0.973  21.012  0.00  0.00    -0.479 OA
ATOM      8  H   UNL     1       9.111  -0.263  20.798  0.00  0.00    +0.295 HD
ENDBRANCH   5   7
ENDBRANCH   1   5
BRANCH   1   9
ATOM      9  C   UNL     1       9.242   1.451  21.974  0.00  0.00    +0.333 C 
ATOM     10  O   UNL     1       8.110   1.597  21.521  0.00  0.00    -0.249 OA
BRANCH   9  11
ATOM     11  O   UNL     1      10.273   2.217  21.556  0.00  0.00    -0.479 OA
ATOM     12  H   UNL     1      10.099   2.760  20.749  0.00  0.00    +0.295 HD
ENDBRANCH   9  11
ENDBRANCH   1   9
TORSDOF 5
ENDMDL
MODEL 4
REMARK VINA RESULT:      -3.6      2.048      2.853
REMARK  Name = 
REMARK  5 active torsions:
REMARK  status: ('A' for Active; 'I' for Inactive)
REMARK    1  A    between atoms: N_1  and  CA_2
REMARK    2  A    between atoms: CA_2  and  C_3
REMARK    3  A    between atoms: CA_2  and  C_6
REMARK    4  A    between atoms: C_3  and  O_4
REMARK    5  A    between atoms: C_6  and  O_7
REMARK                            x       y       z     vdW  Elec       q    Type
REMARK                         _______ _______ _______ _____ _____    ______ ____
ROOT
ATOM      1  CA  UNL     1       8.108  -4.777  25.972  0.00  0.00    +0.270 C 
ENDROOT
BRANCH   1   2
ATOM      2  N   UNL     1       8.087  -5.650  27.201  0.00  0.00    -0.309 NA
ATOM      3  H1  UNL     1       9.059  -5.717  27.536  0.00  0.00    +0.119 HD
ATOM      4  H2  UNL     1       7.655  -5.079  27.941  0.00  0.00    +0.119 HD
ENDBRANCH   1   2
BRANCH   1   5
ATOM      5  C   UNL     1       6.982  -5.214  25.055  0.00  0.00    +0.333 C 
ATOM      6  OXT UNL     1       5.908  -5.640  25.456  0.00  0.00    -0.249 OA
BRANCH   5   7
ATOM      7  O   UNL     1       7.318  -5.120  23.745  0.00  0.00    -0.479 OA
ATOM      8  H   UNL     1       8.189  -4.649  23.700  0.00  0.00    +0.295 HD
ENDBRANCH   5   7
ENDBRANCH   1   5
BRANCH   1   9
ATOM      9  C   UNL     1       9.484  -4.785  25.314  0.00  0.00    +0.333 C 
ATOM     10  O   UNL     1       9.810  -3.945  24.479  0.00  0.00    -0.249 OA
BRANCH   9  11
ATOM     11  O   UNL     1      10.309  -5.799  25.653  0.00  0.00    -0.479 OA
ATOM     12  H   UNL     1      11.275  -5.594  25.607  0.00  0.00    +0.295 HD
ENDBRANCH   9  11
ENDBRANCH   1   9
TORSDOF 5
ENDMDL
MODEL 5
REMARK VINA RESULT:      -3.5      1.959      2.436
REMARK  Name = 
REMARK  5 active torsions:
REMARK  status: ('A' for Active; 'I' for Inactive)
REMARK    1  A    between atoms: N_1  and  CA_2
REMARK    2  A    between atoms: CA_2  and  C_3
REMARK    3  A    between atoms: CA_2  and  C_6
REMARK    4  A    between atoms: C_3  and  O_4
REMARK    5  A    between atoms: C_6  and  O_7
REMARK                            x       y       z     vdW  Elec       q    Type
REMARK                         _______ _______ _______ _____ _____    ______ ____
ROOT
ATOM      1  CA  UNL     1       8.561  -4.641  26.585  0.00  0.00    +0.270 C 
ENDROOT
BRANCH   1   2
ATOM      2  N   UNL     1       8.099  -3.218  26.397  0.00  0.00    -0.309 NA
ATOM      3  H1  UNL     1       7.074  -3.220  26.505  0.00  0.00    +0.119 HD
ATOM      4  H2  UNL     1       8.393  -2.714  27.245  0.00  0.00    +0.119 HD
ENDBRANCH   1   2
BRANCH   1   5
ATOM      5  C   UNL     1       9.286  -5.079  25.327  0.00  0.00    +0.333 C 
ATOM      6  OXT UNL     1       8.785  -5.052  24.211  0.00  0.00    -0.249 OA
BRANCH   5   7
ATOM      7  O   UNL     1      10.531  -5.547  25.586  0.00  0.00    -0.479 OA
ATOM      8  H   UNL     1      10.464  -6.533  25.657  0.00  0.00    +0.295 HD
ENDBRANCH   5   7
ENDBRANCH   1   5
BRANCH   1   9
ATOM      9  C   UNL     1       7.402  -5.549  26.984  0.00  0.00    +0.333 C 
ATOM     10  O   UNL     1       7.254  -5.945  28.137  0.00  0.00    -0.249 OA
BRANCH   9  11
ATOM     11  O   UNL     1       6.575  -5.943  25.992  0.00  0.00    -0.479 OA
ATOM     12  H   UNL     1       7.020  -6.310  25.188  0.00  0.00    +0.295 HD
ENDBRANCH   9  11
ENDBRANCH   1   9
TORSDOF 5
ENDMDL
MODEL 6
REMARK VINA RESULT:      -3.5      1.121      3.063
REMARK  Name = 
REMARK  5 active torsions:
REMARK  status: ('A' for Active; 'I' for Inactive)
REMARK    1  A    between atoms: N_1  and  CA_2
REMARK    2  A    between atoms: CA_2  and  C_3
REMARK    3  A    between atoms: CA_2  and  C_6
REMARK    4  A    between atoms: C_3  and  O_4
REMARK    5  A    between atoms: C_6  and  O_7
REMARK                            x       y       z     vdW  Elec       q    Type
REMARK                         _______ _______ _______ _____ _____    ______ ____
ROOT
ATOM      1  CA  UNL     1       9.209  -4.544  25.668  0.00  0.00    +0.270 C 
ENDROOT
BRANCH   1   2
ATOM      2  N   UNL     1      10.281  -5.583  25.452  0.00  0.00    -0.309 NA
ATOM      3  H1  UNL     1       9.972  -6.173  24.666  0.00  0.00    +0.119 HD
ATOM      4  H2  UNL     1      11.075  -5.080  25.030  0.00  0.00    +0.119 HD
ENDBRANCH   1   2
BRANCH   1   5
ATOM      5  C   UNL     1       7.926  -5.255  26.054  0.00  0.00    +0.333 C 
ATOM      6  OXT UNL     1       6.886  -5.173  25.415  0.00  0.00    -0.249 OA
BRANCH   5   7
ATOM      7  O   UNL     1       8.051  -5.952  27.210  0.00  0.00    -0.479 OA
ATOM      8  H   UNL     1       7.964  -6.912  26.983  0.00  0.00    +0.295 HD
ENDBRANCH   5   7
ENDBRANCH   1   5
BRANCH   1   9
ATOM      9  C   UNL     1       9.073  -3.632  24.453  0.00  0.00    +0.333 C 
ATOM     10  O   UNL     1       9.432  -2.457  24.480  0.00  0.00    -0.249 OA
BRANCH   9  11
ATOM     11  O   UNL     1       8.485  -4.164  23.361  0.00  0.00    -0.479 OA
ATOM     12  H   UNL     1       7.573  -4.521  23.500  0.00  0.00    +0.295 HD
ENDBRANCH   9  11
ENDBRANCH   1   9
TORSDOF 5
ENDMDL
MODEL 7
REMARK VINA RESULT:      -3.5      5.661      6.657
REMARK  Name = 
REMARK  5 active torsions:
REMARK  status: ('A' for Active; 'I' for Inactive)
REMARK    1  A    between atoms: N_1  and  CA_2
REMARK    2  A    between atoms: CA_2  and  C_3
REMARK    3  A    between atoms: CA_2  and  C_6
REMARK    4  A    between atoms: C_3  and  O_4
REMARK    5  A    between atoms: C_6  and  O_7
REMARK                            x       y       z     vdW  Elec       q    Type
REMARK                         _______ _______ _______ _____ _____    ______ ____
ROOT
ATOM      1  CA  UNL     1       9.520   1.156  22.713  0.00  0.00    +0.270 C 
ENDROOT
BRANCH   1   2
ATOM      2  N   UNL     1       9.676   2.012  21.481  0.00  0.00    -0.309 NA
ATOM      3  H1  UNL     1      10.242   2.828  21.754  0.00  0.00    +0.119 HD
ATOM      4  H2  UNL     1      10.330   1.504  20.869  0.00  0.00    +0.119 HD
ENDBRANCH   1   2
BRANCH   1   5
ATOM      5  C   UNL     1      10.294   1.802  23.846  0.00  0.00    +0.333 C 
ATOM      6  OXT UNL     1      11.080   2.727  23.690  0.00  0.00    -0.249 OA
BRANCH   5   7
ATOM      7  O   UNL     1      10.050   1.209  25.040  0.00  0.00    -0.479 OA
ATOM      8  H   UNL     1      10.413   0.289  24.989  0.00  0.00    +0.295 HD
ENDBRANCH   5   7
ENDBRANCH   1   5
BRANCH   1   9
ATOM      9  C   UNL     1       9.918  -0.290  22.433  0.00  0.00    +0.333 C 
ATOM     10  O   UNL     1      10.378  -1.018  23.309  0.00  0.00    -0.249 OA
BRANCH   9  11
ATOM     11  O   UNL     1       9.795  -0.714  21.157  0.00  0.00    -0.479 OA
ATOM     12  H   UNL     1      10.599  -0.602  20.592  0.00  0.00    +0.295 HD
ENDBRANCH   9  11
ENDBRANCH   1   9
TORSDOF 5
ENDMDL
MODEL 8
REMARK VINA RESULT:      -3.5      5.460      6.684
REMARK  Name = 
REMARK  5 active torsions:
REMARK  status: ('A' for Active; 'I' for Inactive)
REMARK    1  A    between atoms: N_1  and  CA_2
REMARK    2  A    between atoms: CA_2  and  C_3
REMARK    3  A    between atoms: CA_2  and  C_6
REMARK    4  A    between atoms: C_3  and  O_4
REMARK    5  A    between atoms: C_6  and  O_7
REMARK                            x       y       z     vdW  Elec       q    Type
REMARK                         _______ _______ _______ _____ _____    ______ ____
ROOT
ATOM      1  CA  UNL     1      10.456   0.458  23.266  0.00  0.00    +0.270 C 
ENDROOT
BRANCH   1   2
ATOM      2  N   UNL     1      10.149  -1.011  23.411  0.00  0.00    -0.309 NA
ATOM      3  H1  UNL     1       9.771  -1.144  24.361  0.00  0.00    +0.119 HD
ATOM      4  H2  UNL     1       9.314  -1.180  22.833  0.00  0.00    +0.119 HD
ENDBRANCH   1   2
BRANCH   1   5
ATOM      5  C   UNL     1       9.970   1.174  24.511  0.00  0.00    +0.333 C 
ATOM      6  OXT UNL     1       9.485   2.297  24.503  0.00  0.00    -0.249 OA
BRANCH   5   7
ATOM      7  O   UNL     1      10.176   0.447  25.637  0.00  0.00    -0.479 OA
ATOM      8  H   UNL     1      10.185  -0.507  25.370  0.00  0.00    +0.295 HD
ENDBRANCH   5   7
ENDBRANCH   1   5
BRANCH   1   9
ATOM      9  C   UNL     1       9.884   1.014  21.965  0.00  0.00    +0.333 C 
ATOM     10  O   UNL     1       9.184   0.333  21.220  0.00  0.00    -0.249 OA
BRANCH   9  11
ATOM     11  O   UNL     1      10.233   2.278  21.644  0.00  0.00    -0.479 OA
ATOM     12  H   UNL     1      10.976   2.661  22.172  0.00  0.00    +0.295 HD
ENDBRANCH   9  11
ENDBRANCH   1   9
TORSDOF 5
ENDMDL
MODEL 9
REMARK VINA RESULT:      -3.4      5.580      6.348
REMARK  Name = 
REMARK  5 active torsions:
REMARK  status: ('A' for Active; 'I' for Inactive)
REMARK    1  A    between atoms: N_1  and  CA_2
REMARK    2  A    between atoms: CA_2  and  C_3
REMARK    3  A    between atoms: CA_2  and  C_6
REMARK    4  A    between atoms: C_3  and  O_4
REMARK    5  A    between atoms: C_6  and  O_7
REMARK                            x       y       z     vdW  Elec       q    Type
REMARK                         _______ _______ _______ _____ _____    ______ ____
ROOT
ATOM      1  CA  UNL     1      10.234   1.057  22.725  0.00  0.00    +0.270 C 
ENDROOT
BRANCH   1   2
ATOM      2  N   UNL     1       9.885   2.075  21.668  0.00  0.00    -0.309 NA
ATOM      3  H1  UNL     1      10.584   2.829  21.738  0.00  0.00    +0.119 HD
ATOM      4  H2  UNL     1      10.139   1.643  20.769  0.00  0.00    +0.119 HD
ENDBRANCH   1   2
BRANCH   1   5
ATOM      5  C   UNL     1       9.475  -0.222  22.426  0.00  0.00    +0.333 C 
ATOM      6  OXT UNL     1       8.679  -0.735  23.199  0.00  0.00    -0.249 OA
BRANCH   5   7
ATOM      7  O   UNL     1       9.815  -0.754  21.226  0.00  0.00    -0.479 OA
ATOM      8  H   UNL     1      10.350  -0.072  20.745  0.00  0.00    +0.295 HD
ENDBRANCH   5   7
ENDBRANCH   1   5
BRANCH   1   9
ATOM      9  C   UNL     1       9.992   1.611  24.125  0.00  0.00    +0.333 C 
ATOM     10  O   UNL     1       9.536   2.736  24.309  0.00  0.00    -0.249 OA
BRANCH   9  11
ATOM     11  O   UNL     1      10.360   0.822  25.158  0.00  0.00    -0.479 OA
ATOM     12  H   UNL     1      11.254   0.408  25.079  0.00  0.00    +0.295 HD
ENDBRANCH   9  11
ENDBRANCH   1   9
TORSDOF 5
ENDMDL
