MODEL 1
REMARK VINA RESULT:      -5.2      0.000      0.000
REMARK  Name = 
REMARK  11 active torsions:
REMARK  status: ('A' for Active; 'I' for Inactive)
REMARK    1  A    between atoms: N_1  and  C_2
REMARK    2  A    between atoms: C_2  and  C_3
REMARK    3  A    between atoms: C_3  and  N_4
REMARK    4  A    between atoms: N_4  and  C_5
REMARK    5  A    between atoms: C_5  and  C_6
REMARK    6  A    between atoms: C_6  and  N_8
REMARK    7  A    between atoms: C_6  and  C_9
REMARK    8  A    between atoms: C_9  and  C_10
REMARK    9  A    between atoms: C_10  and  C_11
REMARK   10  A    between atoms: C_11  and  N_12
REMARK   11  A    between atoms: N_15  and  N_16
REMARK                            x       y       z     vdW  Elec       q    Type
REMARK                         _______ _______ _______ _____ _____    ______ ____
ROOT
ATOM      1  C   UNL     1       8.100  -4.585  26.256  0.00  0.00    +0.023 C 
ENDROOT
BRANCH   1   2
ATOM      2  C   UNL     1       9.009  -4.859  25.048  0.00  0.00    +0.065 C 
BRANCH   2   3
ATOM      3  N   UNL     1      10.335  -5.350  25.464  0.00  0.00    -0.326 NA
ATOM      4  H   UNL     1      10.930  -4.559  25.705  0.00  0.00    +0.119 HD
ATOM      5  H   UNL     1      10.215  -5.856  26.342  0.00  0.00    +0.119 HD
ENDBRANCH   2   3
BRANCH   2   6
ATOM      6  C   UNL     1       9.147  -3.561  24.207  0.00  0.00    +0.099 C 
BRANCH   6   7
ATOM      7  N   UNL     1       7.921  -3.290  23.442  0.00  0.00    -0.313 NA
ATOM      8  H   UNL     1       7.588  -4.178  23.069  0.00  0.00    +0.122 HD
BRANCH   7   9
ATOM      9  C   UNL     1       8.204  -2.390  22.317  0.00  0.00    +0.096 C 
BRANCH   9  10
ATOM     10  C   UNL     1       9.608  -1.779  22.468  0.00  0.00    +0.092 C 
BRANCH  10  11
ATOM     11  N   UNL     1       9.891  -0.805  21.415  0.00  0.00    -0.329 NA
ATOM     12  H   UNL     1       9.432   0.078  21.633  0.00  0.00    +0.118 HD
ATOM     13  H   UNL     1      10.892  -0.610  21.406  0.00  0.00    +0.118 HD
ENDBRANCH  10  11
ENDBRANCH   9  10
ENDBRANCH   7   9
ENDBRANCH   6   7
ENDBRANCH   2   6
ENDBRANCH   1   2
BRANCH   1  14
ATOM     14  C   UNL     1       6.968  -5.598  26.430  0.00  0.00    +0.038 C 
BRANCH  14  15
ATOM     15  C   UNL     1       5.723  -5.139  25.675  0.00  0.00    +0.196 C 
BRANCH  15  16
ATOM     16  N   UNL     1       5.875  -5.409  24.265  0.00  0.00    -0.272 N 
ATOM     17  H   UNL     1       6.652  -4.930  23.806  0.00  0.00    +0.258 HD
ATOM     18  C   UNL     1       5.251  -6.370  23.543  0.00  0.00    +0.440 C 
ATOM     19  N   UNL     1       5.542  -6.546  22.232  0.00  0.00    +0.025 N 
ATOM     20  H   UNL     1       4.991  -7.260  21.790  0.00  0.00    +0.348 HD
ATOM     21  N   UNL     1       4.346  -7.158  24.038  0.00  0.00    -0.125 NA
ATOM     22  H   UNL     1       4.204  -6.932  25.024  0.00  0.00    +0.306 HD
BRANCH  19  23
ATOM     23  N   UNL     1       6.405  -5.835  21.502  0.00  0.00    +0.232 N 
ATOM     24  O   UNL     1       5.878  -5.233  20.564  0.00  0.00    +0.084 OA
ATOM     25  O   UNL     1       7.605  -5.842  21.790  0.00  0.00    -0.542 OA
ENDBRANCH  19  23
ENDBRANCH  15  16
ENDBRANCH  14  15
ENDBRANCH   1  14
TORSDOF 11
ENDMDL
MODEL 2
REMARK VINA RESULT:      -5.2      2.540      5.238
REMARK  Name = 
REMARK  11 active torsions:
REMARK  status: ('A' for Active; 'I' for Inactive)
REMARK    1  A    between atoms: N_1  and  C_2
REMARK    2  A    between atoms: C_2  and  C_3
REMARK    3  A    between atoms: C_3  and  N_4
REMARK    4  A    between atoms: N_4  and  C_5
REMARK    5  A    between atoms: C_5  and  C_6
REMARK    6  A    between atoms: C_6  and  N_8
REMARK    7  A    between atoms: C_6  and  C_9
REMARK    8  A    between atoms: C_9  and  C_10
REMARK    9  A    between atoms: C_10  and  C_11
REMARK   10  A    between atoms: C_11  and  N_12
REMARK   11  A    between atoms: N_15  and  N_16
REMARK                            x       y       z     vdW  Elec       q    Type
REMARK                         _______ _______ _______ _____ _____    ______ ____
ROOT
ATOM      1  C   UNL     1       7.883  -1.556  22.864  0.00  0.00    +0.023 C 
ENDROOT
BRANCH   1   2
ATOM      2  C   UNL     1       6.459  -2.112  23.021  0.00  0.00    +0.065 C 
BRANCH   2   3
ATOM      3  N   UNL     1       6.140  -2.404  24.429  0.00  0.00    -0.326 NA
ATOM      4  H   UNL     1       5.300  -2.979  24.475  0.00  0.00    +0.119 HD
ATOM      5  H   UNL     1       6.880  -3.004  24.795  0.00  0.00    +0.119 HD
ENDBRANCH   2   3
BRANCH   2   6
ATOM      6  C   UNL     1       6.310  -3.389  22.151  0.00  0.00    +0.099 C 
BRANCH   6   7
ATOM      7  N   UNL     1       6.413  -4.606  22.968  0.00  0.00    -0.313 NA
ATOM      8  H   UNL     1       7.397  -4.872  23.001  0.00  0.00    +0.122 HD
BRANCH   7   9
ATOM      9  C   UNL     1       5.656  -5.704  22.356  0.00  0.00    +0.096 C 
BRANCH   9  10
ATOM     10  C   UNL     1       4.394  -6.003  23.186  0.00  0.00    +0.092 C 
BRANCH  10  11
ATOM     11  N   UNL     1       4.554  -7.205  24.002  0.00  0.00    -0.329 NA
ATOM     12  H   UNL     1       4.052  -7.090  24.881  0.00  0.00    +0.118 HD
ATOM     13  H   UNL     1       4.113  -7.990  23.523  0.00  0.00    +0.118 HD
ENDBRANCH  10  11
ENDBRANCH   9  10
ENDBRANCH   7   9
ENDBRANCH   6   7
ENDBRANCH   2   6
ENDBRANCH   1   2
BRANCH   1  14
ATOM     14  C   UNL     1       8.720  -1.611  24.143  0.00  0.00    +0.038 C 
BRANCH  14  15
ATOM     15  C   UNL     1       9.456  -2.945  24.240  0.00  0.00    +0.196 C 
BRANCH  15  16
ATOM     16  N   UNL     1       8.759  -3.825  25.148  0.00  0.00    -0.272 N 
ATOM     17  H   UNL     1       7.773  -3.607  25.302  0.00  0.00    +0.258 HD
ATOM     18  C   UNL     1       9.198  -5.007  25.641  0.00  0.00    +0.440 C 
ATOM     19  N   UNL     1       8.404  -5.758  26.440  0.00  0.00    +0.025 N 
ATOM     20  H   UNL     1       8.848  -6.594  26.778  0.00  0.00    +0.348 HD
ATOM     21  N   UNL     1      10.382  -5.483  25.402  0.00  0.00    -0.125 NA
ATOM     22  H   UNL     1      10.892  -4.835  24.799  0.00  0.00    +0.306 HD
BRANCH  19  23
ATOM     23  N   UNL     1       7.170  -5.457  26.852  0.00  0.00    +0.232 N 
ATOM     24  O   UNL     1       6.364  -5.316  25.931  0.00  0.00    +0.084 OA
ATOM     25  O   UNL     1       6.939  -5.332  28.058  0.00  0.00    -0.542 OA
ENDBRANCH  19  23
ENDBRANCH  15  16
ENDBRANCH  14  15
ENDBRANCH   1  14
TORSDOF 11
ENDMDL
MODEL 3
REMARK VINA RESULT:      -5.1      2.299      3.813
REMARK  Name = 
REMARK  11 active torsions:
REMARK  status: ('A' for Active; 'I' for Inactive)
REMARK    1  A    between atoms: N_1  and  C_2
REMARK    2  A    between atoms: C_2  and  C_3
REMARK    3  A    between atoms: C_3  and  N_4
REMARK    4  A    between atoms: N_4  and  C_5
REMARK    5  A    between atoms: C_5  and  C_6
REMARK    6  A    between atoms: C_6  and  N_8
REMARK    7  A    between atoms: C_6  and  C_9
REMARK    8  A    between atoms: C_9  and  C_10
REMARK    9  A    between atoms: C_10  and  C_11
REMARK   10  A    between atoms: C_11  and  N_12
REMARK   11  A    between atoms: N_15  and  N_16
REMARK                            x       y       z     vdW  Elec       q    Type
REMARK                         _______ _______ _______ _____ _____    ______ ____
ROOT
ATOM      1  C   UNL     1       5.303  -2.597  24.665  0.00  0.00    +0.023 C 
ENDROOT
BRANCH   1   2
ATOM      2  C   UNL     1       5.252  -3.453  23.390  0.00  0.00    +0.065 C 
BRANCH   2   3
ATOM      3  N   UNL     1       5.737  -4.823  23.633  0.00  0.00    -0.326 NA
ATOM      4  H   UNL     1       5.422  -5.138  24.550  0.00  0.00    +0.119 HD
ATOM      5  H   UNL     1       5.261  -5.441  22.975  0.00  0.00    +0.119 HD
ENDBRANCH   2   3
BRANCH   2   6
ATOM      6  C   UNL     1       6.090  -2.766  22.278  0.00  0.00    +0.099 C 
BRANCH   6   7
ATOM      7  N   UNL     1       7.498  -3.180  22.340  0.00  0.00    -0.313 NA
ATOM      8  H   UNL     1       7.644  -3.646  23.235  0.00  0.00    +0.122 HD
BRANCH   7   9
ATOM      9  C   UNL     1       8.384  -2.011  22.275  0.00  0.00    +0.096 C 
BRANCH   9  10
ATOM     10  C   UNL     1       9.502  -2.135  23.325  0.00  0.00    +0.092 C 
BRANCH  10  11
ATOM     11  N   UNL     1       8.963  -2.247  24.679  0.00  0.00    -0.329 NA
ATOM     12  H   UNL     1       8.212  -2.936  24.692  0.00  0.00    +0.118 HD
ATOM     13  H   UNL     1       9.692  -2.609  25.295  0.00  0.00    +0.118 HD
ENDBRANCH  10  11
ENDBRANCH   9  10
ENDBRANCH   7   9
ENDBRANCH   6   7
ENDBRANCH   2   6
ENDBRANCH   1   2
BRANCH   1  14
ATOM     14  C   UNL     1       4.846  -3.329  25.929  0.00  0.00    +0.038 C 
BRANCH  14  15
ATOM     15  C   UNL     1       6.001  -3.450  26.919  0.00  0.00    +0.196 C 
BRANCH  15  16
ATOM     16  N   UNL     1       7.088  -4.187  26.318  0.00  0.00    -0.272 N 
ATOM     17  H   UNL     1       7.548  -3.728  25.530  0.00  0.00    +0.258 HD
ATOM     18  C   UNL     1       7.693  -5.296  26.805  0.00  0.00    +0.440 C 
ATOM     19  N   UNL     1       8.748  -5.846  26.158  0.00  0.00    +0.025 N 
ATOM     20  H   UNL     1       9.091  -6.687  26.590  0.00  0.00    +0.348 HD
ATOM     21  N   UNL     1       7.308  -5.901  27.887  0.00  0.00    -0.125 NA
ATOM     22  H   UNL     1       6.507  -5.407  28.284  0.00  0.00    +0.306 HD
BRANCH  19  23
ATOM     23  N   UNL     1       9.294  -5.425  25.015  0.00  0.00    +0.232 N 
ATOM     24  O   UNL     1      10.462  -5.051  25.135  0.00  0.00    +0.084 OA
ATOM     25  O   UNL     1       8.623  -5.422  23.979  0.00  0.00    -0.542 OA
ENDBRANCH  19  23
ENDBRANCH  15  16
ENDBRANCH  14  15
ENDBRANCH   1  14
TORSDOF 11
ENDMDL
MODEL 4
REMARK VINA RESULT:      -5.1      2.553      4.976
REMARK  Name = 
REMARK  11 active torsions:
REMARK  status: ('A' for Active; 'I' for Inactive)
REMARK    1  A    between atoms: N_1  and  C_2
REMARK    2  A    between atoms: C_2  and  C_3
REMARK    3  A    between atoms: C_3  and  N_4
REMARK    4  A    between atoms: N_4  and  C_5
REMARK    5  A    between atoms: C_5  and  C_6
REMARK    6  A    between atoms: C_6  and  N_8
REMARK    7  A    between atoms: C_6  and  C_9
REMARK    8  A    between atoms: C_9  and  C_10
REMARK    9  A    between atoms: C_10  and  C_11
REMARK   10  A    between atoms: C_11  and  N_12
REMARK   11  A    between atoms: N_15  and  N_16
REMARK                            x       y       z     vdW  Elec       q    Type
REMARK                         _______ _______ _______ _____ _____    ______ ____
ROOT
ATOM      1  C   UNL     1       8.492  -4.490  26.747  0.00  0.00    +0.023 C 
ENDROOT
BRANCH   1   2
ATOM      2  C   UNL     1       8.816  -5.305  25.485  0.00  0.00    +0.065 C 
BRANCH   2   3
ATOM      3  N   UNL     1      10.126  -4.938  24.920  0.00  0.00    -0.326 NA
ATOM      4  H   UNL     1      10.116  -3.956  24.646  0.00  0.00    +0.119 HD
ATOM      5  H   UNL     1      10.812  -4.984  25.675  0.00  0.00    +0.119 HD
ENDBRANCH   2   3
BRANCH   2   6
ATOM      6  C   UNL     1       7.690  -5.093  24.437  0.00  0.00    +0.099 C 
BRANCH   6   7
ATOM      7  N   UNL     1       8.202  -4.424  23.233  0.00  0.00    -0.313 NA
ATOM      8  H   UNL     1       8.446  -3.468  23.492  0.00  0.00    +0.122 HD
BRANCH   7   9
ATOM      9  C   UNL     1       7.169  -4.374  22.191  0.00  0.00    +0.096 C 
BRANCH   9  10
ATOM     10  C   UNL     1       7.019  -5.754  21.528  0.00  0.00    +0.092 C 
BRANCH  10  11
ATOM     11  N   UNL     1       5.683  -6.311  21.733  0.00  0.00    -0.329 NA
ATOM     12  H   UNL     1       5.747  -7.150  22.308  0.00  0.00    +0.118 HD
ATOM     13  H   UNL     1       5.124  -5.643  22.264  0.00  0.00    +0.118 HD
ENDBRANCH  10  11
ENDBRANCH   9  10
ENDBRANCH   7   9
ENDBRANCH   6   7
ENDBRANCH   2   6
ENDBRANCH   1   2
BRANCH   1  14
ATOM     14  C   UNL     1       7.529  -3.326  26.509  0.00  0.00    +0.038 C 
BRANCH  14  15
ATOM     15  C   UNL     1       8.284  -1.999  26.526  0.00  0.00    +0.196 C 
BRANCH  15  16
ATOM     16  N   UNL     1       8.915  -1.777  25.247  0.00  0.00    -0.272 N 
ATOM     17  H   UNL     1       8.710  -2.473  24.528  0.00  0.00    +0.258 HD
ATOM     18  C   UNL     1       9.561  -0.660  24.836  0.00  0.00    +0.440 C 
ATOM     19  N   UNL     1      10.052  -0.572  23.577  0.00  0.00    +0.025 N 
ATOM     20  H   UNL     1      10.545   0.285  23.396  0.00  0.00    +0.348 HD
ATOM     21  N   UNL     1       9.761   0.369  25.601  0.00  0.00    -0.125 NA
ATOM     22  H   UNL     1       9.358   0.190  26.522  0.00  0.00    +0.306 HD
BRANCH  19  23
ATOM     23  N   UNL     1      10.000  -1.512  22.631  0.00  0.00    +0.232 N 
ATOM     24  O   UNL     1      10.541  -2.571  22.958  0.00  0.00    +0.084 OA
ATOM     25  O   UNL     1       9.461  -1.265  21.548  0.00  0.00    -0.542 OA
ENDBRANCH  19  23
ENDBRANCH  15  16
ENDBRANCH  14  15
ENDBRANCH   1  14
TORSDOF 11
ENDMDL
MODEL 5
REMARK VINA RESULT:      -5.1      1.270      4.153
REMARK  Name = 
REMARK  11 active torsions:
REMARK  status: ('A' for Active; 'I' for Inactive)
REMARK    1  A    between atoms: N_1  and  C_2
REMARK    2  A    between atoms: C_2  and  C_3
REMARK    3  A    between atoms: C_3  and  N_4
REMARK    4  A    between atoms: N_4  and  C_5
REMARK    5  A    between atoms: C_5  and  C_6
REMARK    6  A    between atoms: C_6  and  N_8
REMARK    7  A    between atoms: C_6  and  C_9
REMARK    8  A    between atoms: C_9  and  C_10
REMARK    9  A    between atoms: C_10  and  C_11
REMARK   10  A    between atoms: C_11  and  N_12
REMARK   11  A    between atoms: N_15  and  N_16
REMARK                            x       y       z     vdW  Elec       q    Type
REMARK                         _______ _______ _______ _____ _____    ______ ____
ROOT
ATOM      1  C   UNL     1       8.803  -3.318  25.297  0.00  0.00    +0.023 C 
ENDROOT
BRANCH   1   2
ATOM      2  C   UNL     1       8.809  -4.829  25.576  0.00  0.00    +0.065 C 
BRANCH   2   3
ATOM      3  N   UNL     1       9.332  -5.593  24.430  0.00  0.00    -0.326 NA
ATOM      4  H   UNL     1       8.554  -5.990  23.904  0.00  0.00    +0.119 HD
ATOM      5  H   UNL     1       9.762  -4.929  23.787  0.00  0.00    +0.119 HD
ENDBRANCH   2   3
BRANCH   2   6
ATOM      6  C   UNL     1       7.368  -5.289  25.929  0.00  0.00    +0.099 C 
BRANCH   6   7
ATOM      7  N   UNL     1       6.392  -4.768  24.962  0.00  0.00    -0.313 NA
ATOM      8  H   UNL     1       6.453  -3.750  24.981  0.00  0.00    +0.122 HD
BRANCH   7   9
ATOM      9  C   UNL     1       5.029  -5.158  25.345  0.00  0.00    +0.096 C 
BRANCH   9  10
ATOM     10  C   UNL     1       4.880  -6.688  25.283  0.00  0.00    +0.092 C 
BRANCH  10  11
ATOM     11  N   UNL     1       4.621  -7.154  23.922  0.00  0.00    -0.329 NA
ATOM     12  H   UNL     1       3.797  -6.683  23.551  0.00  0.00    +0.118 HD
ATOM     13  H   UNL     1       5.400  -6.878  23.325  0.00  0.00    +0.118 HD
ENDBRANCH  10  11
ENDBRANCH   9  10
ENDBRANCH   7   9
ENDBRANCH   6   7
ENDBRANCH   2   6
ENDBRANCH   1   2
BRANCH   1  14
ATOM     14  C   UNL     1       9.692  -2.895  24.126  0.00  0.00    +0.038 C 
BRANCH  14  15
ATOM     15  C   UNL     1       8.850  -2.261  23.022  0.00  0.00    +0.196 C 
BRANCH  15  16
ATOM     16  N   UNL     1       7.934  -3.236  22.481  0.00  0.00    -0.272 N 
ATOM     17  H   UNL     1       8.336  -4.153  22.278  0.00  0.00    +0.258 HD
ATOM     18  C   UNL     1       6.584  -3.143  22.413  0.00  0.00    +0.440 C 
ATOM     19  N   UNL     1       5.846  -4.171  21.932  0.00  0.00    +0.025 N 
ATOM     20  H   UNL     1       4.861  -3.975  21.892  0.00  0.00    +0.348 HD
ATOM     21  N   UNL     1       5.924  -2.088  22.780  0.00  0.00    -0.125 NA
ATOM     22  H   UNL     1       6.578  -1.379  23.116  0.00  0.00    +0.306 HD
BRANCH  19  23
ATOM     23  N   UNL     1       6.304  -5.334  21.463  0.00  0.00    +0.232 N 
ATOM     24  O   UNL     1       7.038  -5.929  22.254  0.00  0.00    +0.084 OA
ATOM     25  O   UNL     1       5.992  -5.704  20.328  0.00  0.00    -0.542 OA
ENDBRANCH  19  23
ENDBRANCH  15  16
ENDBRANCH  14  15
ENDBRANCH   1  14
TORSDOF 11
ENDMDL
MODEL 6
REMARK VINA RESULT:      -5.1      3.352      4.671
REMARK  Name = 
REMARK  11 active torsions:
REMARK  status: ('A' for Active; 'I' for Inactive)
REMARK    1  A    between atoms: N_1  and  C_2
REMARK    2  A    between atoms: C_2  and  C_3
REMARK    3  A    between atoms: C_3  and  N_4
REMARK    4  A    between atoms: N_4  and  C_5
REMARK    5  A    between atoms: C_5  and  C_6
REMARK    6  A    between atoms: C_6  and  N_8
REMARK    7  A    between atoms: C_6  and  C_9
REMARK    8  A    between atoms: C_9  and  C_10
REMARK    9  A    between atoms: C_10  and  C_11
REMARK   10  A    between atoms: C_11  and  N_12
REMARK   11  A    between atoms: N_15  and  N_16
REMARK                            x       y       z     vdW  Elec       q    Type
REMARK                         _______ _______ _______ _____ _____    ______ ____
ROOT
ATOM      1  C   UNL     1       8.104  -1.710  24.200  0.00  0.00    +0.023 C 
ENDROOT
BRANCH   1   2
ATOM      2  C   UNL     1       8.577  -1.268  25.593  0.00  0.00    +0.065 C 
BRANCH   2   3
ATOM      3  N   UNL     1       7.692  -1.778  26.656  0.00  0.00    -0.326 NA
ATOM      4  H   UNL     1       8.238  -1.950  27.499  0.00  0.00    +0.119 HD
ATOM      5  H   UNL     1       7.055  -1.024  26.915  0.00  0.00    +0.119 HD
ENDBRANCH   2   3
BRANCH   2   6
ATOM      6  C   UNL     1       8.650   0.282  25.641  0.00  0.00    +0.099 C 
BRANCH   6   7
ATOM      7  N   UNL     1       9.967   0.766  25.202  0.00  0.00    -0.313 NA
ATOM      8  H   UNL     1      10.420   1.197  26.007  0.00  0.00    +0.122 HD
BRANCH   7   9
ATOM      9  C   UNL     1       9.819   1.782  24.153  0.00  0.00    +0.096 C 
BRANCH   9  10
ATOM     10  C   UNL     1      10.124   1.169  22.775  0.00  0.00    +0.092 C 
BRANCH  10  11
ATOM     11  N   UNL     1      10.019   2.159  21.705  0.00  0.00    -0.329 NA
ATOM     12  H   UNL     1       9.444   1.786  20.950  0.00  0.00    +0.118 HD
ATOM     13  H   UNL     1       9.526   2.978  22.060  0.00  0.00    +0.118 HD
ENDBRANCH  10  11
ENDBRANCH   9  10
ENDBRANCH   7   9
ENDBRANCH   6   7
ENDBRANCH   2   6
ENDBRANCH   1   2
BRANCH   1  14
ATOM     14  C   UNL     1       8.936  -2.837  23.585  0.00  0.00    +0.038 C 
BRANCH  14  15
ATOM     15  C   UNL     1       8.121  -4.126  23.520  0.00  0.00    +0.196 C 
BRANCH  15  16
ATOM     16  N   UNL     1       7.864  -4.612  24.855  0.00  0.00    -0.272 N 
ATOM     17  H   UNL     1       6.901  -4.516  25.182  0.00  0.00    +0.258 HD
ATOM     18  C   UNL     1       8.689  -5.359  25.627  0.00  0.00    +0.440 C 
ATOM     19  N   UNL     1       8.285  -5.797  26.844  0.00  0.00    +0.025 N 
ATOM     20  H   UNL     1       8.992  -6.308  27.342  0.00  0.00    +0.348 HD
ATOM     21  N   UNL     1       9.893  -5.688  25.273  0.00  0.00    -0.125 NA
ATOM     22  H   UNL     1      10.091  -5.301  24.348  0.00  0.00    +0.306 HD
BRANCH  19  23
ATOM     23  N   UNL     1       7.112  -5.554  27.432  0.00  0.00    +0.232 N 
ATOM     24  O   UNL     1       6.902  -4.357  27.639  0.00  0.00    +0.084 OA
ATOM     25  O   UNL     1       6.367  -6.492  27.728  0.00  0.00    -0.542 OA
ENDBRANCH  19  23
ENDBRANCH  15  16
ENDBRANCH  14  15
ENDBRANCH   1  14
TORSDOF 11
ENDMDL
MODEL 7
REMARK VINA RESULT:      -5.1      3.041      4.537
REMARK  Name = 
REMARK  11 active torsions:
REMARK  status: ('A' for Active; 'I' for Inactive)
REMARK    1  A    between atoms: N_1  and  C_2
REMARK    2  A    between atoms: C_2  and  C_3
REMARK    3  A    between atoms: C_3  and  N_4
REMARK    4  A    between atoms: N_4  and  C_5
REMARK    5  A    between atoms: C_5  and  C_6
REMARK    6  A    between atoms: C_6  and  N_8
REMARK    7  A    between atoms: C_6  and  C_9
REMARK    8  A    between atoms: C_9  and  C_10
REMARK    9  A    between atoms: C_10  and  C_11
REMARK   10  A    between atoms: C_11  and  N_12
REMARK   11  A    between atoms: N_15  and  N_16
REMARK                            x       y       z     vdW  Elec       q    Type
REMARK                         _______ _______ _______ _____ _____    ______ ____
ROOT
ATOM      1  C   UNL     1       7.546  -2.557  23.350  0.00  0.00    +0.023 C 
ENDROOT
BRANCH   1   2
ATOM      2  C   UNL     1       8.975  -2.333  22.830  0.00  0.00    +0.065 C 
BRANCH   2   3
ATOM      3  N   UNL     1       9.971  -2.442  23.910  0.00  0.00    -0.326 NA
ATOM      4  H   UNL     1       9.561  -2.933  24.703  0.00  0.00    +0.119 HD
ATOM      5  H   UNL     1      10.714  -3.062  23.583  0.00  0.00    +0.119 HD
ENDBRANCH   2   3
BRANCH   2   6
ATOM      6  C   UNL     1       9.057  -0.940  22.149  0.00  0.00    +0.099 C 
BRANCH   6   7
ATOM      7  N   UNL     1      10.218  -0.179  22.630  0.00  0.00    -0.313 NA
ATOM      8  H   UNL     1      10.503  -0.583  23.523  0.00  0.00    +0.122 HD
BRANCH   7   9
ATOM      9  C   UNL     1       9.859   1.227  22.850  0.00  0.00    +0.096 C 
BRANCH   9  10
ATOM     10  C   UNL     1      10.123   1.618  24.315  0.00  0.00    +0.092 C 
BRANCH  10  11
ATOM     11  N   UNL     1      10.537   0.468  25.117  0.00  0.00    -0.329 NA
ATOM     12  H   UNL     1      10.786   0.779  26.055  0.00  0.00    +0.118 HD
ATOM     13  H   UNL     1       9.742  -0.161  25.227  0.00  0.00    +0.118 HD
ENDBRANCH  10  11
ENDBRANCH   9  10
ENDBRANCH   7   9
ENDBRANCH   6   7
ENDBRANCH   2   6
ENDBRANCH   1   2
BRANCH   1  14
ATOM     14  C   UNL     1       6.851  -3.785  22.759  0.00  0.00    +0.038 C 
BRANCH  14  15
ATOM     15  C   UNL     1       7.563  -5.062  23.198  0.00  0.00    +0.196 C 
BRANCH  15  16
ATOM     16  N   UNL     1       7.568  -5.151  24.639  0.00  0.00    -0.272 N 
ATOM     17  H   UNL     1       6.647  -5.195  25.081  0.00  0.00    +0.258 HD
ATOM     18  C   UNL     1       8.632  -5.394  25.441  0.00  0.00    +0.440 C 
ATOM     19  N   UNL     1       8.473  -5.511  26.780  0.00  0.00    +0.025 N 
ATOM     20  H   UNL     1       9.335  -5.651  27.277  0.00  0.00    +0.348 HD
ATOM     21  N   UNL     1       9.845  -5.513  24.996  0.00  0.00    -0.125 NA
ATOM     22  H   UNL     1       9.847  -5.400  23.981  0.00  0.00    +0.306 HD
BRANCH  19  23
ATOM     23  N   UNL     1       7.333  -5.389  27.464  0.00  0.00    +0.232 N 
ATOM     24  O   UNL     1       7.141  -6.302  28.269  0.00  0.00    +0.084 OA
ATOM     25  O   UNL     1       6.584  -4.433  27.244  0.00  0.00    -0.542 OA
ENDBRANCH  19  23
ENDBRANCH  15  16
ENDBRANCH  14  15
ENDBRANCH   1  14
TORSDOF 11
ENDMDL
MODEL 8
REMARK VINA RESULT:      -5.0      3.344      5.481
REMARK  Name = 
REMARK  11 active torsions:
REMARK  status: ('A' for Active; 'I' for Inactive)
REMARK    1  A    between atoms: N_1  and  C_2
REMARK    2  A    between atoms: C_2  and  C_3
REMARK    3  A    between atoms: C_3  and  N_4
REMARK    4  A    between atoms: N_4  and  C_5
REMARK    5  A    between atoms: C_5  and  C_6
REMARK    6  A    between atoms: C_6  and  N_8
REMARK    7  A    between atoms: C_6  and  C_9
REMARK    8  A    between atoms: C_9  and  C_10
REMARK    9  A    between atoms: C_10  and  C_11
REMARK   10  A    between atoms: C_11  and  N_12
REMARK   11  A    between atoms: N_15  and  N_16
REMARK                            x       y       z     vdW  Elec       q    Type
REMARK                         _______ _______ _______ _____ _____    ______ ____
ROOT
ATOM      1  C   UNL     1       9.238  -1.256  22.383  0.00  0.00    +0.023 C 
ENDROOT
BRANCH   1   2
ATOM      2  C   UNL     1       8.723   0.162  22.672  0.00  0.00    +0.065 C 
BRANCH   2   3
ATOM      3  N   UNL     1       7.307   0.156  23.080  0.00  0.00    -0.326 NA
ATOM      4  H   UNL     1       6.858  -0.692  22.736  0.00  0.00    +0.119 HD
ATOM      5  H   UNL     1       7.279   0.065  24.096  0.00  0.00    +0.119 HD
ENDBRANCH   2   3
BRANCH   2   6
ATOM      6  C   UNL     1       8.925   1.047  21.413  0.00  0.00    +0.099 C 
BRANCH   6   7
ATOM      7  N   UNL     1       9.937   2.086  21.648  0.00  0.00    -0.313 NA
ATOM      8  H   UNL     1      10.759   1.847  21.094  0.00  0.00    +0.122 HD
BRANCH   7   9
ATOM      9  C   UNL     1      10.325   2.117  23.064  0.00  0.00    +0.096 C 
BRANCH   9  10
ATOM     10  C   UNL     1      10.313   3.566  23.584  0.00  0.00    +0.092 C 
BRANCH  10  11
ATOM     11  N   UNL     1      11.452   4.332  23.081  0.00  0.00    -0.329 NA
ATOM     12  H   UNL     1      11.354   5.308  23.355  0.00  0.00    +0.118 HD
ATOM     13  H   UNL     1      12.302   3.994  23.531  0.00  0.00    +0.118 HD
ENDBRANCH  10  11
ENDBRANCH   9  10
ENDBRANCH   7   9
ENDBRANCH   6   7
ENDBRANCH   2   6
ENDBRANCH   1   2
BRANCH   1  14
ATOM     14  C   UNL     1       8.543  -2.352  23.194  0.00  0.00    +0.038 C 
BRANCH  14  15
ATOM     15  C   UNL     1       9.523  -2.990  24.175  0.00  0.00    +0.196 C 
BRANCH  15  16
ATOM     16  N   UNL     1       8.808  -3.829  25.107  0.00  0.00    -0.272 N 
ATOM     17  H   UNL     1       7.820  -3.602  25.237  0.00  0.00    +0.258 HD
ATOM     18  C   UNL     1       9.235  -4.991  25.657  0.00  0.00    +0.440 C 
ATOM     19  N   UNL     1       8.425  -5.705  26.474  0.00  0.00    +0.025 N 
ATOM     20  H   UNL     1       8.860  -6.528  26.853  0.00  0.00    +0.348 HD
ATOM     21  N   UNL     1      10.420  -5.480  25.457  0.00  0.00    -0.125 NA
ATOM     22  H   UNL     1      10.942  -4.859  24.836  0.00  0.00    +0.306 HD
BRANCH  19  23
ATOM     23  N   UNL     1       7.186  -5.383  26.853  0.00  0.00    +0.232 N 
ATOM     24  O   UNL     1       7.027  -5.391  28.075  0.00  0.00    +0.084 OA
ATOM     25  O   UNL     1       6.329  -5.131  26.001  0.00  0.00    -0.542 OA
ENDBRANCH  19  23
ENDBRANCH  15  16
ENDBRANCH  14  15
ENDBRANCH   1  14
TORSDOF 11
ENDMDL
MODEL 9
REMARK VINA RESULT:      -4.9      4.291      6.347
REMARK  Name = 
REMARK  11 active torsions:
REMARK  status: ('A' for Active; 'I' for Inactive)
REMARK    1  A    between atoms: N_1  and  C_2
REMARK    2  A    between atoms: C_2  and  C_3
REMARK    3  A    between atoms: C_3  and  N_4
REMARK    4  A    between atoms: N_4  and  C_5
REMARK    5  A    between atoms: C_5  and  C_6
REMARK    6  A    between atoms: C_6  and  N_8
REMARK    7  A    between atoms: C_6  and  C_9
REMARK    8  A    between atoms: C_9  and  C_10
REMARK    9  A    between atoms: C_10  and  C_11
REMARK   10  A    between atoms: C_11  and  N_12
REMARK   11  A    between atoms: N_15  and  N_16
REMARK                            x       y       z     vdW  Elec       q    Type
REMARK                         _______ _______ _______ _____ _____    ______ ____
ROOT
ATOM      1  C   UNL     1      10.426   1.031  23.848  0.00  0.00    +0.023 C 
ENDROOT
BRANCH   1   2
ATOM      2  C   UNL     1      10.122   2.333  23.091  0.00  0.00    +0.065 C 
BRANCH   2   3
ATOM      3  N   UNL     1       9.952   2.096  21.647  0.00  0.00    -0.326 NA
ATOM      4  H   UNL     1       8.973   2.224  21.394  0.00  0.00    +0.119 HD
ATOM      5  H   UNL     1      10.442   2.843  21.152  0.00  0.00    +0.119 HD
ENDBRANCH   2   3
BRANCH   2   6
ATOM      6  C   UNL     1      11.265   3.352  23.347  0.00  0.00    +0.099 C 
BRANCH   6   7
ATOM      7  N   UNL     1      10.749   4.726  23.414  0.00  0.00    -0.313 NA
ATOM      8  H   UNL     1      10.267   4.917  22.535  0.00  0.00    +0.122 HD
BRANCH   7   9
ATOM      9  C   UNL     1      11.851   5.685  23.558  0.00  0.00    +0.096 C 
BRANCH   9  10
ATOM     10  C   UNL     1      12.919   5.430  22.480  0.00  0.00    +0.092 C 
BRANCH  10  11
ATOM     11  N   UNL     1      14.223   5.132  23.068  0.00  0.00    -0.329 NA
ATOM     12  H   UNL     1      14.119   4.981  24.071  0.00  0.00    +0.118 HD
ATOM     13  H   UNL     1      14.567   4.253  22.682  0.00  0.00    +0.118 HD
ENDBRANCH  10  11
ENDBRANCH   9  10
ENDBRANCH   7   9
ENDBRANCH   6   7
ENDBRANCH   2   6
ENDBRANCH   1   2
BRANCH   1  14
ATOM     14  C   UNL     1       9.807  -0.219  23.219  0.00  0.00    +0.038 C 
BRANCH  14  15
ATOM     15  C   UNL     1       9.828  -1.379  24.210  0.00  0.00    +0.196 C 
BRANCH  15  16
ATOM     16  N   UNL     1       8.799  -2.334  23.871  0.00  0.00    -0.272 N 
ATOM     17  H   UNL     1       8.041  -1.976  23.286  0.00  0.00    +0.258 HD
ATOM     18  C   UNL     1       8.833  -3.675  24.056  0.00  0.00    +0.440 C 
ATOM     19  N   UNL     1       7.812  -4.456  23.629  0.00  0.00    +0.025 N 
ATOM     20  H   UNL     1       7.928  -5.428  23.855  0.00  0.00    +0.348 HD
ATOM     21  N   UNL     1       9.810  -4.287  24.651  0.00  0.00    -0.125 NA
ATOM     22  H   UNL     1      10.515  -3.604  24.935  0.00  0.00    +0.306 HD
BRANCH  19  23
ATOM     23  N   UNL     1       6.691  -4.049  23.028  0.00  0.00    +0.232 N 
ATOM     24  O   UNL     1       6.886  -3.497  21.944  0.00  0.00    +0.084 OA
ATOM     25  O   UNL     1       5.601  -4.228  23.577  0.00  0.00    -0.542 OA
ENDBRANCH  19  23
ENDBRANCH  15  16
ENDBRANCH  14  15
ENDBRANCH   1  14
TORSDOF 11
ENDMDL
