MODEL 1
REMARK VINA RESULT:      -6.7      0.000      0.000
REMARK  Name = 
REMARK  11 active torsions:
REMARK  status: ('A' for Active; 'I' for Inactive)
REMARK    1  A    between atoms: C_1  and  O_2
REMARK    2  A    between atoms: O_2  and  N_3
REMARK    3  A    between atoms: C_4  and  C_5
REMARK    4  A    between atoms: C_4  and  C_24
REMARK    5  A    between atoms: N_7  and  CA_8
REMARK    6  A    between atoms: CA_8  and  C_10
REMARK    7  A    between atoms: CA_8  and  C_12
REMARK    8  A    between atoms: CA_15  and  C_17
REMARK    9  A    between atoms: C_17  and  O_18
REMARK   10  A    between atoms: C_20  and  C_21
REMARK   11  A    between atoms: C_20  and  C_22
REMARK                            x       y       z     vdW  Elec       q    Type
REMARK                         _______ _______ _______ _____ _____    ______ ____
ROOT
ATOM      1  C   UNL     1       8.123  -2.697  23.229  0.00  0.00    +0.268 C 
ATOM      2  N   UNL     1       8.074  -1.980  24.419  0.00  0.00    -0.298 N 
ATOM      3  H   UNL     1       7.906  -2.468  25.285  0.00  0.00    +0.150 HD
ATOM      4  O   UNL     1       8.627  -2.235  22.212  0.00  0.00    -0.268 OA
ENDROOT
BRANCH   1   6
ATOM      5  N   UNL     1       7.559  -4.713  22.026  0.00  0.00    -0.078 NA
ATOM      6  C   UNL     1       7.509  -4.137  23.207  0.00  0.00    +0.190 C 
BRANCH   6   7
ATOM      7  C   UNL     1       6.888  -4.769  24.410  0.00  0.00    +0.107 A 
ATOM      8  N   UNL     1       7.638  -5.070  25.568  0.00  0.00    -0.223 NA
ATOM      9  C   UNL     1       6.922  -5.648  26.485  0.00  0.00    +0.156 A 
ATOM     10  N   UNL     1       7.440  -6.099  27.636  0.00  0.00    -0.338 N 
ATOM     11  H   UNL     1       8.386  -5.805  27.852  0.00  0.00    +0.144 HD
ATOM     12  H   UNL     1       6.839  -6.271  28.430  0.00  0.00    +0.144 HD
ATOM     13  S   UNL     1       5.259  -5.785  26.129  0.00  0.00    -0.060 S 
ATOM     14  C   UNL     1       5.562  -5.147  24.564  0.00  0.00    +0.078 A 
ENDBRANCH   6   7
BRANCH   5  16
ATOM     15  C   UNL     1       6.027  -6.032  20.902  0.00  0.00    +0.313 C 
ATOM     16  O   UNL     1       6.947  -5.973  21.980  0.00  0.00    -0.396 OA
ENDBRANCH   5  16
ENDBRANCH   1   6
BRANCH   2  17
ATOM     17  CA  UNL     1       8.401  -0.544  24.466  0.00  0.00    +0.163 C 
BRANCH  17  18
ATOM     18  C   UNL     1       7.280   0.360  23.852  0.00  0.00    +0.141 C 
ATOM     19  S   UNL     1       7.145   1.960  24.692  0.00  0.00    -0.131 S 
ATOM     20  C   UNL     1       8.053   2.892  23.396  0.00  0.00    +0.038 C 
ATOM     21  C   UNL     1       9.317   3.461  24.044  0.00  0.00    +0.024 C 
ATOM     22  C   UNL     1       7.139   4.043  22.949  0.00  0.00    +0.024 C 
ATOM     23  CA  UNL     1       8.260   1.878  22.239  0.00  0.00    +0.180 C 
ATOM     24  N   UNL     1       7.358   0.687  22.419  0.00  0.00    -0.290 NA
ATOM     25  H   UNL     1       6.424   1.000  22.146  0.00  0.00    +0.124 HD
BRANCH  23  26
ATOM     26  C   UNL     1       9.692   1.427  21.932  0.00  0.00    +0.323 C 
ATOM     27  OXT UNL     1      10.106   0.283  21.888  0.00  0.00    -0.249 OA
BRANCH  26  28
ATOM     28  O   UNL     1      10.506   2.442  21.566  0.00  0.00    -0.479 OA
ATOM     29  H   UNL     1      10.463   2.419  20.583  0.00  0.00    +0.295 HD
ENDBRANCH  26  28
ENDBRANCH  23  26
ENDBRANCH  17  18
BRANCH  17  30
ATOM     30  C   UNL     1       8.588  -0.162  25.933  0.00  0.00    +0.247 C 
ATOM     31  O   UNL     1       8.914  -0.937  26.827  0.00  0.00    -0.299 OA
ENDBRANCH  17  30
ENDBRANCH   2  17
TORSDOF 8
ENDMDL
MODEL 2
REMARK VINA RESULT:      -6.6      2.213      3.479
REMARK  Name = 
REMARK  11 active torsions:
REMARK  status: ('A' for Active; 'I' for Inactive)
REMARK    1  A    between atoms: C_1  and  O_2
REMARK    2  A    between atoms: O_2  and  N_3
REMARK    3  A    between atoms: C_4  and  C_5
REMARK    4  A    between atoms: C_4  and  C_24
REMARK    5  A    between atoms: N_7  and  CA_8
REMARK    6  A    between atoms: CA_8  and  C_10
REMARK    7  A    between atoms: CA_8  and  C_12
REMARK    8  A    between atoms: CA_15  and  C_17
REMARK    9  A    between atoms: C_17  and  O_18
REMARK   10  A    between atoms: C_20  and  C_21
REMARK   11  A    between atoms: C_20  and  C_22
REMARK                            x       y       z     vdW  Elec       q    Type
REMARK                         _______ _______ _______ _____ _____    ______ ____
ROOT
ATOM      1  C   UNL     1       7.556  -3.574  26.323  0.00  0.00    +0.268 C 
ATOM      2  N   UNL     1       7.039  -2.332  25.977  0.00  0.00    -0.298 N 
ATOM      3  H   UNL     1       6.040  -2.207  25.930  0.00  0.00    +0.150 HD
ATOM      4  O   UNL     1       8.713  -3.714  26.704  0.00  0.00    -0.268 OA
ENDROOT
BRANCH   1   6
ATOM      5  N   UNL     1       6.709  -5.642  27.238  0.00  0.00    -0.078 NA
ATOM      6  C   UNL     1       6.618  -4.823  26.214  0.00  0.00    +0.190 C 
BRANCH   6   7
ATOM      7  C   UNL     1       5.738  -5.070  25.032  0.00  0.00    +0.107 A 
ATOM      8  N   UNL     1       6.228  -5.655  23.843  0.00  0.00    -0.223 NA
ATOM      9  C   UNL     1       5.313  -5.749  22.926  0.00  0.00    +0.156 A 
ATOM     10  N   UNL     1       5.568  -6.196  21.687  0.00  0.00    -0.338 N 
ATOM     11  H   UNL     1       6.469  -6.638  21.543  0.00  0.00    +0.144 HD
ATOM     12  H   UNL     1       4.815  -6.529  21.102  0.00  0.00    +0.144 HD
ATOM     13  S   UNL     1       3.748  -5.275  23.408  0.00  0.00    -0.060 S 
ATOM     14  C   UNL     1       4.388  -4.771  24.920  0.00  0.00    +0.078 A 
ENDBRANCH   6   7
BRANCH   5  16
ATOM     15  C   UNL     1       5.025  -6.900  28.205  0.00  0.00    +0.313 C 
ATOM     16  O   UNL     1       5.926  -6.798  27.115  0.00  0.00    -0.396 OA
ENDBRANCH   5  16
ENDBRANCH   1   6
BRANCH   2  17
ATOM     17  CA  UNL     1       7.910  -1.154  25.815  0.00  0.00    +0.163 C 
BRANCH  17  18
ATOM     18  C   UNL     1       7.430  -0.191  24.678  0.00  0.00    +0.141 C 
ATOM     19  S   UNL     1       8.282   1.408  24.722  0.00  0.00    -0.131 S 
ATOM     20  C   UNL     1       9.436   1.007  23.351  0.00  0.00    +0.038 C 
ATOM     21  C   UNL     1      10.855   1.040  23.925  0.00  0.00    +0.024 C 
ATOM     22  C   UNL     1       9.280   2.113  22.297  0.00  0.00    +0.024 C 
ATOM     23  CA  UNL     1       8.942  -0.354  22.792  0.00  0.00    +0.180 C 
ATOM     24  N   UNL     1       7.551  -0.648  23.284  0.00  0.00    -0.290 NA
ATOM     25  H   UNL     1       6.929  -0.053  22.732  0.00  0.00    +0.124 HD
BRANCH  23  26
ATOM     26  C   UNL     1       9.849  -1.574  22.981  0.00  0.00    +0.323 C 
ATOM     27  OXT UNL     1       9.811  -2.381  23.892  0.00  0.00    -0.249 OA
BRANCH  26  28
ATOM     28  O   UNL     1      10.680  -1.792  21.937  0.00  0.00    -0.479 OA
ATOM     29  H   UNL     1      10.676  -0.929  21.465  0.00  0.00    +0.295 HD
ENDBRANCH  26  28
ENDBRANCH  23  26
ENDBRANCH  17  18
BRANCH  17  30
ATOM     30  C   UNL     1       7.902  -0.389  27.137  0.00  0.00    +0.247 C 
ATOM     31  O   UNL     1       6.894  -0.008  27.726  0.00  0.00    -0.299 OA
ENDBRANCH  17  30
ENDBRANCH   2  17
TORSDOF 8
ENDMDL
MODEL 3
REMARK VINA RESULT:      -6.6      2.455      7.683
REMARK  Name = 
REMARK  11 active torsions:
REMARK  status: ('A' for Active; 'I' for Inactive)
REMARK    1  A    between atoms: C_1  and  O_2
REMARK    2  A    between atoms: O_2  and  N_3
REMARK    3  A    between atoms: C_4  and  C_5
REMARK    4  A    between atoms: C_4  and  C_24
REMARK    5  A    between atoms: N_7  and  CA_8
REMARK    6  A    between atoms: CA_8  and  C_10
REMARK    7  A    between atoms: CA_8  and  C_12
REMARK    8  A    between atoms: CA_15  and  C_17
REMARK    9  A    between atoms: C_17  and  O_18
REMARK   10  A    between atoms: C_20  and  C_21
REMARK   11  A    between atoms: C_20  and  C_22
REMARK                            x       y       z     vdW  Elec       q    Type
REMARK                         _______ _______ _______ _____ _____    ______ ____
ROOT
ATOM      1  C   UNL     1       9.620   0.621  23.928  0.00  0.00    +0.268 C 
ATOM      2  N   UNL     1       8.435  -0.048  23.643  0.00  0.00    -0.298 N 
ATOM      3  H   UNL     1       7.723   0.415  23.099  0.00  0.00    +0.150 HD
ATOM      4  O   UNL     1      10.629   0.030  24.295  0.00  0.00    -0.268 OA
ENDROOT
BRANCH   1   6
ATOM      5  N   UNL     1      10.852   2.671  23.598  0.00  0.00    -0.078 NA
ATOM      6  C   UNL     1       9.645   2.179  23.773  0.00  0.00    +0.190 C 
BRANCH   6   7
ATOM      7  C   UNL     1       8.413   3.020  23.860  0.00  0.00    +0.107 A 
ATOM      8  N   UNL     1       7.547   3.193  22.758  0.00  0.00    -0.223 NA
ATOM      9  C   UNL     1       6.556   3.988  23.029  0.00  0.00    +0.156 A 
ATOM     10  N   UNL     1       5.654   4.365  22.111  0.00  0.00    -0.338 N 
ATOM     11  H   UNL     1       5.662   3.857  21.234  0.00  0.00    +0.144 HD
ATOM     12  H   UNL     1       4.758   4.731  22.401  0.00  0.00    +0.144 HD
ATOM     13  S   UNL     1       6.470   4.516  24.649  0.00  0.00    -0.060 S 
ATOM     14  C   UNL     1       7.962   3.727  24.964  0.00  0.00    +0.078 A 
ENDBRANCH   6   7
BRANCH   5  16
ATOM     15  C   UNL     1      12.212   4.511  23.256  0.00  0.00    +0.313 C 
ATOM     16  O   UNL     1      10.892   4.071  23.531  0.00  0.00    -0.396 OA
ENDBRANCH   5  16
ENDBRANCH   1   6
BRANCH   2  17
ATOM     17  CA  UNL     1       8.249  -1.467  23.994  0.00  0.00    +0.163 C 
BRANCH  17  18
ATOM     18  C   UNL     1       7.740  -1.673  25.460  0.00  0.00    +0.141 C 
ATOM     19  S   UNL     1       6.185  -2.602  25.527  0.00  0.00    -0.131 S 
ATOM     20  C   UNL     1       6.974  -4.191  26.000  0.00  0.00    +0.038 C 
ATOM     21  C   UNL     1       6.695  -5.191  24.875  0.00  0.00    +0.024 C 
ATOM     22  C   UNL     1       6.289  -4.663  27.292  0.00  0.00    +0.024 C 
ATOM     23  CA  UNL     1       8.462  -3.840  26.268  0.00  0.00    +0.180 C 
ATOM     24  N   UNL     1       8.630  -2.352  26.416  0.00  0.00    -0.290 NA
ATOM     25  H   UNL     1       8.277  -2.123  27.348  0.00  0.00    +0.124 HD
BRANCH  23  26
ATOM     26  C   UNL     1       9.513  -4.407  25.309  0.00  0.00    +0.323 C 
ATOM     27  OXT UNL     1      10.000  -3.850  24.342  0.00  0.00    -0.249 OA
BRANCH  26  28
ATOM     28  O   UNL     1       9.997  -5.610  25.694  0.00  0.00    -0.479 OA
ATOM     29  H   UNL     1      10.970  -5.465  25.706  0.00  0.00    +0.295 HD
ENDBRANCH  26  28
ENDBRANCH  23  26
ENDBRANCH  17  18
BRANCH  17  30
ATOM     30  C   UNL     1       7.216  -2.048  23.032  0.00  0.00    +0.247 C 
ATOM     31  O   UNL     1       7.456  -2.868  22.150  0.00  0.00    -0.299 OA
ENDBRANCH  17  30
ENDBRANCH   2  17
TORSDOF 8
ENDMDL
MODEL 4
REMARK VINA RESULT:      -6.5      1.879      2.301
REMARK  Name = 
REMARK  11 active torsions:
REMARK  status: ('A' for Active; 'I' for Inactive)
REMARK    1  A    between atoms: C_1  and  O_2
REMARK    2  A    between atoms: O_2  and  N_3
REMARK    3  A    between atoms: C_4  and  C_5
REMARK    4  A    between atoms: C_4  and  C_24
REMARK    5  A    between atoms: N_7  and  CA_8
REMARK    6  A    between atoms: CA_8  and  C_10
REMARK    7  A    between atoms: CA_8  and  C_12
REMARK    8  A    between atoms: CA_15  and  C_17
REMARK    9  A    between atoms: C_17  and  O_18
REMARK   10  A    between atoms: C_20  and  C_21
REMARK   11  A    between atoms: C_20  and  C_22
REMARK                            x       y       z     vdW  Elec       q    Type
REMARK                         _______ _______ _______ _____ _____    ______ ____
ROOT
ATOM      1  C   UNL     1       7.565  -3.156  25.574  0.00  0.00    +0.268 C 
ATOM      2  N   UNL     1       7.105  -1.940  25.084  0.00  0.00    -0.298 N 
ATOM      3  H   UNL     1       6.262  -1.916  24.530  0.00  0.00    +0.150 HD
ATOM      4  O   UNL     1       8.373  -3.223  26.493  0.00  0.00    -0.268 OA
ENDROOT
BRANCH   1   6
ATOM      5  N   UNL     1       7.534  -4.712  23.728  0.00  0.00    -0.078 NA
ATOM      6  C   UNL     1       7.026  -4.471  24.916  0.00  0.00    +0.190 C 
BRANCH   6   7
ATOM      7  C   UNL     1       6.001  -5.340  25.571  0.00  0.00    +0.107 A 
ATOM      8  N   UNL     1       6.249  -5.995  26.797  0.00  0.00    -0.223 NA
ATOM      9  C   UNL     1       5.246  -6.729  27.176  0.00  0.00    +0.156 A 
ATOM     10  N   UNL     1       5.285  -7.507  28.267  0.00  0.00    -0.338 N 
ATOM     11  H   UNL     1       6.065  -7.361  28.898  0.00  0.00    +0.144 HD
ATOM     12  H   UNL     1       4.427  -7.828  28.692  0.00  0.00    +0.144 HD
ATOM     13  S   UNL     1       3.857  -6.626  26.191  0.00  0.00    -0.060 S 
ATOM     14  C   UNL     1       4.730  -5.630  25.098  0.00  0.00    +0.078 A 
ENDBRANCH   6   7
BRANCH   5  16
ATOM     15  C   UNL     1       6.577  -5.530  21.787  0.00  0.00    +0.313 C 
ATOM     16  O   UNL     1       7.003  -5.848  23.101  0.00  0.00    -0.396 OA
ENDBRANCH   5  16
ENDBRANCH   1   6
BRANCH   2  17
ATOM     17  CA  UNL     1       7.736  -0.666  25.471  0.00  0.00    +0.163 C 
BRANCH  17  18
ATOM     18  C   UNL     1       7.618   0.436  24.364  0.00  0.00    +0.141 C 
ATOM     19  S   UNL     1       8.710   1.848  24.677  0.00  0.00    -0.131 S 
ATOM     20  C   UNL     1       9.987   1.328  23.464  0.00  0.00    +0.038 C 
ATOM     21  C   UNL     1      11.278   1.068  24.244  0.00  0.00    +0.024 C 
ATOM     22  C   UNL     1      10.194   2.507  22.500  0.00  0.00    +0.024 C 
ATOM     23  CA  UNL     1       9.367   0.116  22.719  0.00  0.00    +0.180 C 
ATOM     24  N   UNL     1       7.885   0.050  22.969  0.00  0.00    -0.290 NA
ATOM     25  H   UNL     1       7.471   0.781  22.386  0.00  0.00    +0.124 HD
BRANCH  23  26
ATOM     26  C   UNL     1      10.011  -1.258  22.932  0.00  0.00    +0.323 C 
ATOM     27  OXT UNL     1      10.073  -1.884  23.974  0.00  0.00    -0.249 OA
BRANCH  26  28
ATOM     28  O   UNL     1      10.432  -1.837  21.785  0.00  0.00    -0.479 OA
ATOM     29  H   UNL     1       9.615  -2.260  21.436  0.00  0.00    +0.295 HD
ENDBRANCH  26  28
ENDBRANCH  23  26
ENDBRANCH  17  18
BRANCH  17  30
ATOM     30  C   UNL     1       7.033  -0.168  26.732  0.00  0.00    +0.247 C 
ATOM     31  O   UNL     1       7.580   0.026  27.814  0.00  0.00    -0.299 OA
ENDBRANCH  17  30
ENDBRANCH   2  17
TORSDOF 8
ENDMDL
MODEL 5
REMARK VINA RESULT:      -6.4      2.723      7.839
REMARK  Name = 
REMARK  11 active torsions:
REMARK  status: ('A' for Active; 'I' for Inactive)
REMARK    1  A    between atoms: C_1  and  O_2
REMARK    2  A    between atoms: O_2  and  N_3
REMARK    3  A    between atoms: C_4  and  C_5
REMARK    4  A    between atoms: C_4  and  C_24
REMARK    5  A    between atoms: N_7  and  CA_8
REMARK    6  A    between atoms: CA_8  and  C_10
REMARK    7  A    between atoms: CA_8  and  C_12
REMARK    8  A    between atoms: CA_15  and  C_17
REMARK    9  A    between atoms: C_17  and  O_18
REMARK   10  A    between atoms: C_20  and  C_21
REMARK   11  A    between atoms: C_20  and  C_22
REMARK                            x       y       z     vdW  Elec       q    Type
REMARK                         _______ _______ _______ _____ _____    ______ ____
ROOT
ATOM      1  C   UNL     1      10.054   1.113  24.001  0.00  0.00    +0.268 C 
ATOM      2  N   UNL     1       9.027   0.386  23.411  0.00  0.00    -0.298 N 
ATOM      3  H   UNL     1       8.508   0.792  22.647  0.00  0.00    +0.150 HD
ATOM      4  O   UNL     1      10.913   0.579  24.695  0.00  0.00    -0.268 OA
ENDROOT
BRANCH   1   6
ATOM      5  N   UNL     1      11.303   3.125  23.534  0.00  0.00    -0.078 NA
ATOM      6  C   UNL     1      10.096   2.660  23.765  0.00  0.00    +0.190 C 
BRANCH   6   7
ATOM      7  C   UNL     1       8.877   3.522  23.840  0.00  0.00    +0.107 A 
ATOM      8  N   UNL     1       7.951   3.600  22.777  0.00  0.00    -0.223 NA
ATOM      9  C   UNL     1       6.983   4.431  23.026  0.00  0.00    +0.156 A 
ATOM     10  N   UNL     1       6.032   4.730  22.129  0.00  0.00    -0.338 N 
ATOM     11  H   UNL     1       5.986   4.140  21.306  0.00  0.00    +0.144 HD
ATOM     12  H   UNL     1       5.158   5.135  22.433  0.00  0.00    +0.144 HD
ATOM     13  S   UNL     1       6.995   5.113  24.589  0.00  0.00    -0.060 S 
ATOM     14  C   UNL     1       8.496   4.338  24.895  0.00  0.00    +0.078 A 
ENDBRANCH   6   7
BRANCH   5  16
ATOM     15  C   UNL     1      12.710   4.950  23.327  0.00  0.00    +0.313 C 
ATOM     16  O   UNL     1      11.360   4.518  23.393  0.00  0.00    -0.396 OA
ENDBRANCH   5  16
ENDBRANCH   1   6
BRANCH   2  17
ATOM     17  CA  UNL     1       8.770  -1.018  23.775  0.00  0.00    +0.163 C 
BRANCH  17  18
ATOM     18  C   UNL     1       7.270  -1.432  23.597  0.00  0.00    +0.141 C 
ATOM     19  S   UNL     1       7.077  -2.894  22.543  0.00  0.00    -0.131 S 
ATOM     20  C   UNL     1       6.819  -4.058  23.939  0.00  0.00    +0.038 C 
ATOM     21  C   UNL     1       7.969  -5.068  23.908  0.00  0.00    +0.024 C 
ATOM     22  C   UNL     1       5.489  -4.782  23.678  0.00  0.00    +0.024 C 
ATOM     23  CA  UNL     1       6.714  -3.160  25.201  0.00  0.00    +0.180 C 
ATOM     24  N   UNL     1       6.483  -1.728  24.805  0.00  0.00    -0.290 NA
ATOM     25  H   UNL     1       5.500  -1.669  24.529  0.00  0.00    +0.124 HD
BRANCH  23  26
ATOM     26  C   UNL     1       7.834  -3.258  26.241  0.00  0.00    +0.323 C 
ATOM     27  OXT UNL     1       8.761  -2.484  26.395  0.00  0.00    -0.249 OA
BRANCH  26  28
ATOM     28  O   UNL     1       7.658  -4.264  27.127  0.00  0.00    -0.479 OA
ATOM     29  H   UNL     1       7.983  -3.877  27.971  0.00  0.00    +0.295 HD
ENDBRANCH  26  28
ENDBRANCH  23  26
ENDBRANCH  17  18
BRANCH  17  30
ATOM     30  C   UNL     1       9.629  -1.896  22.867  0.00  0.00    +0.247 C 
ATOM     31  O   UNL     1      10.532  -2.634  23.249  0.00  0.00    -0.299 OA
ENDBRANCH  17  30
ENDBRANCH   2  17
TORSDOF 8
ENDMDL
MODEL 6
REMARK VINA RESULT:      -6.4      2.434      3.038
REMARK  Name = 
REMARK  11 active torsions:
REMARK  status: ('A' for Active; 'I' for Inactive)
REMARK    1  A    between atoms: C_1  and  O_2
REMARK    2  A    between atoms: O_2  and  N_3
REMARK    3  A    between atoms: C_4  and  C_5
REMARK    4  A    between atoms: C_4  and  C_24
REMARK    5  A    between atoms: N_7  and  CA_8
REMARK    6  A    between atoms: CA_8  and  C_10
REMARK    7  A    between atoms: CA_8  and  C_12
REMARK    8  A    between atoms: CA_15  and  C_17
REMARK    9  A    between atoms: C_17  and  O_18
REMARK   10  A    between atoms: C_20  and  C_21
REMARK   11  A    between atoms: C_20  and  C_22
REMARK                            x       y       z     vdW  Elec       q    Type
REMARK                         _______ _______ _______ _____ _____    ______ ____
ROOT
ATOM      1  C   UNL     1       5.425  -4.246  23.297  0.00  0.00    +0.268 C 
ATOM      2  N   UNL     1       6.535  -3.997  24.094  0.00  0.00    -0.298 N 
ATOM      3  H   UNL     1       6.790  -4.660  24.810  0.00  0.00    +0.150 HD
ATOM      4  O   UNL     1       5.248  -3.668  22.230  0.00  0.00    -0.268 OA
ENDROOT
BRANCH   1   6
ATOM      5  N   UNL     1       3.685  -5.852  22.824  0.00  0.00    -0.078 NA
ATOM      6  C   UNL     1       4.377  -5.296  23.795  0.00  0.00    +0.190 C 
BRANCH   6   7
ATOM      7  C   UNL     1       4.162  -5.600  25.243  0.00  0.00    +0.107 A 
ATOM      8  N   UNL     1       5.035  -6.442  25.967  0.00  0.00    -0.223 NA
ATOM      9  C   UNL     1       4.653  -6.607  27.197  0.00  0.00    +0.156 A 
ATOM     10  N   UNL     1       5.280  -7.431  28.050  0.00  0.00    -0.338 N 
ATOM     11  H   UNL     1       6.183  -7.784  27.755  0.00  0.00    +0.144 HD
ATOM     12  H   UNL     1       5.152  -7.323  29.046  0.00  0.00    +0.144 HD
ATOM     13  S   UNL     1       3.295  -5.687  27.667  0.00  0.00    -0.060 S 
ATOM     14  C   UNL     1       3.130  -5.141  26.047  0.00  0.00    +0.078 A 
ENDBRANCH   6   7
BRANCH   5  16
ATOM     15  C   UNL     1       1.431  -6.367  22.742  0.00  0.00    +0.313 C 
ATOM     16  O   UNL     1       2.695  -6.741  23.266  0.00  0.00    -0.396 OA
ENDBRANCH   5  16
ENDBRANCH   1   6
BRANCH   2  17
ATOM     17  CA  UNL     1       7.435  -2.861  23.828  0.00  0.00    +0.163 C 
BRANCH  17  18
ATOM     18  C   UNL     1       6.821  -1.483  24.248  0.00  0.00    +0.141 C 
ATOM     19  S   UNL     1       7.705  -0.726  25.637  0.00  0.00    -0.131 S 
ATOM     20  C   UNL     1       8.644   0.459  24.596  0.00  0.00    +0.038 C 
ATOM     21  C   UNL     1      10.130   0.128  24.756  0.00  0.00    +0.024 C 
ATOM     22  C   UNL     1       8.365   1.863  25.153  0.00  0.00    +0.024 C 
ATOM     23  CA  UNL     1       8.046   0.308  23.171  0.00  0.00    +0.180 C 
ATOM     24  N   UNL     1       6.733  -0.423  23.230  0.00  0.00    -0.290 NA
ATOM     25  H   UNL     1       6.052   0.255  23.580  0.00  0.00    +0.124 HD
BRANCH  23  26
ATOM     26  C   UNL     1       8.944  -0.284  22.080  0.00  0.00    +0.323 C 
ATOM     27  OXT UNL     1       8.867  -1.397  21.591  0.00  0.00    -0.249 OA
BRANCH  26  28
ATOM     28  O   UNL     1       9.819   0.607  21.563  0.00  0.00    -0.479 OA
ATOM     29  H   UNL     1      10.391   0.829  22.332  0.00  0.00    +0.295 HD
ENDBRANCH  26  28
ENDBRANCH  23  26
ENDBRANCH  17  18
BRANCH  17  30
ATOM     30  C   UNL     1       8.715  -3.088  24.629  0.00  0.00    +0.247 C 
ATOM     31  O   UNL     1       9.804  -3.388  24.148  0.00  0.00    -0.299 OA
ENDBRANCH  17  30
ENDBRANCH   2  17
TORSDOF 8
ENDMDL
MODEL 7
REMARK VINA RESULT:      -6.3      2.517      3.106
REMARK  Name = 
REMARK  11 active torsions:
REMARK  status: ('A' for Active; 'I' for Inactive)
REMARK    1  A    between atoms: C_1  and  O_2
REMARK    2  A    between atoms: O_2  and  N_3
REMARK    3  A    between atoms: C_4  and  C_5
REMARK    4  A    between atoms: C_4  and  C_24
REMARK    5  A    between atoms: N_7  and  CA_8
REMARK    6  A    between atoms: CA_8  and  C_10
REMARK    7  A    between atoms: CA_8  and  C_12
REMARK    8  A    between atoms: CA_15  and  C_17
REMARK    9  A    between atoms: C_17  and  O_18
REMARK   10  A    between atoms: C_20  and  C_21
REMARK   11  A    between atoms: C_20  and  C_22
REMARK                            x       y       z     vdW  Elec       q    Type
REMARK                         _______ _______ _______ _____ _____    ______ ____
ROOT
ATOM      1  C   UNL     1       6.310  -2.825  24.211  0.00  0.00    +0.268 C 
ATOM      2  N   UNL     1       6.253  -1.486  23.843  0.00  0.00    -0.298 N 
ATOM      3  H   UNL     1       5.666  -1.209  23.071  0.00  0.00    +0.150 HD
ATOM      4  O   UNL     1       6.734  -3.181  25.305  0.00  0.00    -0.268 OA
ENDROOT
BRANCH   1   6
ATOM      5  N   UNL     1       6.388  -3.798  22.003  0.00  0.00    -0.078 NA
ATOM      6  C   UNL     1       5.817  -3.897  23.183  0.00  0.00    +0.190 C 
BRANCH   6   7
ATOM      7  C   UNL     1       4.765  -4.907  23.511  0.00  0.00    +0.107 A 
ATOM      8  N   UNL     1       3.449  -4.807  23.009  0.00  0.00    -0.223 NA
ATOM      9  C   UNL     1       2.682  -5.762  23.441  0.00  0.00    +0.156 A 
ATOM     10  N   UNL     1       1.371  -5.824  23.163  0.00  0.00    -0.338 N 
ATOM     11  H   UNL     1       1.032  -5.196  22.443  0.00  0.00    +0.144 HD
ATOM     12  H   UNL     1       0.874  -6.698  23.257  0.00  0.00    +0.144 HD
ATOM     13  S   UNL     1       3.461  -6.950  24.384  0.00  0.00    -0.060 S 
ATOM     14  C   UNL     1       4.906  -6.025  24.320  0.00  0.00    +0.078 A 
ENDBRANCH   6   7
BRANCH   5  16
ATOM     15  C   UNL     1       6.703  -5.877  21.039  0.00  0.00    +0.313 C 
ATOM     16  O   UNL     1       5.900  -4.708  21.055  0.00  0.00    -0.396 OA
ENDBRANCH   5  16
ENDBRANCH   1   6
BRANCH   2  17
ATOM     17  CA  UNL     1       6.917  -0.439  24.640  0.00  0.00    +0.163 C 
BRANCH  17  18
ATOM     18  C   UNL     1       7.292   0.826  23.797  0.00  0.00    +0.141 C 
ATOM     19  S   UNL     1       8.470   1.903  24.655  0.00  0.00    -0.131 S 
ATOM     20  C   UNL     1       9.930   1.326  23.703  0.00  0.00    +0.038 C 
ATOM     21  C   UNL     1      10.894   0.674  24.698  0.00  0.00    +0.024 C 
ATOM     22  C   UNL     1      10.586   2.572  23.090  0.00  0.00    +0.024 C 
ATOM     23  CA  UNL     1       9.352   0.410  22.591  0.00  0.00    +0.180 C 
ATOM     24  N   UNL     1       7.869   0.622  22.458  0.00  0.00    -0.290 NA
ATOM     25  H   UNL     1       7.757   1.508  21.960  0.00  0.00    +0.124 HD
BRANCH  23  26
ATOM     26  C   UNL     1       9.678  -1.086  22.657  0.00  0.00    +0.323 C 
ATOM     27  OXT UNL     1       9.443  -1.847  23.578  0.00  0.00    -0.249 OA
BRANCH  26  28
ATOM     28  O   UNL     1      10.171  -1.579  21.499  0.00  0.00    -0.479 OA
ATOM     29  H   UNL     1      11.109  -1.280  21.511  0.00  0.00    +0.295 HD
ENDBRANCH  26  28
ENDBRANCH  23  26
ENDBRANCH  17  18
BRANCH  17  30
ATOM     30  C   UNL     1       5.951  -0.020  25.746  0.00  0.00    +0.247 C 
ATOM     31  O   UNL     1       4.756   0.211  25.588  0.00  0.00    -0.299 OA
ENDBRANCH  17  30
ENDBRANCH   2  17
TORSDOF 8
ENDMDL
MODEL 8
REMARK VINA RESULT:      -6.2      1.881      2.717
REMARK  Name = 
REMARK  11 active torsions:
REMARK  status: ('A' for Active; 'I' for Inactive)
REMARK    1  A    between atoms: C_1  and  O_2
REMARK    2  A    between atoms: O_2  and  N_3
REMARK    3  A    between atoms: C_4  and  C_5
REMARK    4  A    between atoms: C_4  and  C_24
REMARK    5  A    between atoms: N_7  and  CA_8
REMARK    6  A    between atoms: CA_8  and  C_10
REMARK    7  A    between atoms: CA_8  and  C_12
REMARK    8  A    between atoms: CA_15  and  C_17
REMARK    9  A    between atoms: C_17  and  O_18
REMARK   10  A    between atoms: C_20  and  C_21
REMARK   11  A    between atoms: C_20  and  C_22
REMARK                            x       y       z     vdW  Elec       q    Type
REMARK                         _______ _______ _______ _____ _____    ______ ____
ROOT
ATOM      1  C   UNL     1       8.202  -2.520  24.785  0.00  0.00    +0.268 C 
ATOM      2  N   UNL     1       7.588  -1.456  25.436  0.00  0.00    -0.298 N 
ATOM      3  H   UNL     1       7.018  -1.635  26.249  0.00  0.00    +0.150 HD
ATOM      4  O   UNL     1       9.138  -2.355  24.012  0.00  0.00    -0.268 OA
ENDROOT
BRANCH   1   6
ATOM      5  N   UNL     1       7.877  -4.382  26.287  0.00  0.00    -0.078 NA
ATOM      6  C   UNL     1       7.665  -3.964  25.058  0.00  0.00    +0.190 C 
BRANCH   6   7
ATOM      7  C   UNL     1       7.011  -4.796  24.002  0.00  0.00    +0.107 A 
ATOM      8  N   UNL     1       5.620  -5.041  23.998  0.00  0.00    -0.223 NA
ATOM      9  C   UNL     1       5.258  -5.815  23.019  0.00  0.00    +0.156 A 
ATOM     10  N   UNL     1       3.999  -6.250  22.863  0.00  0.00    -0.338 N 
ATOM     11  H   UNL     1       3.292  -5.801  23.433  0.00  0.00    +0.144 HD
ATOM     12  H   UNL     1       3.689  -6.595  21.965  0.00  0.00    +0.144 HD
ATOM     13  S   UNL     1       6.499  -6.235  21.927  0.00  0.00    -0.060 S 
ATOM     14  C   UNL     1       7.632  -5.429  22.936  0.00  0.00    +0.078 A 
ENDBRANCH   6   7
BRANCH   5  16
ATOM     15  C   UNL     1       6.639  -5.761  27.672  0.00  0.00    +0.313 C 
ATOM     16  O   UNL     1       7.463  -5.702  26.520  0.00  0.00    -0.396 OA
ENDBRANCH   5  16
ENDBRANCH   1   6
BRANCH   2  17
ATOM     17  CA  UNL     1       7.862  -0.060  25.056  0.00  0.00    +0.163 C 
BRANCH  17  18
ATOM     18  C   UNL     1       6.848   0.497  23.999  0.00  0.00    +0.141 C 
ATOM     19  S   UNL     1       6.312   2.186  24.379  0.00  0.00    -0.131 S 
ATOM     20  C   UNL     1       7.419   2.980  23.149  0.00  0.00    +0.038 C 
ATOM     21  C   UNL     1       8.390   3.877  23.922  0.00  0.00    +0.024 C 
ATOM     22  C   UNL     1       6.531   3.844  22.240  0.00  0.00    +0.024 C 
ATOM     23  CA  UNL     1       8.043   1.806  22.348  0.00  0.00    +0.180 C 
ATOM     24  N   UNL     1       7.269   0.539  22.589  0.00  0.00    -0.290 NA
ATOM     25  H   UNL     1       6.412   0.626  22.038  0.00  0.00    +0.124 HD
BRANCH  23  26
ATOM     26  C   UNL     1       9.546   1.556  22.502  0.00  0.00    +0.323 C 
ATOM     27  OXT UNL     1      10.084   0.767  23.256  0.00  0.00    -0.249 OA
BRANCH  26  28
ATOM     28  O   UNL     1      10.297   2.226  21.598  0.00  0.00    -0.479 OA
ATOM     29  H   UNL     1       9.813   3.076  21.494  0.00  0.00    +0.295 HD
ENDBRANCH  26  28
ENDBRANCH  23  26
ENDBRANCH  17  18
BRANCH  17  30
ATOM     30  C   UNL     1       7.764   0.791  26.321  0.00  0.00    +0.247 C 
ATOM     31  O   UNL     1       7.517   0.359  27.443  0.00  0.00    -0.299 OA
ENDBRANCH  17  30
ENDBRANCH   2  17
TORSDOF 8
ENDMDL
MODEL 9
REMARK VINA RESULT:      -6.1      2.431      2.988
REMARK  Name = 
REMARK  11 active torsions:
REMARK  status: ('A' for Active; 'I' for Inactive)
REMARK    1  A    between atoms: C_1  and  O_2
REMARK    2  A    between atoms: O_2  and  N_3
REMARK    3  A    between atoms: C_4  and  C_5
REMARK    4  A    between atoms: C_4  and  C_24
REMARK    5  A    between atoms: N_7  and  CA_8
REMARK    6  A    between atoms: CA_8  and  C_10
REMARK    7  A    between atoms: CA_8  and  C_12
REMARK    8  A    between atoms: CA_15  and  C_17
REMARK    9  A    between atoms: C_17  and  O_18
REMARK   10  A    between atoms: C_20  and  C_21
REMARK   11  A    between atoms: C_20  and  C_22
REMARK                            x       y       z     vdW  Elec       q    Type
REMARK                         _______ _______ _______ _____ _____    ______ ____
ROOT
ATOM      1  C   UNL     1       7.988  -1.849  23.313  0.00  0.00    +0.268 C 
ATOM      2  N   UNL     1       8.812  -0.942  23.969  0.00  0.00    -0.298 N 
ATOM      3  H   UNL     1       9.686  -1.259  24.360  0.00  0.00    +0.150 HD
ATOM      4  O   UNL     1       7.095  -1.487  22.556  0.00  0.00    -0.268 OA
ENDROOT
BRANCH   1   6
ATOM      5  N   UNL     1       9.315  -3.638  24.247  0.00  0.00    -0.078 NA
ATOM      6  C   UNL     1       8.222  -3.377  23.565  0.00  0.00    +0.190 C 
BRANCH   6   7
ATOM      7  C   UNL     1       7.304  -4.432  23.037  0.00  0.00    +0.107 A 
ATOM      8  N   UNL     1       6.346  -5.067  23.858  0.00  0.00    -0.223 NA
ATOM      9  C   UNL     1       5.675  -5.977  23.219  0.00  0.00    +0.156 A 
ATOM     10  N   UNL     1       4.769  -6.767  23.815  0.00  0.00    -0.338 N 
ATOM     11  H   UNL     1       4.487  -6.503  24.752  0.00  0.00    +0.144 HD
ATOM     12  H   UNL     1       4.073  -7.247  23.263  0.00  0.00    +0.144 HD
ATOM     13  S   UNL     1       6.015  -6.095  21.551  0.00  0.00    -0.060 S 
ATOM     14  C   UNL     1       7.261  -4.929  21.744  0.00  0.00    +0.078 A 
ENDBRANCH   6   7
BRANCH   5  16
ATOM     15  C   UNL     1       9.564  -5.341  25.793  0.00  0.00    +0.313 C 
ATOM     16  O   UNL     1       9.570  -5.006  24.415  0.00  0.00    -0.396 OA
ENDBRANCH   5  16
ENDBRANCH   1   6
BRANCH   2  17
ATOM     17  CA  UNL     1       8.510   0.500  23.985  0.00  0.00    +0.163 C 
BRANCH  17  18
ATOM     18  C   UNL     1       7.196   0.841  24.766  0.00  0.00    +0.141 C 
ATOM     19  S   UNL     1       7.420   2.216  25.926  0.00  0.00    -0.131 S 
ATOM     20  C   UNL     1       6.627   3.466  24.840  0.00  0.00    +0.038 C 
ATOM     21  C   UNL     1       7.690   4.515  24.502  0.00  0.00    +0.024 C 
ATOM     22  C   UNL     1       5.500   4.117  25.656  0.00  0.00    +0.024 C 
ATOM     23  CA  UNL     1       6.043   2.657  23.651  0.00  0.00    +0.180 C 
ATOM     24  N   UNL     1       5.997   1.192  23.988  0.00  0.00    -0.290 NA
ATOM     25  H   UNL     1       5.202   1.076  24.621  0.00  0.00    +0.124 HD
BRANCH  23  26
ATOM     26  C   UNL     1       6.666   2.872  22.268  0.00  0.00    +0.323 C 
ATOM     27  OXT UNL     1       7.364   2.089  21.649  0.00  0.00    -0.249 OA
BRANCH  26  28
ATOM     28  O   UNL     1       6.269   4.019  21.673  0.00  0.00    -0.479 OA
ATOM     29  H   UNL     1       6.644   3.942  20.767  0.00  0.00    +0.295 HD
ENDBRANCH  26  28
ENDBRANCH  23  26
ENDBRANCH  17  18
BRANCH  17  30
ATOM     30  C   UNL     1       9.680   1.209  24.664  0.00  0.00    +0.247 C 
ATOM     31  O   UNL     1      10.770   0.699  24.903  0.00  0.00    -0.299 OA
ENDBRANCH  17  30
ENDBRANCH   2  17
TORSDOF 8
ENDMDL
