MODEL 1
REMARK VINA RESULT:      -7.1      0.000      0.000
REMARK  Name = 
REMARK  10 active torsions:
REMARK  status: ('A' for Active; 'I' for Inactive)
REMARK    1  A    between atoms: C_5  and  C_6
REMARK    2  A    between atoms: C_6  and  O_7
REMARK    3  A    between atoms: O_7  and  C_8
REMARK    4  A    between atoms: CA_9  and  C_28
REMARK    5  A    between atoms: CA_13  and  N_15
REMARK    6  A    between atoms: C_16  and  C_18
REMARK    7  A    between atoms: C_18  and  C_22
REMARK    8  A    between atoms: N_19  and  O_20
REMARK    9  A    between atoms: O_20  and  C_21
REMARK   10  A    between atoms: C_28  and  O_29
REMARK                            x       y       z     vdW  Elec       q    Type
REMARK                         _______ _______ _______ _____ _____    ______ ____
ROOT
ATOM      1  C   UNL     1       7.558  -1.420  23.113  0.00  0.00    +0.169 C 
ATOM      2  CA  UNL     1       8.559  -2.664  23.095  0.00  0.00    +0.191 C 
ATOM      3  C   UNL     1       9.501  -1.569  22.534  0.00  0.00    +0.244 C 
ATOM      4  O   UNL     1      10.614  -1.525  22.029  0.00  0.00    -0.273 OA
ATOM      5  N   UNL     1       8.738  -0.607  23.066  0.00  0.00    -0.249 N 
ATOM      6  CA  UNL     1       8.868   0.709  23.410  0.00  0.00    +0.124 C 
ATOM      7  C   UNL     1       7.961   1.289  24.245  0.00  0.00    -0.006 C 
ATOM      8  C   UNL     1       6.751   0.623  24.843  0.00  0.00    +0.106 C 
ATOM      9  S   UNL     1       6.296  -1.038  24.295  0.00  0.00    -0.131 S 
ENDROOT
BRANCH   2  10
ATOM     10  N   UNL     1       9.260  -3.463  24.185  0.00  0.00    -0.296 N 
ATOM     11  H   UNL     1      10.273  -3.435  24.196  0.00  0.00    +0.150 HD
ATOM     12  C   UNL     1       8.847  -4.183  25.337  0.00  0.00    +0.268 C 
ATOM     13  O   UNL     1       9.729  -4.626  26.061  0.00  0.00    -0.268 OA
BRANCH  12  14
ATOM     14  C   UNL     1       7.397  -4.593  25.598  0.00  0.00    +0.190 C 
ATOM     15  N   UNL     1       6.537  -5.072  24.740  0.00  0.00    -0.078 NA
BRANCH  14  16
ATOM     16  C   UNL     1       6.874  -4.768  26.976  0.00  0.00    +0.107 A 
ATOM     17  N   UNL     1       7.256  -5.871  27.732  0.00  0.00    -0.223 NA
ATOM     18  C   UNL     1       6.363  -6.132  28.652  0.00  0.00    +0.156 A 
ATOM     19  N   UNL     1       6.376  -7.257  29.381  0.00  0.00    -0.338 N 
ATOM     20  H   UNL     1       7.213  -7.824  29.313  0.00  0.00    +0.144 HD
ATOM     21  H   UNL     1       5.915  -7.270  30.282  0.00  0.00    +0.144 HD
ATOM     22  S   UNL     1       5.140  -4.947  28.847  0.00  0.00    -0.060 S 
ATOM     23  C   UNL     1       5.771  -4.100  27.492  0.00  0.00    +0.078 A 
ENDBRANCH  14  16
BRANCH  15  24
ATOM     24  O   UNL     1       6.844  -5.481  23.435  0.00  0.00    -0.396 OA
ATOM     25  C   UNL     1       5.869  -5.398  22.429  0.00  0.00    +0.313 C 
ENDBRANCH  15  24
ENDBRANCH  12  14
ENDBRANCH   2  10
BRANCH   6  26
ATOM     26  C   UNL     1      10.096   1.497  22.971  0.00  0.00    +0.351 C 
ATOM     27  OXT UNL     1      11.090   1.693  23.652  0.00  0.00    -0.244 OA
BRANCH  26  28
ATOM     28  O   UNL     1      10.048   2.044  21.740  0.00  0.00    -0.476 OA
ATOM     29  H   UNL     1       9.750   1.473  21.000  0.00  0.00    +0.295 HD
ENDBRANCH  26  28
ENDBRANCH   6  26
BRANCH   7  30
ATOM     30  C   UNL     1       8.117   2.695  24.803  0.00  0.00    +0.193 C 
BRANCH  30  31
ATOM     31  O   UNL     1       7.449   3.579  23.911  0.00  0.00    -0.379 OA
ATOM     32  C   UNL     1       8.258   4.698  23.575  0.00  0.00    +0.194 C 
ENDBRANCH  30  31
ENDBRANCH   7  30
TORSDOF 8
ENDMDL
MODEL 2
REMARK VINA RESULT:      -6.8      3.562      6.044
REMARK  Name = 
REMARK  10 active torsions:
REMARK  status: ('A' for Active; 'I' for Inactive)
REMARK    1  A    between atoms: C_5  and  C_6
REMARK    2  A    between atoms: C_6  and  O_7
REMARK    3  A    between atoms: O_7  and  C_8
REMARK    4  A    between atoms: CA_9  and  C_28
REMARK    5  A    between atoms: CA_13  and  N_15
REMARK    6  A    between atoms: C_16  and  C_18
REMARK    7  A    between atoms: C_18  and  C_22
REMARK    8  A    between atoms: N_19  and  O_20
REMARK    9  A    between atoms: O_20  and  C_21
REMARK   10  A    between atoms: C_28  and  O_29
REMARK                            x       y       z     vdW  Elec       q    Type
REMARK                         _______ _______ _______ _____ _____    ______ ____
ROOT
ATOM      1  C   UNL     1       2.879  -5.228  25.761  0.00  0.00    +0.169 C 
ATOM      2  CA  UNL     1       3.236  -6.698  26.272  0.00  0.00    +0.191 C 
ATOM      3  C   UNL     1       3.926  -6.734  24.885  0.00  0.00    +0.244 C 
ATOM      4  O   UNL     1       4.461  -7.577  24.178  0.00  0.00    -0.273 OA
ATOM      5  N   UNL     1       3.970  -5.397  24.846  0.00  0.00    -0.249 N 
ATOM      6  CA  UNL     1       4.668  -4.430  24.180  0.00  0.00    +0.124 C 
ATOM      7  C   UNL     1       4.672  -3.149  24.644  0.00  0.00    -0.006 C 
ATOM      8  C   UNL     1       3.934  -2.640  25.854  0.00  0.00    +0.106 C 
ATOM      9  S   UNL     1       2.768  -3.731  26.701  0.00  0.00    -0.131 S 
ENDROOT
BRANCH   2  10
ATOM     10  N   UNL     1       4.169  -7.238  27.346  0.00  0.00    -0.296 N 
ATOM     11  H   UNL     1       4.022  -8.195  27.647  0.00  0.00    +0.150 HD
ATOM     12  C   UNL     1       5.344  -6.771  27.994  0.00  0.00    +0.268 C 
ATOM     13  O   UNL     1       5.902  -7.547  28.758  0.00  0.00    -0.268 OA
BRANCH  12  14
ATOM     14  C   UNL     1       5.815  -5.318  27.938  0.00  0.00    +0.190 C 
ATOM     15  N   UNL     1       5.609  -4.378  28.823  0.00  0.00    -0.078 NA
BRANCH  14  16
ATOM     16  C   UNL     1       6.845  -4.869  26.968  0.00  0.00    +0.107 A 
ATOM     17  N   UNL     1       7.662  -5.801  26.338  0.00  0.00    -0.223 NA
ATOM     18  C   UNL     1       8.780  -5.245  25.947  0.00  0.00    +0.156 A 
ATOM     19  N   UNL     1       9.828  -5.953  25.500  0.00  0.00    -0.338 N 
ATOM     20  H   UNL     1       9.657  -6.933  25.311  0.00  0.00    +0.144 HD
ATOM     21  H   UNL     1      10.507  -5.507  24.898  0.00  0.00    +0.144 HD
ATOM     22  S   UNL     1       8.835  -3.537  26.072  0.00  0.00    -0.060 S 
ATOM     23  C   UNL     1       7.305  -3.564  26.853  0.00  0.00    +0.078 A 
ENDBRANCH  14  16
BRANCH  15  24
ATOM     24  O   UNL     1       5.068  -4.580  30.099  0.00  0.00    -0.396 OA
ATOM     25  C   UNL     1       3.906  -3.891  30.482  0.00  0.00    +0.313 C 
ENDBRANCH  15  24
ENDBRANCH  12  14
ENDBRANCH   2  10
BRANCH   6  26
ATOM     26  C   UNL     1       5.551  -4.802  22.995  0.00  0.00    +0.351 C 
ATOM     27  OXT UNL     1       5.278  -4.606  21.822  0.00  0.00    -0.244 OA
BRANCH  26  28
ATOM     28  O   UNL     1       6.708  -5.430  23.285  0.00  0.00    -0.476 OA
ATOM     29  H   UNL     1       6.886  -6.285  22.838  0.00  0.00    +0.295 HD
ENDBRANCH  26  28
ENDBRANCH   6  26
BRANCH   7  30
ATOM     30  C   UNL     1       5.545  -2.050  24.060  0.00  0.00    +0.193 C 
BRANCH  30  31
ATOM     31  O   UNL     1       5.329  -0.880  24.841  0.00  0.00    -0.379 OA
ATOM     32  C   UNL     1       6.510  -0.098  24.954  0.00  0.00    +0.194 C 
ENDBRANCH  30  31
ENDBRANCH   7  30
TORSDOF 8
ENDMDL
MODEL 3
REMARK VINA RESULT:      -6.7      2.464      4.107
REMARK  Name = 
REMARK  10 active torsions:
REMARK  status: ('A' for Active; 'I' for Inactive)
REMARK    1  A    between atoms: C_5  and  C_6
REMARK    2  A    between atoms: C_6  and  O_7
REMARK    3  A    between atoms: O_7  and  C_8
REMARK    4  A    between atoms: CA_9  and  C_28
REMARK    5  A    between atoms: CA_13  and  N_15
REMARK    6  A    between atoms: C_16  and  C_18
REMARK    7  A    between atoms: C_18  and  C_22
REMARK    8  A    between atoms: N_19  and  O_20
REMARK    9  A    between atoms: O_20  and  C_21
REMARK   10  A    between atoms: C_28  and  O_29
REMARK                            x       y       z     vdW  Elec       q    Type
REMARK                         _______ _______ _______ _____ _____    ______ ____
ROOT
ATOM      1  C   UNL     1       7.167  -4.888  23.470  0.00  0.00    +0.169 C 
ATOM      2  CA  UNL     1       7.659  -5.711  24.746  0.00  0.00    +0.191 C 
ATOM      3  C   UNL     1       8.937  -4.880  24.467  0.00  0.00    +0.244 C 
ATOM      4  O   UNL     1      10.091  -4.857  24.873  0.00  0.00    -0.273 OA
ATOM      5  N   UNL     1       8.228  -3.976  23.780  0.00  0.00    -0.249 N 
ATOM      6  CA  UNL     1       8.369  -2.678  23.378  0.00  0.00    +0.124 C 
ATOM      7  C   UNL     1       7.281  -1.969  22.968  0.00  0.00    -0.006 C 
ATOM      8  C   UNL     1       5.869  -2.483  22.873  0.00  0.00    +0.106 C 
ATOM      9  S   UNL     1       5.552  -4.244  23.130  0.00  0.00    -0.131 S 
ENDROOT
BRANCH   2  10
ATOM     10  N   UNL     1       7.306  -5.665  26.226  0.00  0.00    -0.296 N 
ATOM     11  H   UNL     1       7.680  -6.403  26.812  0.00  0.00    +0.150 HD
ATOM     12  C   UNL     1       6.653  -4.739  27.082  0.00  0.00    +0.268 C 
ATOM     13  O   UNL     1       6.642  -5.000  28.277  0.00  0.00    -0.268 OA
BRANCH  12  14
ATOM     14  C   UNL     1       5.812  -3.569  26.571  0.00  0.00    +0.190 C 
ATOM     15  N   UNL     1       4.533  -3.563  26.301  0.00  0.00    -0.078 NA
BRANCH  14  16
ATOM     16  C   UNL     1       6.319  -2.174  26.598  0.00  0.00    +0.107 A 
ATOM     17  N   UNL     1       7.688  -1.931  26.649  0.00  0.00    -0.223 NA
ATOM     18  C   UNL     1       7.928  -0.751  27.162  0.00  0.00    +0.156 A 
ATOM     19  N   UNL     1       9.156  -0.348  27.517  0.00  0.00    -0.338 N 
ATOM     20  H   UNL     1       9.924  -0.932  27.208  0.00  0.00    +0.144 HD
ATOM     21  H   UNL     1       9.358   0.642  27.570  0.00  0.00    +0.144 HD
ATOM     22  S   UNL     1       6.553   0.247  27.386  0.00  0.00    -0.060 S 
ATOM     23  C   UNL     1       5.548  -1.060  26.902  0.00  0.00    +0.078 A 
ENDBRANCH  14  16
BRANCH  15  24
ATOM     24  O   UNL     1       3.641  -4.597  26.614  0.00  0.00    -0.396 OA
ATOM     25  C   UNL     1       2.674  -4.407  27.615  0.00  0.00    +0.313 C 
ENDBRANCH  15  24
ENDBRANCH  12  14
ENDBRANCH   2  10
BRANCH   6  26
ATOM     26  C   UNL     1       9.716  -1.977  23.511  0.00  0.00    +0.351 C 
ATOM     27  OXT UNL     1      10.622  -2.030  22.695  0.00  0.00    -0.244 OA
BRANCH  26  28
ATOM     28  O   UNL     1       9.917  -1.277  24.645  0.00  0.00    -0.476 OA
ATOM     29  H   UNL     1      10.835  -1.004  24.854  0.00  0.00    +0.295 HD
ENDBRANCH  26  28
ENDBRANCH   6  26
BRANCH   7  30
ATOM     30  C   UNL     1       7.320  -0.481  22.657  0.00  0.00    +0.193 C 
BRANCH  30  31
ATOM     31  O   UNL     1       7.216   0.211  23.895  0.00  0.00    -0.379 OA
ATOM     32  C   UNL     1       7.805   1.503  23.827  0.00  0.00    +0.194 C 
ENDBRANCH  30  31
ENDBRANCH   7  30
TORSDOF 8
ENDMDL
MODEL 4
REMARK VINA RESULT:      -6.6      2.939      3.824
REMARK  Name = 
REMARK  10 active torsions:
REMARK  status: ('A' for Active; 'I' for Inactive)
REMARK    1  A    between atoms: C_5  and  C_6
REMARK    2  A    between atoms: C_6  and  O_7
REMARK    3  A    between atoms: O_7  and  C_8
REMARK    4  A    between atoms: CA_9  and  C_28
REMARK    5  A    between atoms: CA_13  and  N_15
REMARK    6  A    between atoms: C_16  and  C_18
REMARK    7  A    between atoms: C_18  and  C_22
REMARK    8  A    between atoms: N_19  and  O_20
REMARK    9  A    between atoms: O_20  and  C_21
REMARK   10  A    between atoms: C_28  and  O_29
REMARK                            x       y       z     vdW  Elec       q    Type
REMARK                         _______ _______ _______ _____ _____    ______ ____
ROOT
ATOM      1  C   UNL     1       8.182  -0.001  23.456  0.00  0.00    +0.169 C 
ATOM      2  CA  UNL     1       7.303  -1.335  23.446  0.00  0.00    +0.191 C 
ATOM      3  C   UNL     1       6.336  -0.394  24.211  0.00  0.00    +0.244 C 
ATOM      4  O   UNL     1       5.286  -0.508  24.828  0.00  0.00    -0.273 OA
ATOM      5  N   UNL     1       6.948   0.684  23.705  0.00  0.00    -0.249 N 
ATOM      6  CA  UNL     1       6.665   2.006  23.514  0.00  0.00    +0.124 C 
ATOM      7  C   UNL     1       7.419   2.749  22.656  0.00  0.00    -0.006 C 
ATOM      8  C   UNL     1       8.609   2.264  21.872  0.00  0.00    +0.106 C 
ATOM      9  S   UNL     1       9.267   0.612  22.197  0.00  0.00    -0.131 S 
ENDROOT
BRANCH   2  10
ATOM     10  N   UNL     1       6.558  -2.093  22.357  0.00  0.00    -0.296 N 
ATOM     11  H   UNL     1       6.514  -1.660  21.442  0.00  0.00    +0.150 HD
ATOM     12  C   UNL     1       5.977  -3.384  22.240  0.00  0.00    +0.268 C 
ATOM     13  O   UNL     1       5.539  -3.697  21.141  0.00  0.00    -0.268 OA
BRANCH  12  14
ATOM     14  C   UNL     1       5.697  -4.293  23.436  0.00  0.00    +0.190 C 
ATOM     15  N   UNL     1       4.551  -4.804  23.799  0.00  0.00    -0.078 NA
BRANCH  14  16
ATOM     16  C   UNL     1       6.795  -4.957  24.184  0.00  0.00    +0.107 A 
ATOM     17  N   UNL     1       6.562  -5.465  25.458  0.00  0.00    -0.223 NA
ATOM     18  C   UNL     1       7.679  -5.538  26.136  0.00  0.00    +0.156 A 
ATOM     19  N   UNL     1       7.716  -5.795  27.451  0.00  0.00    -0.338 N 
ATOM     20  H   UNL     1       6.849  -6.106  27.870  0.00  0.00    +0.144 HD
ATOM     21  H   UNL     1       8.558  -6.182  27.857  0.00  0.00    +0.144 HD
ATOM     22  S   UNL     1       9.107  -5.249  25.234  0.00  0.00    -0.060 S 
ATOM     23  C   UNL     1       8.143  -4.845  23.871  0.00  0.00    +0.078 A 
ENDBRANCH  14  16
BRANCH  15  24
ATOM     24  O   UNL     1       3.375  -4.763  23.038  0.00  0.00    -0.396 OA
ATOM     25  C   UNL     1       2.431  -5.796  23.154  0.00  0.00    +0.313 C 
ENDBRANCH  15  24
ENDBRANCH  12  14
ENDBRANCH   2  10
BRANCH   6  26
ATOM     26  C   UNL     1       5.428   2.625  24.155  0.00  0.00    +0.351 C 
ATOM     27  OXT UNL     1       5.430   3.349  25.138  0.00  0.00    -0.244 OA
BRANCH  26  28
ATOM     28  O   UNL     1       4.243   2.307  23.598  0.00  0.00    -0.476 OA
ATOM     29  H   UNL     1       4.056   2.649  22.698  0.00  0.00    +0.295 HD
ENDBRANCH  26  28
ENDBRANCH   6  26
BRANCH   7  30
ATOM     30  C   UNL     1       7.079   4.178  22.265  0.00  0.00    +0.193 C 
BRANCH  30  31
ATOM     31  O   UNL     1       7.789   5.037  23.147  0.00  0.00    -0.379 OA
ATOM     32  C   UNL     1       7.965   6.334  22.592  0.00  0.00    +0.194 C 
ENDBRANCH  30  31
ENDBRANCH   7  30
TORSDOF 8
ENDMDL
MODEL 5
REMARK VINA RESULT:      -6.6      1.922      3.311
REMARK  Name = 
REMARK  10 active torsions:
REMARK  status: ('A' for Active; 'I' for Inactive)
REMARK    1  A    between atoms: C_5  and  C_6
REMARK    2  A    between atoms: C_6  and  O_7
REMARK    3  A    between atoms: O_7  and  C_8
REMARK    4  A    between atoms: CA_9  and  C_28
REMARK    5  A    between atoms: CA_13  and  N_15
REMARK    6  A    between atoms: C_16  and  C_18
REMARK    7  A    between atoms: C_18  and  C_22
REMARK    8  A    between atoms: N_19  and  O_20
REMARK    9  A    between atoms: O_20  and  C_21
REMARK   10  A    between atoms: C_28  and  O_29
REMARK                            x       y       z     vdW  Elec       q    Type
REMARK                         _______ _______ _______ _____ _____    ______ ____
ROOT
ATOM      1  C   UNL     1       6.812  -0.658  24.770  0.00  0.00    +0.169 C 
ATOM      2  CA  UNL     1       7.197  -2.204  24.669  0.00  0.00    +0.191 C 
ATOM      3  C   UNL     1       7.674  -1.729  23.273  0.00  0.00    +0.244 C 
ATOM      4  O   UNL     1       8.074  -2.252  22.243  0.00  0.00    -0.273 OA
ATOM      5  N   UNL     1       7.750  -0.464  23.704  0.00  0.00    -0.249 N 
ATOM      6  CA  UNL     1       8.371   0.694  23.328  0.00  0.00    +0.124 C 
ATOM      7  C   UNL     1       8.480   1.727  24.209  0.00  0.00    -0.006 C 
ATOM      8  C   UNL     1       7.943   1.756  25.615  0.00  0.00    +0.106 C 
ATOM      9  S   UNL     1       6.884   0.406  26.184  0.00  0.00    -0.131 S 
ENDROOT
BRANCH   2  10
ATOM     10  N   UNL     1       8.263  -3.065  25.331  0.00  0.00    -0.296 N 
ATOM     11  H   UNL     1       9.192  -2.668  25.410  0.00  0.00    +0.150 HD
ATOM     12  C   UNL     1       8.276  -4.306  26.022  0.00  0.00    +0.268 C 
ATOM     13  O   UNL     1       9.338  -4.651  26.524  0.00  0.00    -0.268 OA
BRANCH  12  14
ATOM     14  C   UNL     1       7.113  -5.298  25.994  0.00  0.00    +0.190 C 
ATOM     15  N   UNL     1       6.528  -5.870  27.012  0.00  0.00    -0.078 NA
BRANCH  14  16
ATOM     16  C   UNL     1       6.298  -5.509  24.771  0.00  0.00    +0.107 A 
ATOM     17  N   UNL     1       6.866  -5.322  23.515  0.00  0.00    -0.223 NA
ATOM     18  C   UNL     1       5.943  -5.054  22.627  0.00  0.00    +0.156 A 
ATOM     19  N   UNL     1       6.227  -4.629  21.388  0.00  0.00    -0.338 N 
ATOM     20  H   UNL     1       7.197  -4.692  21.106  0.00  0.00    +0.144 HD
ATOM     21  H   UNL     1       5.550  -4.768  20.648  0.00  0.00    +0.144 HD
ATOM     22  S   UNL     1       4.327  -5.250  23.164  0.00  0.00    -0.060 S 
ATOM     23  C   UNL     1       4.911  -5.569  24.748  0.00  0.00    +0.078 A 
ENDBRANCH  14  16
BRANCH  15  24
ATOM     24  O   UNL     1       6.740  -5.533  28.356  0.00  0.00    -0.396 OA
ATOM     25  C   UNL     1       6.032  -6.205  29.365  0.00  0.00    +0.313 C 
ENDBRANCH  15  24
ENDBRANCH  12  14
ENDBRANCH   2  10
BRANCH   6  26
ATOM     26  C   UNL     1       9.058   0.788  21.971  0.00  0.00    +0.351 C 
ATOM     27  OXT UNL     1      10.158   0.330  21.704  0.00  0.00    -0.244 OA
BRANCH  26  28
ATOM     28  O   UNL     1       8.399   1.466  21.011  0.00  0.00    -0.476 OA
ATOM     29  H   UNL     1       7.547   1.096  20.696  0.00  0.00    +0.295 HD
ENDBRANCH  26  28
ENDBRANCH   6  26
BRANCH   7  30
ATOM     30  C   UNL     1       9.289   2.983  23.929  0.00  0.00    +0.193 C 
BRANCH  30  31
ATOM     31  O   UNL     1       8.415   4.094  24.095  0.00  0.00    -0.379 OA
ATOM     32  C   UNL     1       7.686   4.372  22.907  0.00  0.00    +0.194 C 
ENDBRANCH  30  31
ENDBRANCH   7  30
TORSDOF 8
ENDMDL
MODEL 6
REMARK VINA RESULT:      -6.6      2.369      3.776
REMARK  Name = 
REMARK  10 active torsions:
REMARK  status: ('A' for Active; 'I' for Inactive)
REMARK    1  A    between atoms: C_5  and  C_6
REMARK    2  A    between atoms: C_6  and  O_7
REMARK    3  A    between atoms: O_7  and  C_8
REMARK    4  A    between atoms: CA_9  and  C_28
REMARK    5  A    between atoms: CA_13  and  N_15
REMARK    6  A    between atoms: C_16  and  C_18
REMARK    7  A    between atoms: C_18  and  C_22
REMARK    8  A    between atoms: N_19  and  O_20
REMARK    9  A    between atoms: O_20  and  C_21
REMARK   10  A    between atoms: C_28  and  O_29
REMARK                            x       y       z     vdW  Elec       q    Type
REMARK                         _______ _______ _______ _____ _____    ______ ____
ROOT
ATOM      1  C   UNL     1       6.917  -1.439  24.818  0.00  0.00    +0.169 C 
ATOM      2  CA  UNL     1       6.764  -3.021  24.979  0.00  0.00    +0.191 C 
ATOM      3  C   UNL     1       7.537  -2.972  23.636  0.00  0.00    +0.244 C 
ATOM      4  O   UNL     1       7.855  -3.767  22.763  0.00  0.00    -0.273 OA
ATOM      5  N   UNL     1       7.985  -1.741  23.911  0.00  0.00    -0.249 N 
ATOM      6  CA  UNL     1       9.001  -0.924  23.505  0.00  0.00    +0.124 C 
ATOM      7  C   UNL     1       9.348   0.159  24.255  0.00  0.00    -0.006 C 
ATOM      8  C   UNL     1       8.690   0.601  25.534  0.00  0.00    +0.106 C 
ATOM      9  S   UNL     1       7.176  -0.223  26.079  0.00  0.00    -0.131 S 
ENDROOT
BRANCH   2  10
ATOM     10  N   UNL     1       7.388  -4.045  25.916  0.00  0.00    -0.296 N 
ATOM     11  H   UNL     1       8.386  -3.971  26.081  0.00  0.00    +0.150 HD
ATOM     12  C   UNL     1       6.896  -5.068  26.770  0.00  0.00    +0.268 C 
ATOM     13  O   UNL     1       7.714  -5.644  27.475  0.00  0.00    -0.268 OA
BRANCH  12  14
ATOM     14  C   UNL     1       5.467  -5.606  26.701  0.00  0.00    +0.190 C 
ATOM     15  N   UNL     1       4.582  -5.644  27.662  0.00  0.00    -0.078 NA
BRANCH  14  16
ATOM     16  C   UNL     1       4.804  -5.895  25.405  0.00  0.00    +0.107 A 
ATOM     17  N   UNL     1       5.567  -6.230  24.291  0.00  0.00    -0.223 NA
ATOM     18  C   UNL     1       4.918  -5.957  23.188  0.00  0.00    +0.156 A 
ATOM     19  N   UNL     1       5.495  -5.985  21.979  0.00  0.00    -0.338 N 
ATOM     20  H   UNL     1       6.418  -6.401  21.933  0.00  0.00    +0.144 HD
ATOM     21  H   UNL     1       4.919  -6.117  21.157  0.00  0.00    +0.144 HD
ATOM     22  S   UNL     1       3.273  -5.522  23.391  0.00  0.00    -0.060 S 
ATOM     23  C   UNL     1       3.494  -5.554  25.095  0.00  0.00    +0.078 A 
ENDBRANCH  14  16
BRANCH  15  24
ATOM     24  O   UNL     1       4.719  -5.016  28.907  0.00  0.00    -0.396 OA
ATOM     25  C   UNL     1       5.159  -5.755  30.018  0.00  0.00    +0.313 C 
ENDBRANCH  15  24
ENDBRANCH  12  14
ENDBRANCH   2  10
BRANCH   6  26
ATOM     26  C   UNL     1       9.836  -1.291  22.284  0.00  0.00    +0.351 C 
ATOM     27  OXT UNL     1      10.855  -1.963  22.301  0.00  0.00    -0.244 OA
BRANCH  26  28
ATOM     28  O   UNL     1       9.420  -0.794  21.102  0.00  0.00    -0.476 OA
ATOM     29  H   UNL     1       9.959  -0.995  20.308  0.00  0.00    +0.295 HD
ENDBRANCH  26  28
ENDBRANCH   6  26
BRANCH   7  30
ATOM     30  C   UNL     1      10.562   1.025  23.962  0.00  0.00    +0.193 C 
BRANCH  30  31
ATOM     31  O   UNL     1      10.115   2.130  23.184  0.00  0.00    -0.379 OA
ATOM     32  C   UNL     1      10.916   3.284  23.399  0.00  0.00    +0.194 C 
ENDBRANCH  30  31
ENDBRANCH   7  30
TORSDOF 8
ENDMDL
MODEL 7
REMARK VINA RESULT:      -6.6      2.632      3.175
REMARK  Name = 
REMARK  10 active torsions:
REMARK  status: ('A' for Active; 'I' for Inactive)
REMARK    1  A    between atoms: C_5  and  C_6
REMARK    2  A    between atoms: C_6  and  O_7
REMARK    3  A    between atoms: O_7  and  C_8
REMARK    4  A    between atoms: CA_9  and  C_28
REMARK    5  A    between atoms: CA_13  and  N_15
REMARK    6  A    between atoms: C_16  and  C_18
REMARK    7  A    between atoms: C_18  and  C_22
REMARK    8  A    between atoms: N_19  and  O_20
REMARK    9  A    between atoms: O_20  and  C_21
REMARK   10  A    between atoms: C_28  and  O_29
REMARK                            x       y       z     vdW  Elec       q    Type
REMARK                         _______ _______ _______ _____ _____    ______ ____
ROOT
ATOM      1  C   UNL     1       6.481  -1.261  24.355  0.00  0.00    +0.169 C 
ATOM      2  CA  UNL     1       6.311  -2.847  24.282  0.00  0.00    +0.191 C 
ATOM      3  C   UNL     1       7.269  -2.635  23.082  0.00  0.00    +0.244 C 
ATOM      4  O   UNL     1       7.711  -3.313  22.165  0.00  0.00    -0.273 OA
ATOM      5  N   UNL     1       7.669  -1.458  23.579  0.00  0.00    -0.249 N 
ATOM      6  CA  UNL     1       8.731  -0.611  23.433  0.00  0.00    +0.124 C 
ATOM      7  C   UNL     1       8.963   0.358  24.362  0.00  0.00    -0.006 C 
ATOM      8  C   UNL     1       8.127   0.639  25.582  0.00  0.00    +0.106 C 
ATOM      9  S   UNL     1       6.553  -0.226  25.791  0.00  0.00    -0.131 S 
ENDROOT
BRANCH   2  10
ATOM     10  N   UNL     1       6.798  -3.996  25.154  0.00  0.00    -0.296 N 
ATOM     11  H   UNL     1       7.596  -3.814  25.752  0.00  0.00    +0.150 HD
ATOM     12  C   UNL     1       6.328  -5.300  25.465  0.00  0.00    +0.268 C 
ATOM     13  O   UNL     1       6.947  -5.925  26.316  0.00  0.00    -0.268 OA
BRANCH  12  14
ATOM     14  C   UNL     1       5.241  -6.016  24.663  0.00  0.00    +0.190 C 
ATOM     15  N   UNL     1       5.230  -6.268  23.381  0.00  0.00    -0.078 NA
BRANCH  14  16
ATOM     16  C   UNL     1       4.164  -6.790  25.329  0.00  0.00    +0.107 A 
ATOM     17  N   UNL     1       3.597  -7.888  24.691  0.00  0.00    -0.223 NA
ATOM     18  C   UNL     1       2.394  -8.119  25.151  0.00  0.00    +0.156 A 
ATOM     19  N   UNL     1       1.547  -8.981  24.572  0.00  0.00    -0.338 N 
ATOM     20  H   UNL     1       1.941  -9.584  23.860  0.00  0.00    +0.144 HD
ATOM     21  H   UNL     1       0.801  -9.389  25.122  0.00  0.00    +0.144 HD
ATOM     22  S   UNL     1       1.950  -7.214  26.537  0.00  0.00    -0.060 S 
ATOM     23  C   UNL     1       3.424  -6.339  26.415  0.00  0.00    +0.078 A 
ENDBRANCH  14  16
BRANCH  15  24
ATOM     24  O   UNL     1       6.319  -6.090  22.517  0.00  0.00    -0.396 OA
ATOM     25  C   UNL     1       6.103  -5.977  21.134  0.00  0.00    +0.313 C 
ENDBRANCH  15  24
ENDBRANCH  12  14
ENDBRANCH   2  10
BRANCH   6  26
ATOM     26  C   UNL     1       9.734  -0.827  22.306  0.00  0.00    +0.351 C 
ATOM     27  OXT UNL     1      10.602  -1.685  22.289  0.00  0.00    -0.244 OA
BRANCH  26  28
ATOM     28  O   UNL     1       9.663   0.031  21.269  0.00  0.00    -0.476 OA
ATOM     29  H   UNL     1       8.879   0.618  21.217  0.00  0.00    +0.295 HD
ENDBRANCH  26  28
ENDBRANCH   6  26
BRANCH   7  30
ATOM     30  C   UNL     1      10.204   1.236  24.363  0.00  0.00    +0.193 C 
BRANCH  30  31
ATOM     31  O   UNL     1       9.997   2.260  23.397  0.00  0.00    -0.379 OA
ATOM     32  C   UNL     1      11.011   3.255  23.459  0.00  0.00    +0.194 C 
ENDBRANCH  30  31
ENDBRANCH   7  30
TORSDOF 8
ENDMDL
MODEL 8
REMARK VINA RESULT:      -6.5      2.921      6.712
REMARK  Name = 
REMARK  10 active torsions:
REMARK  status: ('A' for Active; 'I' for Inactive)
REMARK    1  A    between atoms: C_5  and  C_6
REMARK    2  A    between atoms: C_6  and  O_7
REMARK    3  A    between atoms: O_7  and  C_8
REMARK    4  A    between atoms: CA_9  and  C_28
REMARK    5  A    between atoms: CA_13  and  N_15
REMARK    6  A    between atoms: C_16  and  C_18
REMARK    7  A    between atoms: C_18  and  C_22
REMARK    8  A    between atoms: N_19  and  O_20
REMARK    9  A    between atoms: O_20  and  C_21
REMARK   10  A    between atoms: C_28  and  O_29
REMARK                            x       y       z     vdW  Elec       q    Type
REMARK                         _______ _______ _______ _____ _____    ______ ____
ROOT
ATOM      1  C   UNL     1       7.001  -5.528  26.276  0.00  0.00    +0.169 C 
ATOM      2  CA  UNL     1       8.368  -4.753  26.563  0.00  0.00    +0.191 C 
ATOM      3  C   UNL     1       8.525  -4.999  25.040  0.00  0.00    +0.244 C 
ATOM      4  O   UNL     1       9.409  -4.870  24.205  0.00  0.00    -0.273 OA
ATOM      5  N   UNL     1       7.204  -5.161  24.905  0.00  0.00    -0.249 N 
ATOM      6  CA  UNL     1       6.279  -5.111  23.901  0.00  0.00    +0.124 C 
ATOM      7  C   UNL     1       4.954  -5.005  24.198  0.00  0.00    -0.006 C 
ATOM      8  C   UNL     1       4.353  -4.963  25.577  0.00  0.00    +0.106 C 
ATOM      9  S   UNL     1       5.411  -5.266  27.011  0.00  0.00    -0.131 S 
ENDROOT
BRANCH   2  10
ATOM     10  N   UNL     1       8.703  -3.309  26.907  0.00  0.00    -0.296 N 
ATOM     11  H   UNL     1       9.388  -3.157  27.639  0.00  0.00    +0.150 HD
ATOM     12  C   UNL     1       8.385  -2.038  26.359  0.00  0.00    +0.268 C 
ATOM     13  O   UNL     1       8.937  -1.066  26.855  0.00  0.00    -0.268 OA
BRANCH  12  14
ATOM     14  C   UNL     1       7.263  -1.816  25.344  0.00  0.00    +0.190 C 
ATOM     15  N   UNL     1       5.975  -1.836  25.561  0.00  0.00    -0.078 NA
BRANCH  14  16
ATOM     16  C   UNL     1       7.531  -1.246  24.000  0.00  0.00    +0.107 A 
ATOM     17  N   UNL     1       8.462  -1.848  23.160  0.00  0.00    -0.223 NA
ATOM     18  C   UNL     1       8.928  -0.984  22.294  0.00  0.00    +0.156 A 
ATOM     19  N   UNL     1       9.982  -1.240  21.507  0.00  0.00    -0.338 N 
ATOM     20  H   UNL     1      10.300  -2.202  21.484  0.00  0.00    +0.144 HD
ATOM     21  H   UNL     1      10.092  -0.726  20.642  0.00  0.00    +0.144 HD
ATOM     22  S   UNL     1       8.118   0.525  22.251  0.00  0.00    -0.060 S 
ATOM     23  C   UNL     1       7.174   0.035  23.601  0.00  0.00    +0.078 A 
ENDBRANCH  14  16
BRANCH  15  24
ATOM     24  O   UNL     1       5.373  -1.881  26.826  0.00  0.00    -0.396 OA
ATOM     25  C   UNL     1       5.143  -0.689  27.532  0.00  0.00    +0.313 C 
ENDBRANCH  15  24
ENDBRANCH  12  14
ENDBRANCH   2  10
BRANCH   6  26
ATOM     26  C   UNL     1       6.731  -5.041  22.447  0.00  0.00    +0.351 C 
ATOM     27  OXT UNL     1       7.035  -5.999  21.755  0.00  0.00    -0.244 OA
BRANCH  26  28
ATOM     28  O   UNL     1       6.832  -3.809  21.911  0.00  0.00    -0.476 OA
ATOM     29  H   UNL     1       7.677  -3.326  22.034  0.00  0.00    +0.295 HD
ENDBRANCH  26  28
ENDBRANCH   6  26
BRANCH   7  30
ATOM     30  C   UNL     1       3.876  -4.785  23.148  0.00  0.00    +0.193 C 
BRANCH  30  31
ATOM     31  O   UNL     1       3.140  -5.997  23.039  0.00  0.00    -0.379 OA
ATOM     32  C   UNL     1       1.740  -5.760  22.985  0.00  0.00    +0.194 C 
ENDBRANCH  30  31
ENDBRANCH   7  30
TORSDOF 8
ENDMDL
MODEL 9
REMARK VINA RESULT:      -6.5      3.237      7.618
REMARK  Name = 
REMARK  10 active torsions:
REMARK  status: ('A' for Active; 'I' for Inactive)
REMARK    1  A    between atoms: C_5  and  C_6
REMARK    2  A    between atoms: C_6  and  O_7
REMARK    3  A    between atoms: O_7  and  C_8
REMARK    4  A    between atoms: CA_9  and  C_28
REMARK    5  A    between atoms: CA_13  and  N_15
REMARK    6  A    between atoms: C_16  and  C_18
REMARK    7  A    between atoms: C_18  and  C_22
REMARK    8  A    between atoms: N_19  and  O_20
REMARK    9  A    between atoms: O_20  and  C_21
REMARK   10  A    between atoms: C_28  and  O_29
REMARK                            x       y       z     vdW  Elec       q    Type
REMARK                         _______ _______ _______ _____ _____    ______ ____
ROOT
ATOM      1  C   UNL     1       7.546  -3.052  24.135  0.00  0.00    +0.169 C 
ATOM      2  CA  UNL     1       7.072  -1.781  23.293  0.00  0.00    +0.191 C 
ATOM      3  C   UNL     1       6.297  -2.892  22.540  0.00  0.00    +0.244 C 
ATOM      4  O   UNL     1       5.636  -2.978  21.514  0.00  0.00    -0.273 OA
ATOM      5  N   UNL     1       6.390  -3.707  23.598  0.00  0.00    -0.249 N 
ATOM      6  CA  UNL     1       5.755  -4.820  24.072  0.00  0.00    +0.124 C 
ATOM      7  C   UNL     1       5.912  -5.193  25.372  0.00  0.00    -0.006 C 
ATOM      8  C   UNL     1       6.772  -4.502  26.397  0.00  0.00    +0.106 C 
ATOM      9  S   UNL     1       7.868  -3.165  25.873  0.00  0.00    -0.131 S 
ENDROOT
BRANCH   2  10
ATOM     10  N   UNL     1       6.155  -0.604  23.596  0.00  0.00    -0.296 N 
ATOM     11  H   UNL     1       5.355  -0.475  22.987  0.00  0.00    +0.150 HD
ATOM     12  C   UNL     1       6.045   0.350  24.642  0.00  0.00    +0.268 C 
ATOM     13  O   UNL     1       5.088   1.112  24.600  0.00  0.00    -0.268 OA
BRANCH  12  14
ATOM     14  C   UNL     1       7.144   0.597  25.676  0.00  0.00    +0.190 C 
ATOM     15  N   UNL     1       7.129   0.285  26.945  0.00  0.00    -0.078 NA
BRANCH  14  16
ATOM     16  C   UNL     1       8.522   0.975  25.273  0.00  0.00    +0.107 A 
ATOM     17  N   UNL     1       8.743   2.154  24.570  0.00  0.00    -0.223 NA
ATOM     18  C   UNL     1       9.856   2.081  23.886  0.00  0.00    +0.156 A 
ATOM     19  N   UNL     1      10.204   2.989  22.964  0.00  0.00    -0.338 N 
ATOM     20  H   UNL     1       9.651   3.837  22.941  0.00  0.00    +0.144 HD
ATOM     21  H   UNL     1      11.181   3.101  22.721  0.00  0.00    +0.144 HD
ATOM     22  S   UNL     1      10.838   0.717  24.222  0.00  0.00    -0.060 S 
ATOM     23  C   UNL     1       9.603   0.104  25.247  0.00  0.00    +0.078 A 
ENDBRANCH  14  16
BRANCH  15  24
ATOM     24  O   UNL     1       6.161  -0.515  27.566  0.00  0.00    -0.396 OA
ATOM     25  C   UNL     1       5.156   0.082  28.345  0.00  0.00    +0.313 C 
ENDBRANCH  15  24
ENDBRANCH  12  14
ENDBRANCH   2  10
BRANCH   6  26
ATOM     26  C   UNL     1       4.767  -5.572  23.188  0.00  0.00    +0.351 C 
ATOM     27  OXT UNL     1       3.597  -5.265  23.018  0.00  0.00    -0.244 OA
BRANCH  26  28
ATOM     28  O   UNL     1       5.230  -6.683  22.583  0.00  0.00    -0.476 OA
ATOM     29  H   UNL     1       4.662  -7.482  22.602  0.00  0.00    +0.295 HD
ENDBRANCH  26  28
ENDBRANCH   6  26
BRANCH   7  30
ATOM     30  C   UNL     1       5.122  -6.318  26.021  0.00  0.00    +0.193 C 
BRANCH  30  31
ATOM     31  O   UNL     1       5.829  -6.709  27.192  0.00  0.00    -0.379 OA
ATOM     32  C   UNL     1       4.949  -6.959  28.280  0.00  0.00    +0.194 C 
ENDBRANCH  30  31
ENDBRANCH   7  30
TORSDOF 8
ENDMDL
