MODEL 1
REMARK VINA RESULT:      -5.0      0.000      0.000
REMARK  Name = 
REMARK  5 active torsions:
REMARK  status: ('A' for Active; 'I' for Inactive)
REMARK    1  A    between atoms: O_1  and  C_2
REMARK    2  A    between atoms: C_5  and  C_13
REMARK    3  A    between atoms: C_7  and  O_9
REMARK    4  A    between atoms: C_10  and  O_12
REMARK    5  A    between atoms: C_13  and  O_14
REMARK                            x       y       z     vdW  Elec       q    Type
REMARK                         _______ _______ _______ _____ _____    ______ ____
ROOT
ATOM      1  C   UNL     1       8.917  -5.389  25.090  0.00  0.00    +0.337 C 
ATOM      2  C   UNL     1       7.837  -5.075  26.157  0.00  0.00    +0.215 C 
ATOM      3  C   UNL     1       7.655  -3.578  26.453  0.00  0.00    +0.176 C 
ATOM      4  C   UNL     1       8.472  -2.665  25.622  0.00  0.00    +0.060 C 
ATOM      5  C   UNL     1       9.172  -3.083  24.560  0.00  0.00    +0.206 C 
ATOM      6  O   UNL     1       9.172  -4.382  24.112  0.00  0.00    -0.454 OA
ENDROOT
BRANCH   1   7
ATOM      7  O   UNL     1      10.147  -5.778  25.704  0.00  0.00    -0.356 OA
ATOM      8  H   UNL     1      10.780  -5.069  25.463  0.00  0.00    +0.214 HD
ENDBRANCH   1   7
BRANCH   2   9
ATOM      9  O   UNL     1       8.193  -5.779  27.372  0.00  0.00    -0.383 OA
ATOM     10  H   UNL     1       8.765  -6.527  27.110  0.00  0.00    +0.210 HD
ENDBRANCH   2   9
BRANCH   3  11
ATOM     11  O   UNL     1       6.281  -3.227  26.285  0.00  0.00    -0.385 OA
ATOM     12  H   UNL     1       6.229  -2.481  25.659  0.00  0.00    +0.210 HD
ENDBRANCH   3  11
BRANCH   5  13
ATOM     13  C   UNL     1       9.974  -2.083  23.793  0.00  0.00    +0.372 C 
ATOM     14  O   UNL     1      10.527  -2.296  22.726  0.00  0.00    -0.242 OA
BRANCH  13  15
ATOM     15  O   UNL     1      10.009  -0.895  24.437  0.00  0.00    -0.475 OA
ATOM     16  H   UNL     1       9.569  -0.201  23.898  0.00  0.00    +0.296 HD
ENDBRANCH  13  15
ENDBRANCH   5  13
TORSDOF 5
ENDMDL
MODEL 2
REMARK VINA RESULT:      -4.9      1.737      4.586
REMARK  Name = 
REMARK  5 active torsions:
REMARK  status: ('A' for Active; 'I' for Inactive)
REMARK    1  A    between atoms: O_1  and  C_2
REMARK    2  A    between atoms: C_5  and  C_13
REMARK    3  A    between atoms: C_7  and  O_9
REMARK    4  A    between atoms: C_10  and  O_12
REMARK    5  A    between atoms: C_13  and  O_14
REMARK                            x       y       z     vdW  Elec       q    Type
REMARK                         _______ _______ _______ _____ _____    ______ ____
ROOT
ATOM      1  C   UNL     1      10.519  -1.549  22.569  0.00  0.00    +0.337 C 
ATOM      2  C   UNL     1      10.215  -0.240  23.342  0.00  0.00    +0.215 C 
ATOM      3  C   UNL     1       9.329  -0.427  24.584  0.00  0.00    +0.176 C 
ATOM      4  C   UNL     1       8.973  -1.828  24.900  0.00  0.00    +0.060 C 
ATOM      5  C   UNL     1       9.529  -2.876  24.279  0.00  0.00    +0.206 C 
ATOM      6  O   UNL     1      10.509  -2.761  23.322  0.00  0.00    -0.454 OA
ENDROOT
BRANCH   1   7
ATOM      7  O   UNL     1       9.662  -1.687  21.435  0.00  0.00    -0.356 OA
ATOM      8  H   UNL     1      10.120  -2.329  20.853  0.00  0.00    +0.214 HD
ENDBRANCH   1   7
BRANCH   2   9
ATOM      9  O   UNL     1       9.585   0.685  22.421  0.00  0.00    -0.383 OA
ATOM     10  H   UNL     1       9.859   0.421  21.521  0.00  0.00    +0.210 HD
ENDBRANCH   2   9
BRANCH   3  11
ATOM     11  O   UNL     1       9.986   0.135  25.721  0.00  0.00    -0.385 OA
ATOM     12  H   UNL     1      10.127   1.086  25.555  0.00  0.00    +0.210 HD
ENDBRANCH   3  11
BRANCH   5  13
ATOM     13  C   UNL     1       9.092  -4.252  24.665  0.00  0.00    +0.372 C 
ATOM     14  O   UNL     1       7.932  -4.620  24.757  0.00  0.00    -0.242 OA
BRANCH  13  15
ATOM     15  O   UNL     1      10.158  -5.049  24.900  0.00  0.00    -0.475 OA
ATOM     16  H   UNL     1      10.295  -5.160  25.866  0.00  0.00    +0.296 HD
ENDBRANCH  13  15
ENDBRANCH   5  13
TORSDOF 5
ENDMDL
MODEL 3
REMARK VINA RESULT:      -4.9      2.938      4.533
REMARK  Name = 
REMARK  5 active torsions:
REMARK  status: ('A' for Active; 'I' for Inactive)
REMARK    1  A    between atoms: O_1  and  C_2
REMARK    2  A    between atoms: C_5  and  C_13
REMARK    3  A    between atoms: C_7  and  O_9
REMARK    4  A    between atoms: C_10  and  O_12
REMARK    5  A    between atoms: C_13  and  O_14
REMARK                            x       y       z     vdW  Elec       q    Type
REMARK                         _______ _______ _______ _____ _____    ______ ____
ROOT
ATOM      1  C   UNL     1       9.341  -1.327  22.471  0.00  0.00    +0.337 C 
ATOM      2  C   UNL     1       9.338  -1.896  23.913  0.00  0.00    +0.215 C 
ATOM      3  C   UNL     1       9.836  -0.913  24.984  0.00  0.00    +0.176 C 
ATOM      4  C   UNL     1      10.160   0.446  24.494  0.00  0.00    +0.060 C 
ATOM      5  C   UNL     1       9.864   0.859  23.255  0.00  0.00    +0.206 C 
ATOM      6  O   UNL     1       9.198   0.086  22.334  0.00  0.00    -0.454 OA
ENDROOT
BRANCH   1   7
ATOM      7  O   UNL     1      10.496  -1.760  21.751  0.00  0.00    -0.356 OA
ATOM      8  H   UNL     1      10.890  -2.462  22.310  0.00  0.00    +0.214 HD
ENDBRANCH   1   7
BRANCH   2   9
ATOM      9  O   UNL     1      10.157  -3.091  23.922  0.00  0.00    -0.383 OA
ATOM     10  H   UNL     1      10.140  -3.454  23.015  0.00  0.00    +0.210 HD
ENDBRANCH   2   9
BRANCH   3  11
ATOM     11  O   UNL     1       8.849  -0.794  26.011  0.00  0.00    -0.385 OA
ATOM     12  H   UNL     1       8.248  -0.064  25.775  0.00  0.00    +0.210 HD
ENDBRANCH   3  11
BRANCH   5  13
ATOM     13  C   UNL     1      10.243   2.247  22.853  0.00  0.00    +0.372 C 
ATOM     14  O   UNL     1      10.539   3.145  23.625  0.00  0.00    -0.242 OA
BRANCH  13  15
ATOM     15  O   UNL     1      10.219   2.384  21.509  0.00  0.00    -0.475 OA
ATOM     16  H   UNL     1      10.167   1.504  21.077  0.00  0.00    +0.296 HD
ENDBRANCH  13  15
ENDBRANCH   5  13
TORSDOF 5
ENDMDL
MODEL 4
REMARK VINA RESULT:      -4.8      3.229      5.823
REMARK  Name = 
REMARK  5 active torsions:
REMARK  status: ('A' for Active; 'I' for Inactive)
REMARK    1  A    between atoms: O_1  and  C_2
REMARK    2  A    between atoms: C_5  and  C_13
REMARK    3  A    between atoms: C_7  and  O_9
REMARK    4  A    between atoms: C_10  and  O_12
REMARK    5  A    between atoms: C_13  and  O_14
REMARK                            x       y       z     vdW  Elec       q    Type
REMARK                         _______ _______ _______ _____ _____    ______ ____
ROOT
ATOM      1  C   UNL     1       9.568   1.002  24.594  0.00  0.00    +0.337 C 
ATOM      2  C   UNL     1       9.836   1.994  23.433  0.00  0.00    +0.215 C 
ATOM      3  C   UNL     1       9.958   1.334  22.050  0.00  0.00    +0.176 C 
ATOM      4  C   UNL     1       9.717  -0.126  22.024  0.00  0.00    +0.060 C 
ATOM      5  C   UNL     1       9.241  -0.802  23.076  0.00  0.00    +0.206 C 
ATOM      6  O   UNL     1       8.889  -0.209  24.266  0.00  0.00    -0.454 OA
ENDROOT
BRANCH   1   7
ATOM      7  O   UNL     1      10.773   0.695  25.296  0.00  0.00    -0.356 OA
ATOM      8  H   UNL     1      11.321   1.505  25.217  0.00  0.00    +0.214 HD
ENDBRANCH   1   7
BRANCH   2   9
ATOM      9  O   UNL     1      11.051   2.722  23.741  0.00  0.00    -0.383 OA
ATOM     10  H   UNL     1      10.905   3.170  24.597  0.00  0.00    +0.210 HD
ENDBRANCH   2   9
BRANCH   3  11
ATOM     11  O   UNL     1       9.039   1.955  21.149  0.00  0.00    -0.385 OA
ATOM     12  H   UNL     1       9.535   2.258  20.366  0.00  0.00    +0.210 HD
ENDBRANCH   3  11
BRANCH   5  13
ATOM     13  C   UNL     1       9.044  -2.278  22.951  0.00  0.00    +0.372 C 
ATOM     14  O   UNL     1       8.174  -2.816  22.285  0.00  0.00    -0.242 OA
BRANCH  13  15
ATOM     15  O   UNL     1       9.965  -2.951  23.676  0.00  0.00    -0.475 OA
ATOM     16  H   UNL     1      10.567  -3.451  23.084  0.00  0.00    +0.296 HD
ENDBRANCH  13  15
ENDBRANCH   5  13
TORSDOF 5
ENDMDL
MODEL 5
REMARK VINA RESULT:      -4.7      3.430      5.173
REMARK  Name = 
REMARK  5 active torsions:
REMARK  status: ('A' for Active; 'I' for Inactive)
REMARK    1  A    between atoms: O_1  and  C_2
REMARK    2  A    between atoms: C_5  and  C_13
REMARK    3  A    between atoms: C_7  and  O_9
REMARK    4  A    between atoms: C_10  and  O_12
REMARK    5  A    between atoms: C_13  and  O_14
REMARK                            x       y       z     vdW  Elec       q    Type
REMARK                         _______ _______ _______ _____ _____    ______ ____
ROOT
ATOM      1  C   UNL     1       7.372  -1.207  23.442  0.00  0.00    +0.337 C 
ATOM      2  C   UNL     1       8.433  -2.242  22.987  0.00  0.00    +0.215 C 
ATOM      3  C   UNL     1       9.437  -1.708  21.953  0.00  0.00    +0.176 C 
ATOM      4  C   UNL     1       9.293  -0.275  21.613  0.00  0.00    +0.060 C 
ATOM      5  C   UNL     1       8.484   0.552  22.287  0.00  0.00    +0.206 C 
ATOM      6  O   UNL     1       7.743   0.169  23.380  0.00  0.00    -0.454 OA
ENDROOT
BRANCH   1   7
ATOM      7  O   UNL     1       6.138  -1.398  22.748  0.00  0.00    -0.356 OA
ATOM      8  H   UNL     1       5.700  -2.138  23.219  0.00  0.00    +0.214 HD
ENDBRANCH   1   7
BRANCH   2   9
ATOM      9  O   UNL     1       7.733  -3.391  22.449  0.00  0.00    -0.383 OA
ATOM     10  H   UNL     1       8.120  -3.573  21.571  0.00  0.00    +0.210 HD
ENDBRANCH   2   9
BRANCH   3  11
ATOM     11  O   UNL     1      10.766  -1.923  22.431  0.00  0.00    -0.385 OA
ATOM     12  H   UNL     1      10.719  -2.490  23.223  0.00  0.00    +0.210 HD
ENDBRANCH   3  11
BRANCH   5  13
ATOM     13  C   UNL     1       8.401   1.981  21.858  0.00  0.00    +0.372 C 
ATOM     14  O   UNL     1       7.377   2.642  21.811  0.00  0.00    -0.242 OA
BRANCH  13  15
ATOM     15  O   UNL     1       9.622   2.457  21.525  0.00  0.00    -0.475 OA
ATOM     16  H   UNL     1      10.061   2.851  22.311  0.00  0.00    +0.296 HD
ENDBRANCH  13  15
ENDBRANCH   5  13
TORSDOF 5
ENDMDL
MODEL 6
REMARK VINA RESULT:      -4.7      2.768      4.086
REMARK  Name = 
REMARK  5 active torsions:
REMARK  status: ('A' for Active; 'I' for Inactive)
REMARK    1  A    between atoms: O_1  and  C_2
REMARK    2  A    between atoms: C_5  and  C_13
REMARK    3  A    between atoms: C_7  and  O_9
REMARK    4  A    between atoms: C_10  and  O_12
REMARK    5  A    between atoms: C_13  and  O_14
REMARK                            x       y       z     vdW  Elec       q    Type
REMARK                         _______ _______ _______ _____ _____    ______ ____
ROOT
ATOM      1  C   UNL     1       6.309  -4.930  25.680  0.00  0.00    +0.337 C 
ATOM      2  C   UNL     1       7.841  -4.938  25.912  0.00  0.00    +0.215 C 
ATOM      3  C   UNL     1       8.674  -5.168  24.641  0.00  0.00    +0.176 C 
ATOM      4  C   UNL     1       7.897  -5.261  23.384  0.00  0.00    +0.060 C 
ATOM      5  C   UNL     1       6.591  -4.975  23.317  0.00  0.00    +0.206 C 
ATOM      6  O   UNL     1       5.853  -4.531  24.388  0.00  0.00    -0.454 OA
ENDROOT
BRANCH   1   7
ATOM      7  O   UNL     1       5.731  -6.191  26.019  0.00  0.00    -0.356 OA
ATOM      8  H   UNL     1       6.053  -6.377  26.927  0.00  0.00    +0.214 HD
ENDBRANCH   1   7
BRANCH   2   9
ATOM      9  O   UNL     1       8.138  -5.967  26.889  0.00  0.00    -0.383 OA
ATOM     10  H   UNL     1       8.862  -6.509  26.520  0.00  0.00    +0.210 HD
ENDBRANCH   2   9
BRANCH   3  11
ATOM     11  O   UNL     1       9.624  -4.110  24.502  0.00  0.00    -0.385 OA
ATOM     12  H   UNL     1       9.144  -3.262  24.521  0.00  0.00    +0.210 HD
ENDBRANCH   3  11
BRANCH   5  13
ATOM     13  C   UNL     1       5.895  -5.111  22.002  0.00  0.00    +0.372 C 
ATOM     14  O   UNL     1       5.629  -4.188  21.250  0.00  0.00    -0.242 OA
BRANCH  13  15
ATOM     15  O   UNL     1       5.594  -6.404  21.746  0.00  0.00    -0.475 OA
ATOM     16  H   UNL     1       6.389  -6.969  21.859  0.00  0.00    +0.296 HD
ENDBRANCH  13  15
ENDBRANCH   5  13
TORSDOF 5
ENDMDL
MODEL 7
REMARK VINA RESULT:      -4.6      2.836      4.335
REMARK  Name = 
REMARK  5 active torsions:
REMARK  status: ('A' for Active; 'I' for Inactive)
REMARK    1  A    between atoms: O_1  and  C_2
REMARK    2  A    between atoms: C_5  and  C_13
REMARK    3  A    between atoms: C_7  and  O_9
REMARK    4  A    between atoms: C_10  and  O_12
REMARK    5  A    between atoms: C_13  and  O_14
REMARK                            x       y       z     vdW  Elec       q    Type
REMARK                         _______ _______ _______ _____ _____    ______ ____
ROOT
ATOM      1  C   UNL     1       8.316  -2.580  23.324  0.00  0.00    +0.337 C 
ATOM      2  C   UNL     1       9.042  -3.271  24.506  0.00  0.00    +0.215 C 
ATOM      3  C   UNL     1       8.647  -4.741  24.720  0.00  0.00    +0.176 C 
ATOM      4  C   UNL     1       7.705  -5.295  23.721  0.00  0.00    +0.060 C 
ATOM      5  C   UNL     1       7.365  -4.640  22.604  0.00  0.00    +0.206 C 
ATOM      6  O   UNL     1       7.883  -3.417  22.252  0.00  0.00    -0.454 OA
ENDROOT
BRANCH   1   7
ATOM      7  O   UNL     1       7.216  -1.793  23.785  0.00  0.00    -0.356 OA
ATOM      8  H   UNL     1       7.363  -1.702  24.750  0.00  0.00    +0.214 HD
ENDBRANCH   1   7
BRANCH   2   9
ATOM      9  O   UNL     1       8.767  -2.507  25.706  0.00  0.00    -0.383 OA
ATOM     10  H   UNL     1       7.796  -2.467  25.802  0.00  0.00    +0.210 HD
ENDBRANCH   2   9
BRANCH   3  11
ATOM     11  O   UNL     1       9.824  -5.550  24.721  0.00  0.00    -0.385 OA
ATOM     12  H   UNL     1      10.401  -5.252  25.448  0.00  0.00    +0.210 HD
ENDBRANCH   3  11
BRANCH   5  13
ATOM     13  C   UNL     1       6.397  -5.281  21.664  0.00  0.00    +0.372 C 
ATOM     14  O   UNL     1       5.819  -4.710  20.754  0.00  0.00    -0.242 OA
BRANCH  13  15
ATOM     15  O   UNL     1       6.240  -6.593  21.953  0.00  0.00    -0.475 OA
ATOM     16  H   UNL     1       5.706  -7.034  21.257  0.00  0.00    +0.296 HD
ENDBRANCH  13  15
ENDBRANCH   5  13
TORSDOF 5
ENDMDL
MODEL 8
REMARK VINA RESULT:      -4.6      3.612      5.854
REMARK  Name = 
REMARK  5 active torsions:
REMARK  status: ('A' for Active; 'I' for Inactive)
REMARK    1  A    between atoms: O_1  and  C_2
REMARK    2  A    between atoms: C_5  and  C_13
REMARK    3  A    between atoms: C_7  and  O_9
REMARK    4  A    between atoms: C_10  and  O_12
REMARK    5  A    between atoms: C_13  and  O_14
REMARK                            x       y       z     vdW  Elec       q    Type
REMARK                         _______ _______ _______ _____ _____    ______ ____
ROOT
ATOM      1  C   UNL     1       8.136   0.967  24.661  0.00  0.00    +0.337 C 
ATOM      2  C   UNL     1       8.454   2.279  23.900  0.00  0.00    +0.215 C 
ATOM      3  C   UNL     1       9.525   2.134  22.806  0.00  0.00    +0.176 C 
ATOM      4  C   UNL     1      10.024   0.758  22.589  0.00  0.00    +0.060 C 
ATOM      5  C   UNL     1       9.460  -0.316  23.156  0.00  0.00    +0.206 C 
ATOM      6  O   UNL     1       8.345  -0.256  23.957  0.00  0.00    -0.454 OA
ENDROOT
BRANCH   1   7
ATOM      7  O   UNL     1       8.826   0.919  25.911  0.00  0.00    -0.356 OA
ATOM      8  H   UNL     1       8.576   0.054  26.300  0.00  0.00    +0.214 HD
ENDBRANCH   1   7
BRANCH   2   9
ATOM      9  O   UNL     1       8.874   3.268  24.872  0.00  0.00    -0.383 OA
ATOM     10  H   UNL     1       9.266   4.010  24.372  0.00  0.00    +0.210 HD
ENDBRANCH   2   9
BRANCH   3  11
ATOM     11  O   UNL     1       9.002   2.621  21.568  0.00  0.00    -0.385 OA
ATOM     12  H   UNL     1       9.467   3.448  21.343  0.00  0.00    +0.210 HD
ENDBRANCH   3  11
BRANCH   5  13
ATOM     13  C   UNL     1      10.048  -1.662  22.882  0.00  0.00    +0.372 C 
ATOM     14  O   UNL     1      10.150  -2.563  23.698  0.00  0.00    -0.242 OA
BRANCH  13  15
ATOM     15  O   UNL     1      10.455  -1.759  21.596  0.00  0.00    -0.475 OA
ATOM     16  H   UNL     1      11.088  -2.502  21.493  0.00  0.00    +0.296 HD
ENDBRANCH  13  15
ENDBRANCH   5  13
TORSDOF 5
ENDMDL
MODEL 9
REMARK VINA RESULT:      -4.5      3.259      5.294
REMARK  Name = 
REMARK  5 active torsions:
REMARK  status: ('A' for Active; 'I' for Inactive)
REMARK    1  A    between atoms: O_1  and  C_2
REMARK    2  A    between atoms: C_5  and  C_13
REMARK    3  A    between atoms: C_7  and  O_9
REMARK    4  A    between atoms: C_10  and  O_12
REMARK    5  A    between atoms: C_13  and  O_14
REMARK                            x       y       z     vdW  Elec       q    Type
REMARK                         _______ _______ _______ _____ _____    ______ ____
ROOT
ATOM      1  C   UNL     1      10.224  -0.229  25.082  0.00  0.00    +0.337 C 
ATOM      2  C   UNL     1       9.853  -1.327  24.052  0.00  0.00    +0.215 C 
ATOM      3  C   UNL     1       9.548  -0.797  22.642  0.00  0.00    +0.176 C 
ATOM      4  C   UNL     1       9.735   0.660  22.460  0.00  0.00    +0.060 C 
ATOM      5  C   UNL     1      10.310   1.438  23.385  0.00  0.00    +0.206 C 
ATOM      6  O   UNL     1      10.819   0.963  24.570  0.00  0.00    -0.454 OA
ENDROOT
BRANCH   1   7
ATOM      7  O   UNL     1       9.100   0.113  25.895  0.00  0.00    -0.356 OA
ATOM      8  H   UNL     1       8.491   0.589  25.291  0.00  0.00    +0.214 HD
ENDBRANCH   1   7
BRANCH   2   9
ATOM      9  O   UNL     1       8.708  -2.051  24.566  0.00  0.00    -0.383 OA
ATOM     10  H   UNL     1       8.837  -2.140  25.530  0.00  0.00    +0.210 HD
ENDBRANCH   2   9
BRANCH   3  11
ATOM     11  O   UNL     1      10.374  -1.476  21.694  0.00  0.00    -0.385 OA
ATOM     12  H   UNL     1       9.803  -1.826  20.986  0.00  0.00    +0.210 HD
ENDBRANCH   3  11
BRANCH   5  13
ATOM     13  C   UNL     1      10.442   2.901  23.109  0.00  0.00    +0.372 C 
ATOM     14  O   UNL     1      11.436   3.571  23.335  0.00  0.00    -0.242 OA
BRANCH  13  15
ATOM     15  O   UNL     1       9.306   3.395  22.567  0.00  0.00    -0.475 OA
ATOM     16  H   UNL     1       9.466   4.289  22.195  0.00  0.00    +0.296 HD
ENDBRANCH  13  15
ENDBRANCH   5  13
TORSDOF 5
ENDMDL
