MODEL 1
REMARK VINA RESULT:      -5.2      0.000      0.000
REMARK  Name = 
REMARK  5 active torsions:
REMARK  status: ('A' for Active; 'I' for Inactive)
REMARK    1  A    between atoms: O_1  and  C_2
REMARK    2  A    between atoms: C_2  and  C_4
REMARK    3  A    between atoms: C_4  and  C_5
REMARK    4  A    between atoms: C_7  and  O_8
REMARK    5  A    between atoms: C_9  and  O_10
REMARK                            x       y       z     vdW  Elec       q    Type
REMARK                         _______ _______ _______ _____ _____    ______ ____
ROOT
ATOM      1  C   UNL     1       6.979  -4.757  23.656  0.00  0.00    -0.033 A 
ATOM      2  C   UNL     1       5.989  -4.830  24.651  0.00  0.00    +0.008 A 
ATOM      3  C   UNL     1       6.326  -5.170  25.962  0.00  0.00    +0.049 A 
ATOM      4  C   UNL     1       7.651  -5.437  26.273  0.00  0.00    +0.158 A 
ATOM      5  C   UNL     1       8.643  -5.365  25.298  0.00  0.00    +0.158 A 
ATOM      6  C   UNL     1       8.318  -5.026  23.989  0.00  0.00    +0.053 A 
ENDROOT
BRANCH   4   7
ATOM      7  O   UNL     1       7.977  -5.779  27.553  0.00  0.00    -0.503 OA
ATOM      8  H   UNL     1       8.801  -6.300  27.470  0.00  0.00    +0.292 HD
ENDBRANCH   4   7
BRANCH   5   9
ATOM      9  O   UNL     1       9.925  -5.649  25.675  0.00  0.00    -0.503 OA
ATOM     10  H   UNL     1       9.986  -6.598  25.880  0.00  0.00    +0.292 HD
ENDBRANCH   5   9
BRANCH   1  11
ATOM     11  C   UNL     1       6.595  -4.454  22.226  0.00  0.00    +0.155 C 
BRANCH  11  12
ATOM     12  C   UNL     1       6.244  -5.646  21.359  0.00  0.00    +0.309 C 
ATOM     13  O   UNL     1       5.990  -5.526  20.166  0.00  0.00    -0.251 OA
BRANCH  12  14
ATOM     14  O   UNL     1       6.217  -6.855  21.957  0.00  0.00    -0.480 OA
ATOM     15  H   UNL     1       6.141  -7.622  21.357  0.00  0.00    +0.295 HD
ENDBRANCH  12  14
ENDBRANCH  11  12
ENDBRANCH   1  11
TORSDOF 5
ENDMDL
MODEL 2
REMARK VINA RESULT:      -5.1      5.258      6.285
REMARK  Name = 
REMARK  5 active torsions:
REMARK  status: ('A' for Active; 'I' for Inactive)
REMARK    1  A    between atoms: O_1  and  C_2
REMARK    2  A    between atoms: C_2  and  C_4
REMARK    3  A    between atoms: C_4  and  C_5
REMARK    4  A    between atoms: C_7  and  O_8
REMARK    5  A    between atoms: C_9  and  O_10
REMARK                            x       y       z     vdW  Elec       q    Type
REMARK                         _______ _______ _______ _____ _____    ______ ____
ROOT
ATOM      1  C   UNL     1       9.883  -1.538  23.386  0.00  0.00    -0.033 A 
ATOM      2  C   UNL     1       9.504  -1.436  22.036  0.00  0.00    +0.008 A 
ATOM      3  C   UNL     1       9.510  -0.198  21.391  0.00  0.00    +0.049 A 
ATOM      4  C   UNL     1       9.895   0.932  22.097  0.00  0.00    +0.158 A 
ATOM      5  C   UNL     1      10.276   0.844  23.433  0.00  0.00    +0.158 A 
ATOM      6  C   UNL     1      10.274  -0.384  24.086  0.00  0.00    +0.053 A 
ENDROOT
BRANCH   4   7
ATOM      7  O   UNL     1       9.891   2.142  21.467  0.00  0.00    -0.503 OA
ATOM      8  H   UNL     1      10.189   2.778  22.147  0.00  0.00    +0.292 HD
ENDBRANCH   4   7
BRANCH   5   9
ATOM      9  O   UNL     1      10.634   2.001  24.068  0.00  0.00    -0.503 OA
ATOM     10  H   UNL     1      10.768   1.808  25.012  0.00  0.00    +0.292 HD
ENDBRANCH   5   9
BRANCH   1  11
ATOM     11  C   UNL     1       9.808  -2.871  24.095  0.00  0.00    +0.155 C 
BRANCH  11  12
ATOM     12  C   UNL     1       8.468  -3.578  24.054  0.00  0.00    +0.309 C 
ATOM     13  O   UNL     1       7.423  -3.001  24.327  0.00  0.00    -0.251 OA
BRANCH  12  14
ATOM     14  O   UNL     1       8.472  -4.883  23.706  0.00  0.00    -0.480 OA
ATOM     15  H   UNL     1       7.644  -5.218  23.312  0.00  0.00    +0.295 HD
ENDBRANCH  12  14
ENDBRANCH  11  12
ENDBRANCH   1  11
TORSDOF 5
ENDMDL
MODEL 3
REMARK VINA RESULT:      -5.0      3.032      3.383
REMARK  Name = 
REMARK  5 active torsions:
REMARK  status: ('A' for Active; 'I' for Inactive)
REMARK    1  A    between atoms: O_1  and  C_2
REMARK    2  A    between atoms: C_2  and  C_4
REMARK    3  A    between atoms: C_4  and  C_5
REMARK    4  A    between atoms: C_7  and  O_8
REMARK    5  A    between atoms: C_9  and  O_10
REMARK                            x       y       z     vdW  Elec       q    Type
REMARK                         _______ _______ _______ _____ _____    ______ ____
ROOT
ATOM      1  C   UNL     1       8.953  -2.653  24.910  0.00  0.00    -0.033 A 
ATOM      2  C   UNL     1       7.953  -2.508  25.888  0.00  0.00    +0.008 A 
ATOM      3  C   UNL     1       7.619  -3.576  26.722  0.00  0.00    +0.049 A 
ATOM      4  C   UNL     1       8.284  -4.784  26.575  0.00  0.00    +0.158 A 
ATOM      5  C   UNL     1       9.279  -4.940  25.614  0.00  0.00    +0.158 A 
ATOM      6  C   UNL     1       9.620  -3.882  24.777  0.00  0.00    +0.053 A 
ENDROOT
BRANCH   4   7
ATOM      7  O   UNL     1       7.949  -5.829  27.385  0.00  0.00    -0.503 OA
ATOM      8  H   UNL     1       8.784  -6.322  27.514  0.00  0.00    +0.292 HD
ENDBRANCH   4   7
BRANCH   5   9
ATOM      9  O   UNL     1       9.885  -6.161  25.521  0.00  0.00    -0.503 OA
ATOM     10  H   UNL     1       9.994  -6.383  24.580  0.00  0.00    +0.292 HD
ENDBRANCH   5   9
BRANCH   1  11
ATOM     11  C   UNL     1       9.260  -1.512  23.967  0.00  0.00    +0.155 C 
BRANCH  11  12
ATOM     12  C   UNL     1       9.218  -1.834  22.487  0.00  0.00    +0.309 C 
ATOM     13  O   UNL     1       8.190  -2.209  21.935  0.00  0.00    -0.251 OA
BRANCH  12  14
ATOM     14  O   UNL     1      10.369  -1.695  21.795  0.00  0.00    -0.480 OA
ATOM     15  H   UNL     1      11.185  -1.682  22.330  0.00  0.00    +0.295 HD
ENDBRANCH  12  14
ENDBRANCH  11  12
ENDBRANCH   1  11
TORSDOF 5
ENDMDL
MODEL 4
REMARK VINA RESULT:      -4.9      6.045      7.187
REMARK  Name = 
REMARK  5 active torsions:
REMARK  status: ('A' for Active; 'I' for Inactive)
REMARK    1  A    between atoms: O_1  and  C_2
REMARK    2  A    between atoms: C_2  and  C_4
REMARK    3  A    between atoms: C_4  and  C_5
REMARK    4  A    between atoms: C_7  and  O_8
REMARK    5  A    between atoms: C_9  and  O_10
REMARK                            x       y       z     vdW  Elec       q    Type
REMARK                         _______ _______ _______ _____ _____    ______ ____
ROOT
ATOM      1  C   UNL     1      10.209  -0.527  23.124  0.00  0.00    -0.033 A 
ATOM      2  C   UNL     1      10.817   0.225  24.144  0.00  0.00    +0.008 A 
ATOM      3  C   UNL     1      10.741   1.619  24.137  0.00  0.00    +0.049 A 
ATOM      4  C   UNL     1      10.058   2.255  23.111  0.00  0.00    +0.158 A 
ATOM      5  C   UNL     1       9.448   1.522  22.096  0.00  0.00    +0.158 A 
ATOM      6  C   UNL     1       9.518   0.132  22.094  0.00  0.00    +0.053 A 
ENDROOT
BRANCH   4   7
ATOM      7  O   UNL     1       9.994   3.617  23.101  0.00  0.00    -0.503 OA
ATOM      8  H   UNL     1      10.295   3.875  22.207  0.00  0.00    +0.292 HD
ENDBRANCH   4   7
BRANCH   5   9
ATOM      9  O   UNL     1       8.801   2.216  21.113  0.00  0.00    -0.503 OA
ATOM     10  H   UNL     1       8.006   1.720  20.855  0.00  0.00    +0.292 HD
ENDBRANCH   5   9
BRANCH   1  11
ATOM     11  C   UNL     1      10.354  -2.032  23.104  0.00  0.00    +0.155 C 
BRANCH  11  12
ATOM     12  C   UNL     1       9.534  -2.799  24.120  0.00  0.00    +0.309 C 
ATOM     13  O   UNL     1       8.512  -2.334  24.611  0.00  0.00    -0.251 OA
BRANCH  12  14
ATOM     14  O   UNL     1       9.979  -4.024  24.471  0.00  0.00    -0.480 OA
ATOM     15  H   UNL     1      10.009  -4.205  25.430  0.00  0.00    +0.295 HD
ENDBRANCH  12  14
ENDBRANCH  11  12
ENDBRANCH   1  11
TORSDOF 5
ENDMDL
MODEL 5
REMARK VINA RESULT:      -4.8      2.194      4.372
REMARK  Name = 
REMARK  5 active torsions:
REMARK  status: ('A' for Active; 'I' for Inactive)
REMARK    1  A    between atoms: O_1  and  C_2
REMARK    2  A    between atoms: C_2  and  C_4
REMARK    3  A    between atoms: C_4  and  C_5
REMARK    4  A    between atoms: C_7  and  O_8
REMARK    5  A    between atoms: C_9  and  O_10
REMARK                            x       y       z     vdW  Elec       q    Type
REMARK                         _______ _______ _______ _____ _____    ______ ____
ROOT
ATOM      1  C   UNL     1       6.722  -5.220  25.267  0.00  0.00    -0.033 A 
ATOM      2  C   UNL     1       6.478  -5.339  23.888  0.00  0.00    +0.008 A 
ATOM      3  C   UNL     1       5.429  -6.133  23.421  0.00  0.00    +0.049 A 
ATOM      4  C   UNL     1       4.630  -6.805  24.333  0.00  0.00    +0.158 A 
ATOM      5  C   UNL     1       4.858  -6.693  25.702  0.00  0.00    +0.158 A 
ATOM      6  C   UNL     1       5.901  -5.904  26.178  0.00  0.00    +0.053 A 
ENDROOT
BRANCH   4   7
ATOM      7  O   UNL     1       3.611  -7.587  23.873  0.00  0.00    -0.503 OA
ATOM      8  H   UNL     1       3.094  -7.817  24.671  0.00  0.00    +0.292 HD
ENDBRANCH   4   7
BRANCH   5   9
ATOM      9  O   UNL     1       4.036  -7.391  26.541  0.00  0.00    -0.503 OA
ATOM     10  H   UNL     1       4.585  -7.911  27.153  0.00  0.00    +0.292 HD
ENDBRANCH   5   9
BRANCH   1  11
ATOM     11  C   UNL     1       7.902  -4.413  25.760  0.00  0.00    +0.155 C 
BRANCH  11  12
ATOM     12  C   UNL     1       9.255  -4.787  25.191  0.00  0.00    +0.309 C 
ATOM     13  O   UNL     1       9.891  -4.021  24.476  0.00  0.00    -0.251 OA
BRANCH  12  14
ATOM     14  O   UNL     1       9.737  -6.009  25.503  0.00  0.00    -0.480 OA
ATOM     15  H   UNL     1      10.089  -6.528  24.754  0.00  0.00    +0.295 HD
ENDBRANCH  12  14
ENDBRANCH  11  12
ENDBRANCH   1  11
TORSDOF 5
ENDMDL
MODEL 6
REMARK VINA RESULT:      -4.8      1.766      4.135
REMARK  Name = 
REMARK  5 active torsions:
REMARK  status: ('A' for Active; 'I' for Inactive)
REMARK    1  A    between atoms: O_1  and  C_2
REMARK    2  A    between atoms: C_2  and  C_4
REMARK    3  A    between atoms: C_4  and  C_5
REMARK    4  A    between atoms: C_7  and  O_8
REMARK    5  A    between atoms: C_9  and  O_10
REMARK                            x       y       z     vdW  Elec       q    Type
REMARK                         _______ _______ _______ _____ _____    ______ ____
ROOT
ATOM      1  C   UNL     1       6.868  -4.994  24.979  0.00  0.00    -0.033 A 
ATOM      2  C   UNL     1       6.125  -5.640  25.983  0.00  0.00    +0.008 A 
ATOM      3  C   UNL     1       5.083  -6.505  25.645  0.00  0.00    +0.049 A 
ATOM      4  C   UNL     1       4.788  -6.721  24.308  0.00  0.00    +0.158 A 
ATOM      5  C   UNL     1       5.518  -6.091  23.304  0.00  0.00    +0.158 A 
ATOM      6  C   UNL     1       6.559  -5.227  23.629  0.00  0.00    +0.053 A 
ENDROOT
BRANCH   4   7
ATOM      7  O   UNL     1       3.763  -7.561  23.981  0.00  0.00    -0.503 OA
ATOM      8  H   UNL     1       3.557  -7.351  23.048  0.00  0.00    +0.292 HD
ENDBRANCH   4   7
BRANCH   5   9
ATOM      9  O   UNL     1       5.165  -6.345  22.008  0.00  0.00    -0.503 OA
ATOM     10  H   UNL     1       5.147  -7.308  21.874  0.00  0.00    +0.292 HD
ENDBRANCH   5   9
BRANCH   1  11
ATOM     11  C   UNL     1       7.949  -4.006  25.355  0.00  0.00    +0.155 C 
BRANCH  11  12
ATOM     12  C   UNL     1       9.335  -4.291  24.813  0.00  0.00    +0.309 C 
ATOM     13  O   UNL     1       9.969  -3.451  24.185  0.00  0.00    -0.251 OA
BRANCH  12  14
ATOM     14  O   UNL     1       9.848  -5.517  25.048  0.00  0.00    -0.480 OA
ATOM     15  H   UNL     1      10.680  -5.537  25.558  0.00  0.00    +0.295 HD
ENDBRANCH  12  14
ENDBRANCH  11  12
ENDBRANCH   1  11
TORSDOF 5
ENDMDL
MODEL 7
REMARK VINA RESULT:      -4.8      7.299      8.172
REMARK  Name = 
REMARK  5 active torsions:
REMARK  status: ('A' for Active; 'I' for Inactive)
REMARK    1  A    between atoms: O_1  and  C_2
REMARK    2  A    between atoms: C_2  and  C_4
REMARK    3  A    between atoms: C_4  and  C_5
REMARK    4  A    between atoms: C_7  and  O_8
REMARK    5  A    between atoms: C_9  and  O_10
REMARK                            x       y       z     vdW  Elec       q    Type
REMARK                         _______ _______ _______ _____ _____    ______ ____
ROOT
ATOM      1  C   UNL     1      10.347   1.844  23.361  0.00  0.00    -0.033 A 
ATOM      2  C   UNL     1      10.477   1.069  24.526  0.00  0.00    +0.008 A 
ATOM      3  C   UNL     1      10.291  -0.314  24.480  0.00  0.00    +0.049 A 
ATOM      4  C   UNL     1       9.977  -0.915  23.271  0.00  0.00    +0.158 A 
ATOM      5  C   UNL     1       9.850  -0.160  22.108  0.00  0.00    +0.158 A 
ATOM      6  C   UNL     1      10.033   1.219  22.143  0.00  0.00    +0.053 A 
ENDROOT
BRANCH   4   7
ATOM      7  O   UNL     1       9.787  -2.266  23.230  0.00  0.00    -0.503 OA
ATOM      8  H   UNL     1       8.820  -2.384  23.313  0.00  0.00    +0.292 HD
ENDBRANCH   4   7
BRANCH   5   9
ATOM      9  O   UNL     1       9.530  -0.819  20.955  0.00  0.00    -0.503 OA
ATOM     10  H   UNL     1       8.918  -1.543  21.171  0.00  0.00    +0.292 HD
ENDBRANCH   5   9
BRANCH   1  11
ATOM     11  C   UNL     1      10.483   3.348  23.434  0.00  0.00    +0.155 C 
BRANCH  11  12
ATOM     12  C   UNL     1       9.218   4.122  23.742  0.00  0.00    +0.309 C 
ATOM     13  O   UNL     1       8.903   4.419  24.889  0.00  0.00    -0.251 OA
BRANCH  12  14
ATOM     14  O   UNL     1       8.440   4.471  22.695  0.00  0.00    -0.480 OA
ATOM     15  H   UNL     1       8.762   5.224  22.162  0.00  0.00    +0.295 HD
ENDBRANCH  12  14
ENDBRANCH  11  12
ENDBRANCH   1  11
TORSDOF 5
ENDMDL
MODEL 8
REMARK VINA RESULT:      -4.8      3.817      5.235
REMARK  Name = 
REMARK  5 active torsions:
REMARK  status: ('A' for Active; 'I' for Inactive)
REMARK    1  A    between atoms: O_1  and  C_2
REMARK    2  A    between atoms: C_2  and  C_4
REMARK    3  A    between atoms: C_4  and  C_5
REMARK    4  A    between atoms: C_7  and  O_8
REMARK    5  A    between atoms: C_9  and  O_10
REMARK                            x       y       z     vdW  Elec       q    Type
REMARK                         _______ _______ _______ _____ _____    ______ ____
ROOT
ATOM      1  C   UNL     1       9.005  -2.868  24.615  0.00  0.00    -0.033 A 
ATOM      2  C   UNL     1       9.765  -2.196  23.642  0.00  0.00    +0.008 A 
ATOM      3  C   UNL     1      10.136  -0.863  23.829  0.00  0.00    +0.049 A 
ATOM      4  C   UNL     1       9.744  -0.208  24.987  0.00  0.00    +0.158 A 
ATOM      5  C   UNL     1       8.994  -0.863  25.960  0.00  0.00    +0.158 A 
ATOM      6  C   UNL     1       8.620  -2.191  25.784  0.00  0.00    +0.053 A 
ENDROOT
BRANCH   4   7
ATOM      7  O   UNL     1      10.099   1.098  25.163  0.00  0.00    -0.503 OA
ATOM      8  H   UNL     1       9.291   1.606  24.953  0.00  0.00    +0.292 HD
ENDBRANCH   4   7
BRANCH   5   9
ATOM      9  O   UNL     1       8.637  -0.151  27.071  0.00  0.00    -0.503 OA
ATOM     10  H   UNL     1       8.878   0.781  26.933  0.00  0.00    +0.292 HD
ENDBRANCH   5   9
BRANCH   1  11
ATOM     11  C   UNL     1       8.551  -4.290  24.372  0.00  0.00    +0.155 C 
BRANCH  11  12
ATOM     12  C   UNL     1       8.977  -5.315  25.403  0.00  0.00    +0.309 C 
ATOM     13  O   UNL     1       8.188  -5.781  26.216  0.00  0.00    -0.251 OA
BRANCH  12  14
ATOM     14  O   UNL     1      10.272  -5.696  25.394  0.00  0.00    -0.480 OA
ATOM     15  H   UNL     1      10.504  -6.392  24.749  0.00  0.00    +0.295 HD
ENDBRANCH  12  14
ENDBRANCH  11  12
ENDBRANCH   1  11
TORSDOF 5
ENDMDL
MODEL 9
REMARK VINA RESULT:      -4.8      1.439      4.998
REMARK  Name = 
REMARK  5 active torsions:
REMARK  status: ('A' for Active; 'I' for Inactive)
REMARK    1  A    between atoms: O_1  and  C_2
REMARK    2  A    between atoms: C_2  and  C_4
REMARK    3  A    between atoms: C_4  and  C_5
REMARK    4  A    between atoms: C_7  and  O_8
REMARK    5  A    between atoms: C_9  and  O_10
REMARK                            x       y       z     vdW  Elec       q    Type
REMARK                         _______ _______ _______ _____ _____    ______ ____
ROOT
ATOM      1  C   UNL     1       7.022  -4.476  24.531  0.00  0.00    -0.033 A 
ATOM      2  C   UNL     1       7.869  -5.139  23.627  0.00  0.00    +0.008 A 
ATOM      3  C   UNL     1       7.353  -5.712  22.463  0.00  0.00    +0.049 A 
ATOM      4  C   UNL     1       5.993  -5.619  22.208  0.00  0.00    +0.158 A 
ATOM      5  C   UNL     1       5.143  -4.962  23.093  0.00  0.00    +0.158 A 
ATOM      6  C   UNL     1       5.647  -4.388  24.256  0.00  0.00    +0.053 A 
ENDROOT
BRANCH   4   7
ATOM      7  O   UNL     1       5.490  -6.188  21.074  0.00  0.00    -0.503 OA
ATOM      8  H   UNL     1       5.971  -5.752  20.342  0.00  0.00    +0.292 HD
ENDBRANCH   4   7
BRANCH   5   9
ATOM      9  O   UNL     1       3.814  -4.918  22.781  0.00  0.00    -0.503 OA
ATOM     10  H   UNL     1       3.393  -4.218  23.309  0.00  0.00    +0.292 HD
ENDBRANCH   5   9
BRANCH   1  11
ATOM     11  C   UNL     1       7.579  -3.919  25.821  0.00  0.00    +0.155 C 
BRANCH  11  12
ATOM     12  C   UNL     1       8.241  -4.914  26.752  0.00  0.00    +0.309 C 
ATOM     13  O   UNL     1       7.588  -5.669  27.462  0.00  0.00    -0.251 OA
BRANCH  12  14
ATOM     14  O   UNL     1       9.591  -4.935  26.771  0.00  0.00    -0.480 OA
ATOM     15  H   UNL     1      10.017  -5.401  26.026  0.00  0.00    +0.295 HD
ENDBRANCH  12  14
ENDBRANCH  11  12
ENDBRANCH   1  11
TORSDOF 5
ENDMDL
