MODEL 1
REMARK VINA RESULT:      -7.1      0.000      0.000
REMARK  Name = 
REMARK  12 active torsions:
REMARK  status: ('A' for Active; 'I' for Inactive)
REMARK    1  A    between atoms: C_1  and  O_2
REMARK    2  A    between atoms: O_2  and  C_3
REMARK    3  A    between atoms: C_4  and  O_5
REMARK    4  A    between atoms: O_5  and  C_6
REMARK    5  A    between atoms: C_6  and  C_7
REMARK    6  A    between atoms: C_7  and  C_8
REMARK    7  A    between atoms: C_8  and  N_9
REMARK    8  A    between atoms: N_29  and  C_30
REMARK    9  A    between atoms: C_33  and  O_34
REMARK   10  A    between atoms: O_34  and  C_35
REMARK   11  A    between atoms: C_35  and  C_36
REMARK   12  A    between atoms: C_35  and  C_37
REMARK                            x       y       z     vdW  Elec       q    Type
REMARK                         _______ _______ _______ _____ _____    ______ ____
ROOT
ATOM      1  C   UNL     1       4.497  -6.233  23.902  0.00  0.00    +0.162 A 
ATOM      2  C   UNL     1       5.547  -5.617  24.555  0.00  0.00    +0.062 A 
ATOM      3  C   UNL     1       5.765  -5.803  25.932  0.00  0.00    +0.044 A 
ATOM      4  C   UNL     1       5.071  -6.793  26.615  0.00  0.00    +0.080 A 
ATOM      5  N   UNL     1       5.344  -7.090  27.892  0.00  0.00    -0.235 NA
ATOM      6  C   UNL     1       6.314  -6.367  28.472  0.00  0.00    +0.223 A 
ATOM      7  N   UNL     1       6.985  -5.340  27.930  0.00  0.00    -0.220 NA
ATOM      8  C   UNL     1       4.083  -7.494  25.929  0.00  0.00    +0.078 A 
ATOM      9  C   UNL     1       6.677  -5.029  26.661  0.00  0.00    +0.132 A 
ATOM     10  N   UNL     1       7.300  -3.949  26.051  0.00  0.00    -0.312 N 
ATOM     11  C   UNL     1       6.486  -2.826  25.540  0.00  0.00    +0.125 C 
ATOM     12  C   UNL     1       7.228  -2.187  24.340  0.00  0.00    +0.128 C 
ATOM     13  N   UNL     1       8.623  -1.858  24.682  0.00  0.00    -0.282 N 
ATOM     14  C   UNL     1       9.288  -0.668  24.521  0.00  0.00    +0.307 C 
ATOM     15  N   UNL     1       8.644   0.335  23.834  0.00  0.00    -0.269 N 
ATOM     16  H   UNL     1       7.766   0.123  23.398  0.00  0.00    +0.156 HD
ATOM     17  O   UNL     1      10.423  -0.546  25.002  0.00  0.00    -0.252 OA
ATOM     18  C   UNL     1       9.365  -2.963  25.337  0.00  0.00    +0.128 C 
ATOM     19  C   UNL     1       8.605  -3.522  26.551  0.00  0.00    +0.125 C 
ATOM     20  C   UNL     1       3.768  -7.208  24.594  0.00  0.00    +0.164 A 
ENDROOT
BRANCH  15  21
ATOM     21  C   UNL     1       9.120   1.663  23.669  0.00  0.00    +0.035 A 
ATOM     22  C   UNL     1       8.544   2.681  24.438  0.00  0.00    +0.027 A 
ATOM     23  C   UNL     1       9.047   3.995  24.385  0.00  0.00    +0.047 A 
ATOM     24  C   UNL     1      10.140   4.296  23.576  0.00  0.00    +0.121 A 
ATOM     25  C   UNL     1      10.676   3.299  22.770  0.00  0.00    +0.047 A 
ATOM     26  C   UNL     1      10.159   2.003  22.805  0.00  0.00    +0.027 A 
BRANCH  24  27
ATOM     27  O   UNL     1      10.833   5.469  23.542  0.00  0.00    -0.489 OA
BRANCH  27  28
ATOM     28  C   UNL     1      12.201   5.478  23.951  0.00  0.00    +0.167 C 
ATOM     29  C   UNL     1      12.341   6.669  24.902  0.00  0.00    +0.051 C 
ATOM     30  C   UNL     1      13.120   5.696  22.752  0.00  0.00    +0.051 C 
ENDBRANCH  27  28
ENDBRANCH  24  27
ENDBRANCH  15  21
BRANCH   1  32
ATOM     31  C   UNL     1       5.176  -5.208  21.880  0.00  0.00    +0.277 C 
ATOM     32  O   UNL     1       4.164  -5.912  22.607  0.00  0.00    -0.491 OA
ENDBRANCH   1  32
BRANCH  20  33
ATOM     33  O   UNL     1       2.773  -7.826  23.900  0.00  0.00    -0.488 OA
BRANCH  33  34
ATOM     34  C   UNL     1       1.540  -8.134  24.564  0.00  0.00    +0.230 C 
BRANCH  34  35
ATOM     35  C   UNL     1       0.710  -6.877  24.384  0.00  0.00    +0.056 C 
BRANCH  35  36
ATOM     36  C   UNL     1       0.444  -6.025  25.627  0.00  0.00    +0.087 C 
BRANCH  36  37
ATOM     37  N   UNL     1       1.570  -5.092  25.843  0.00  0.00    -0.302 NA
ATOM     38  C   UNL     1       1.859  -4.791  27.252  0.00  0.00    +0.084 C 
ATOM     39  C   UNL     1       0.747  -3.984  27.915  0.00  0.00    +0.015 C 
ATOM     40  C   UNL     1       0.530  -2.667  27.180  0.00  0.00    +0.002 C 
ATOM     41  C   UNL     1       0.445  -2.838  25.662  0.00  0.00    +0.015 C 
ATOM     42  C   UNL     1       1.458  -3.837  25.091  0.00  0.00    +0.084 C 
ENDBRANCH  36  37
ENDBRANCH  35  36
ENDBRANCH  34  35
ENDBRANCH  33  34
ENDBRANCH  20  33
TORSDOF 9
ENDMDL
MODEL 2
REMARK VINA RESULT:      -6.1      2.901     11.199
REMARK  Name = 
REMARK  12 active torsions:
REMARK  status: ('A' for Active; 'I' for Inactive)
REMARK    1  A    between atoms: C_1  and  O_2
REMARK    2  A    between atoms: O_2  and  C_3
REMARK    3  A    between atoms: C_4  and  O_5
REMARK    4  A    between atoms: O_5  and  C_6
REMARK    5  A    between atoms: C_6  and  C_7
REMARK    6  A    between atoms: C_7  and  C_8
REMARK    7  A    between atoms: C_8  and  N_9
REMARK    8  A    between atoms: N_29  and  C_30
REMARK    9  A    between atoms: C_33  and  O_34
REMARK   10  A    between atoms: O_34  and  C_35
REMARK   11  A    between atoms: C_35  and  C_36
REMARK   12  A    between atoms: C_35  and  C_37
REMARK                            x       y       z     vdW  Elec       q    Type
REMARK                         _______ _______ _______ _____ _____    ______ ____
ROOT
ATOM      1  C   UNL     1       7.942   2.667  25.673  0.00  0.00    +0.162 A 
ATOM      2  C   UNL     1       8.006   1.393  25.145  0.00  0.00    +0.062 A 
ATOM      3  C   UNL     1       8.522   1.156  23.858  0.00  0.00    +0.044 A 
ATOM      4  C   UNL     1       9.192   2.169  23.185  0.00  0.00    +0.080 A 
ATOM      5  N   UNL     1       9.810   1.948  22.018  0.00  0.00    -0.235 NA
ATOM      6  C   UNL     1       9.732   0.699  21.535  0.00  0.00    +0.223 A 
ATOM      7  N   UNL     1       9.045  -0.326  22.062  0.00  0.00    -0.220 NA
ATOM      8  C   UNL     1       9.224   3.434  23.765  0.00  0.00    +0.078 A 
ATOM      9  C   UNL     1       8.399  -0.081  23.214  0.00  0.00    +0.132 A 
ATOM     10  N   UNL     1       7.632  -1.082  23.792  0.00  0.00    -0.312 N 
ATOM     11  C   UNL     1       6.188  -0.860  24.020  0.00  0.00    +0.125 C 
ATOM     12  C   UNL     1       5.749  -1.696  25.248  0.00  0.00    +0.128 C 
ATOM     13  N   UNL     1       6.164  -3.104  25.118  0.00  0.00    -0.282 N 
ATOM     14  C   UNL     1       5.402  -4.238  25.252  0.00  0.00    +0.307 C 
ATOM     15  N   UNL     1       4.109  -4.089  25.695  0.00  0.00    -0.269 N 
ATOM     16  H   UNL     1       3.811  -3.179  25.993  0.00  0.00    +0.156 HD
ATOM     17  O   UNL     1       5.904  -5.333  24.964  0.00  0.00    -0.252 OA
ATOM     18  C   UNL     1       7.586  -3.286  24.735  0.00  0.00    +0.128 C 
ATOM     19  C   UNL     1       7.949  -2.474  23.480  0.00  0.00    +0.125 C 
ATOM     20  C   UNL     1       8.584   3.703  24.983  0.00  0.00    +0.164 A 
ENDROOT
BRANCH  15  21
ATOM     21  C   UNL     1       3.140  -5.125  25.785  0.00  0.00    +0.035 A 
ATOM     22  C   UNL     1       2.258  -5.311  24.714  0.00  0.00    +0.027 A 
ATOM     23  C   UNL     1       1.348  -6.384  24.710  0.00  0.00    +0.047 A 
ATOM     24  C   UNL     1       1.324  -7.289  25.769  0.00  0.00    +0.121 A 
ATOM     25  C   UNL     1       2.160  -7.072  26.858  0.00  0.00    +0.047 A 
ATOM     26  C   UNL     1       3.044  -5.992  26.871  0.00  0.00    +0.027 A 
BRANCH  24  27
ATOM     27  O   UNL     1       0.622  -8.455  25.833  0.00  0.00    -0.489 OA
BRANCH  27  28
ATOM     28  C   UNL     1       1.158  -9.622  25.212  0.00  0.00    +0.167 C 
ATOM     29  C   UNL     1       0.443  -9.742  23.864  0.00  0.00    +0.051 C 
ATOM     30  C   UNL     1       0.850 -10.865  26.043  0.00  0.00    +0.051 C 
ENDBRANCH  27  28
ENDBRANCH  24  27
ENDBRANCH  15  21
BRANCH   1  32
ATOM     31  C   UNL     1       6.356   1.910  27.258  0.00  0.00    +0.277 C 
ATOM     32  O   UNL     1       7.271   2.931  26.843  0.00  0.00    -0.491 OA
ENDBRANCH   1  32
BRANCH  20  33
ATOM     33  O   UNL     1       8.539   4.934  25.561  0.00  0.00    -0.488 OA
BRANCH  33  34
ATOM     34  C   UNL     1       8.029   6.045  24.809  0.00  0.00    +0.230 C 
BRANCH  34  35
ATOM     35  C   UNL     1       6.618   6.219  25.338  0.00  0.00    +0.056 C 
BRANCH  35  36
ATOM     36  C   UNL     1       5.523   5.344  24.723  0.00  0.00    +0.087 C 
BRANCH  36  37
ATOM     37  N   UNL     1       5.644   5.355  23.249  0.00  0.00    -0.302 NA
ATOM     38  C   UNL     1       4.544   6.031  22.546  0.00  0.00    +0.084 C 
ATOM     39  C   UNL     1       3.222   5.281  22.675  0.00  0.00    +0.015 C 
ATOM     40  C   UNL     1       3.352   3.869  22.114  0.00  0.00    +0.002 C 
ATOM     41  C   UNL     1       4.605   3.144  22.607  0.00  0.00    +0.015 C 
ATOM     42  C   UNL     1       5.856   4.029  22.659  0.00  0.00    +0.084 C 
ENDBRANCH  36  37
ENDBRANCH  35  36
ENDBRANCH  34  35
ENDBRANCH  33  34
ENDBRANCH  20  33
TORSDOF 9
ENDMDL
MODEL 3
REMARK VINA RESULT:      -5.7      3.126     11.038
REMARK  Name = 
REMARK  12 active torsions:
REMARK  status: ('A' for Active; 'I' for Inactive)
REMARK    1  A    between atoms: C_1  and  O_2
REMARK    2  A    between atoms: O_2  and  C_3
REMARK    3  A    between atoms: C_4  and  O_5
REMARK    4  A    between atoms: O_5  and  C_6
REMARK    5  A    between atoms: C_6  and  C_7
REMARK    6  A    between atoms: C_7  and  C_8
REMARK    7  A    between atoms: C_8  and  N_9
REMARK    8  A    between atoms: N_29  and  C_30
REMARK    9  A    between atoms: C_33  and  O_34
REMARK   10  A    between atoms: O_34  and  C_35
REMARK   11  A    between atoms: C_35  and  C_36
REMARK   12  A    between atoms: C_35  and  C_37
REMARK                            x       y       z     vdW  Elec       q    Type
REMARK                         _______ _______ _______ _____ _____    ______ ____
ROOT
ATOM      1  C   UNL     1       8.303   1.521  25.230  0.00  0.00    +0.162 A 
ATOM      2  C   UNL     1       8.242   0.163  24.986  0.00  0.00    +0.062 A 
ATOM      3  C   UNL     1       8.610  -0.375  23.739  0.00  0.00    +0.044 A 
ATOM      4  C   UNL     1       9.263   0.421  22.808  0.00  0.00    +0.080 A 
ATOM      5  N   UNL     1       9.745  -0.085  21.665  0.00  0.00    -0.235 NA
ATOM      6  C   UNL     1       9.549  -1.397  21.472  0.00  0.00    +0.223 A 
ATOM      7  N   UNL     1       8.863  -2.234  22.265  0.00  0.00    -0.220 NA
ATOM      8  C   UNL     1       9.424   1.773  23.097  0.00  0.00    +0.078 A 
ATOM      9  C   UNL     1       8.354  -1.707  23.389  0.00  0.00    +0.132 A 
ATOM     10  N   UNL     1       7.596  -2.504  24.235  0.00  0.00    -0.312 N 
ATOM     11  C   UNL     1       6.197  -2.131  24.536  0.00  0.00    +0.125 C 
ATOM     12  C   UNL     1       5.841  -2.656  25.950  0.00  0.00    +0.128 C 
ATOM     13  N   UNL     1       6.162  -4.087  26.089  0.00  0.00    -0.282 N 
ATOM     14  C   UNL     1       5.357  -5.107  26.530  0.00  0.00    +0.307 C 
ATOM     15  N   UNL     1       4.126  -4.772  27.044  0.00  0.00    -0.269 N 
ATOM     16  H   UNL     1       3.910  -3.799  27.164  0.00  0.00    +0.156 HD
ATOM     17  O   UNL     1       5.765  -6.273  26.442  0.00  0.00    -0.252 OA
ATOM     18  C   UNL     1       7.525  -4.452  25.630  0.00  0.00    +0.128 C 
ATOM     19  C   UNL     1       7.802  -3.950  24.203  0.00  0.00    +0.125 C 
ATOM     20  C   UNL     1       8.927   2.338  24.280  0.00  0.00    +0.164 A 
ENDROOT
BRANCH  15  21
ATOM     21  C   UNL     1       3.115  -5.689  27.439  0.00  0.00    +0.035 A 
ATOM     22  C   UNL     1       2.153  -6.072  26.498  0.00  0.00    +0.027 A 
ATOM     23  C   UNL     1       1.192  -7.052  26.809  0.00  0.00    +0.047 A 
ATOM     24  C   UNL     1       1.197  -7.669  28.058  0.00  0.00    +0.121 A 
ATOM     25  C   UNL     1       2.117  -7.250  29.012  0.00  0.00    +0.047 A 
ATOM     26  C   UNL     1       3.052  -6.259  28.709  0.00  0.00    +0.027 A 
BRANCH  24  27
ATOM     27  O   UNL     1       0.445  -8.737  28.446  0.00  0.00    -0.489 OA
BRANCH  27  28
ATOM     28  C   UNL     1       1.032 -10.037  28.444  0.00  0.00    +0.167 C 
ATOM     29  C   UNL     1       0.443 -10.758  27.229  0.00  0.00    +0.051 C 
ATOM     30  C   UNL     1       0.645 -10.805  29.705  0.00  0.00    +0.051 C 
ENDBRANCH  27  28
ENDBRANCH  24  27
ENDBRANCH  15  21
BRANCH   1  32
ATOM     31  C   UNL     1       6.619   1.399  26.888  0.00  0.00    +0.277 C 
ATOM     32  O   UNL     1       7.771   2.073  26.372  0.00  0.00    -0.491 OA
ENDBRANCH   1  32
BRANCH  20  33
ATOM     33  O   UNL     1       9.011   3.663  24.581  0.00  0.00    -0.488 OA
BRANCH  33  34
ATOM     34  C   UNL     1       8.439   4.624  23.684  0.00  0.00    +0.230 C 
BRANCH  34  35
ATOM     35  C   UNL     1       7.414   5.348  24.537  0.00  0.00    +0.056 C 
BRANCH  35  36
ATOM     36  C   UNL     1       5.955   5.302  24.075  0.00  0.00    +0.087 C 
BRANCH  36  37
ATOM     37  N   UNL     1       5.326   4.045  24.533  0.00  0.00    -0.302 NA
ATOM     38  C   UNL     1       5.288   2.973  23.529  0.00  0.00    +0.084 C 
ATOM     39  C   UNL     1       4.359   3.298  22.364  0.00  0.00    +0.015 C 
ATOM     40  C   UNL     1       2.938   3.534  22.863  0.00  0.00    +0.002 C 
ATOM     41  C   UNL     1       2.878   4.469  24.073  0.00  0.00    +0.015 C 
ATOM     42  C   UNL     1       3.986   4.224  25.104  0.00  0.00    +0.084 C 
ENDBRANCH  36  37
ENDBRANCH  35  36
ENDBRANCH  34  35
ENDBRANCH  33  34
ENDBRANCH  20  33
TORSDOF 9
ENDMDL
MODEL 4
REMARK VINA RESULT:      -5.3      2.829      4.134
REMARK  Name = 
REMARK  12 active torsions:
REMARK  status: ('A' for Active; 'I' for Inactive)
REMARK    1  A    between atoms: C_1  and  O_2
REMARK    2  A    between atoms: O_2  and  C_3
REMARK    3  A    between atoms: C_4  and  O_5
REMARK    4  A    between atoms: O_5  and  C_6
REMARK    5  A    between atoms: C_6  and  C_7
REMARK    6  A    between atoms: C_7  and  C_8
REMARK    7  A    between atoms: C_8  and  N_9
REMARK    8  A    between atoms: N_29  and  C_30
REMARK    9  A    between atoms: C_33  and  O_34
REMARK   10  A    between atoms: O_34  and  C_35
REMARK   11  A    between atoms: C_35  and  C_36
REMARK   12  A    between atoms: C_35  and  C_37
REMARK                            x       y       z     vdW  Elec       q    Type
REMARK                         _______ _______ _______ _____ _____    ______ ____
ROOT
ATOM      1  C   UNL     1       4.064  -4.868  28.060  0.00  0.00    +0.162 A 
ATOM      2  C   UNL     1       4.129  -3.509  28.302  0.00  0.00    +0.062 A 
ATOM      3  C   UNL     1       2.989  -2.774  28.673  0.00  0.00    +0.044 A 
ATOM      4  C   UNL     1       1.824  -3.439  29.031  0.00  0.00    +0.080 A 
ATOM      5  N   UNL     1       0.761  -2.784  29.515  0.00  0.00    -0.235 NA
ATOM      6  C   UNL     1       0.885  -1.452  29.620  0.00  0.00    +0.223 A 
ATOM      7  N   UNL     1       1.930  -0.708  29.227  0.00  0.00    -0.220 NA
ATOM      8  C   UNL     1       1.788  -4.823  28.892  0.00  0.00    +0.078 A 
ATOM      9  C   UNL     1       2.976  -1.374  28.710  0.00  0.00    +0.132 A 
ATOM     10  N   UNL     1       4.073  -0.666  28.243  0.00  0.00    -0.312 N 
ATOM     11  C   UNL     1       4.484  -0.798  26.829  0.00  0.00    +0.125 C 
ATOM     12  C   UNL     1       6.013  -0.569  26.736  0.00  0.00    +0.128 C 
ATOM     13  N   UNL     1       6.411   0.685  27.400  0.00  0.00    -0.282 N 
ATOM     14  C   UNL     1       7.173   1.713  26.903  0.00  0.00    +0.307 C 
ATOM     15  N   UNL     1       7.772   1.529  25.679  0.00  0.00    -0.269 N 
ATOM     16  H   UNL     1       7.710   0.624  25.251  0.00  0.00    +0.156 HD
ATOM     17  O   UNL     1       7.281   2.753  27.567  0.00  0.00    -0.252 OA
ATOM     18  C   UNL     1       5.852   0.856  28.763  0.00  0.00    +0.128 C 
ATOM     19  C   UNL     1       4.325   0.668  28.783  0.00  0.00    +0.125 C 
ATOM     20  C   UNL     1       2.880  -5.542  28.384  0.00  0.00    +0.164 A 
ENDROOT
BRANCH  15  21
ATOM     21  C   UNL     1       8.497   2.514  24.955  0.00  0.00    +0.035 A 
ATOM     22  C   UNL     1       8.109   3.853  25.075  0.00  0.00    +0.027 A 
ATOM     23  C   UNL     1       8.855   4.876  24.460  0.00  0.00    +0.047 A 
ATOM     24  C   UNL     1      10.004   4.568  23.735  0.00  0.00    +0.121 A 
ATOM     25  C   UNL     1      10.358   3.234  23.569  0.00  0.00    +0.047 A 
ATOM     26  C   UNL     1       9.602   2.220  24.159  0.00  0.00    +0.027 A 
BRANCH  24  27
ATOM     27  O   UNL     1      10.910   5.450  23.225  0.00  0.00    -0.489 OA
BRANCH  27  28
ATOM     28  C   UNL     1      12.268   5.376  23.656  0.00  0.00    +0.167 C 
ATOM     29  C   UNL     1      12.444   6.505  24.674  0.00  0.00    +0.051 C 
ATOM     30  C   UNL     1      13.218   5.617  22.486  0.00  0.00    +0.051 C 
ENDBRANCH  27  28
ENDBRANCH  24  27
ENDBRANCH  15  21
BRANCH   1  32
ATOM     31  C   UNL     1       6.311  -4.781  27.323  0.00  0.00    +0.277 C 
ATOM     32  O   UNL     1       5.123  -5.556  27.517  0.00  0.00    -0.491 OA
ENDBRANCH   1  32
BRANCH  20  33
ATOM     33  O   UNL     1       2.873  -6.887  28.177  0.00  0.00    -0.488 OA
BRANCH  33  34
ATOM     34  C   UNL     1       1.658  -7.527  27.763  0.00  0.00    +0.230 C 
BRANCH  34  35
ATOM     35  C   UNL     1       1.513  -7.118  26.309  0.00  0.00    +0.056 C 
BRANCH  35  36
ATOM     36  C   UNL     1       2.707  -7.367  25.385  0.00  0.00    +0.087 C 
BRANCH  36  37
ATOM     37  N   UNL     1       2.517  -6.636  24.115  0.00  0.00    -0.302 NA
ATOM     38  C   UNL     1       3.748  -6.409  23.344  0.00  0.00    +0.084 C 
ATOM     39  C   UNL     1       4.700  -5.441  24.040  0.00  0.00    +0.015 C 
ATOM     40  C   UNL     1       4.023  -4.094  24.266  0.00  0.00    +0.002 C 
ATOM     41  C   UNL     1       2.619  -4.225  24.860  0.00  0.00    +0.015 C 
ATOM     42  C   UNL     1       1.793  -5.368  24.259  0.00  0.00    +0.084 C 
ENDBRANCH  36  37
ENDBRANCH  35  36
ENDBRANCH  34  35
ENDBRANCH  33  34
ENDBRANCH  20  33
TORSDOF 9
ENDMDL
MODEL 5
REMARK VINA RESULT:      -5.3      3.225     11.036
REMARK  Name = 
REMARK  12 active torsions:
REMARK  status: ('A' for Active; 'I' for Inactive)
REMARK    1  A    between atoms: C_1  and  O_2
REMARK    2  A    between atoms: O_2  and  C_3
REMARK    3  A    between atoms: C_4  and  O_5
REMARK    4  A    between atoms: O_5  and  C_6
REMARK    5  A    between atoms: C_6  and  C_7
REMARK    6  A    between atoms: C_7  and  C_8
REMARK    7  A    between atoms: C_8  and  N_9
REMARK    8  A    between atoms: N_29  and  C_30
REMARK    9  A    between atoms: C_33  and  O_34
REMARK   10  A    between atoms: O_34  and  C_35
REMARK   11  A    between atoms: C_35  and  C_36
REMARK   12  A    between atoms: C_35  and  C_37
REMARK                            x       y       z     vdW  Elec       q    Type
REMARK                         _______ _______ _______ _____ _____    ______ ____
ROOT
ATOM      1  C   UNL     1       8.423   3.409  25.226  0.00  0.00    +0.162 A 
ATOM      2  C   UNL     1       8.367   2.032  25.146  0.00  0.00    +0.062 A 
ATOM      3  C   UNL     1       8.748   1.348  23.977  0.00  0.00    +0.044 A 
ATOM      4  C   UNL     1       9.410   2.029  22.963  0.00  0.00    +0.080 A 
ATOM      5  N   UNL     1       9.905   1.390  21.895  0.00  0.00    -0.235 NA
ATOM      6  C   UNL     1       9.713   0.064  21.858  0.00  0.00    +0.223 A 
ATOM      7  N   UNL     1       9.020  -0.674  22.740  0.00  0.00    -0.220 NA
ATOM      8  C   UNL     1       9.566   3.406  23.089  0.00  0.00    +0.078 A 
ATOM      9  C   UNL     1       8.498  -0.016  23.787  0.00  0.00    +0.132 A 
ATOM     10  N   UNL     1       7.732  -0.708  24.715  0.00  0.00    -0.312 N 
ATOM     11  C   UNL     1       6.331  -0.305  24.955  0.00  0.00    +0.125 C 
ATOM     12  C   UNL     1       5.960  -0.658  26.418  0.00  0.00    +0.128 C 
ATOM     13  N   UNL     1       6.282  -2.061  26.731  0.00  0.00    -0.282 N 
ATOM     14  C   UNL     1       5.474  -3.023  27.284  0.00  0.00    +0.307 C 
ATOM     15  N   UNL     1       4.237  -2.631  27.741  0.00  0.00    -0.269 N 
ATOM     16  H   UNL     1       4.019  -1.652  27.741  0.00  0.00    +0.156 HD
ATOM     17  O   UNL     1       5.885  -4.190  27.341  0.00  0.00    -0.252 OA
ATOM     18  C   UNL     1       7.650  -2.475  26.333  0.00  0.00    +0.128 C 
ATOM     19  C   UNL     1       7.941  -2.147  24.859  0.00  0.00    +0.125 C 
ATOM     20  C   UNL     1       9.056   4.108  24.191  0.00  0.00    +0.164 A 
ENDROOT
BRANCH  15  21
ATOM     21  C   UNL     1       3.224  -3.497  28.234  0.00  0.00    +0.035 A 
ATOM     22  C   UNL     1       2.443  -4.206  27.313  0.00  0.00    +0.027 A 
ATOM     23  C   UNL     1       1.496  -5.151  27.750  0.00  0.00    +0.047 A 
ATOM     24  C   UNL     1       1.334  -5.406  29.111  0.00  0.00    +0.121 A 
ATOM     25  C   UNL     1       2.069  -4.662  30.026  0.00  0.00    +0.047 A 
ATOM     26  C   UNL     1       2.989  -3.707  29.591  0.00  0.00    +0.027 A 
BRANCH  24  27
ATOM     27  O   UNL     1       0.584  -6.394  29.673  0.00  0.00    -0.489 OA
BRANCH  27  28
ATOM     28  C   UNL     1       1.027  -7.746  29.570  0.00  0.00    +0.167 C 
ATOM     29  C   UNL     1       2.539  -7.707  29.808  0.00  0.00    +0.051 C 
ATOM     30  C   UNL     1       0.764  -8.294  28.170  0.00  0.00    +0.051 C 
ENDBRANCH  27  28
ENDBRANCH  24  27
ENDBRANCH  15  21
BRANCH   1  32
ATOM     31  C   UNL     1       7.124   3.290  27.200  0.00  0.00    +0.277 C 
ATOM     32  O   UNL     1       7.879   4.093  26.287  0.00  0.00    -0.491 OA
ENDBRANCH   1  32
BRANCH  20  33
ATOM     33  O   UNL     1       9.134   5.460  24.331  0.00  0.00    -0.488 OA
BRANCH  33  34
ATOM     34  C   UNL     1       8.669   6.304  23.269  0.00  0.00    +0.230 C 
BRANCH  34  35
ATOM     35  C   UNL     1       7.232   6.605  23.651  0.00  0.00    +0.056 C 
BRANCH  35  36
ATOM     36  C   UNL     1       6.130   5.989  22.786  0.00  0.00    +0.087 C 
BRANCH  36  37
ATOM     37  N   UNL     1       4.871   5.918  23.558  0.00  0.00    -0.302 NA
ATOM     38  C   UNL     1       4.877   4.942  24.657  0.00  0.00    +0.084 C 
ATOM     39  C   UNL     1       4.935   3.502  24.157  0.00  0.00    +0.015 C 
ATOM     40  C   UNL     1       3.743   3.200  23.256  0.00  0.00    +0.002 C 
ATOM     41  C   UNL     1       3.500   4.284  22.204  0.00  0.00    +0.015 C 
ATOM     42  C   UNL     1       3.677   5.713  22.732  0.00  0.00    +0.084 C 
ENDBRANCH  36  37
ENDBRANCH  35  36
ENDBRANCH  34  35
ENDBRANCH  33  34
ENDBRANCH  20  33
TORSDOF 9
ENDMDL
MODEL 6
REMARK VINA RESULT:      -5.2      2.370      3.933
REMARK  Name = 
REMARK  12 active torsions:
REMARK  status: ('A' for Active; 'I' for Inactive)
REMARK    1  A    between atoms: C_1  and  O_2
REMARK    2  A    between atoms: O_2  and  C_3
REMARK    3  A    between atoms: C_4  and  O_5
REMARK    4  A    between atoms: O_5  and  C_6
REMARK    5  A    between atoms: C_6  and  C_7
REMARK    6  A    between atoms: C_7  and  C_8
REMARK    7  A    between atoms: C_8  and  N_9
REMARK    8  A    between atoms: N_29  and  C_30
REMARK    9  A    between atoms: C_33  and  O_34
REMARK   10  A    between atoms: O_34  and  C_35
REMARK   11  A    between atoms: C_35  and  C_36
REMARK   12  A    between atoms: C_35  and  C_37
REMARK                            x       y       z     vdW  Elec       q    Type
REMARK                         _______ _______ _______ _____ _____    ______ ____
ROOT
ATOM      1  C   UNL     1       2.003  -3.988  26.828  0.00  0.00    +0.162 A 
ATOM      2  C   UNL     1       2.973  -3.838  25.857  0.00  0.00    +0.062 A 
ATOM      3  C   UNL     1       3.734  -4.931  25.404  0.00  0.00    +0.044 A 
ATOM      4  C   UNL     1       3.365  -6.223  25.755  0.00  0.00    +0.080 A 
ATOM      5  N   UNL     1       3.981  -7.294  25.241  0.00  0.00    -0.235 NA
ATOM      6  C   UNL     1       4.979  -7.045  24.380  0.00  0.00    +0.223 A 
ATOM      7  N   UNL     1       5.465  -5.842  24.038  0.00  0.00    -0.220 NA
ATOM      8  C   UNL     1       2.314  -6.384  26.654  0.00  0.00    +0.078 A 
ATOM      9  C   UNL     1       4.862  -4.777  24.589  0.00  0.00    +0.132 A 
ATOM     10  N   UNL     1       5.341  -3.504  24.315  0.00  0.00    -0.312 N 
ATOM     11  C   UNL     1       5.806  -2.641  25.422  0.00  0.00    +0.125 C 
ATOM     12  C   UNL     1       5.578  -1.162  25.023  0.00  0.00    +0.128 C 
ATOM     13  N   UNL     1       6.156  -0.866  23.700  0.00  0.00    -0.282 N 
ATOM     14  C   UNL     1       7.011   0.148  23.345  0.00  0.00    +0.307 C 
ATOM     15  N   UNL     1       7.283   1.111  24.287  0.00  0.00    -0.269 N 
ATOM     16  H   UNL     1       6.775   1.088  25.151  0.00  0.00    +0.156 HD
ATOM     17  O   UNL     1       7.500   0.147  22.207  0.00  0.00    -0.252 OA
ATOM     18  C   UNL     1       5.791  -1.844  22.645  0.00  0.00    +0.128 C 
ATOM     19  C   UNL     1       6.088  -3.289  23.078  0.00  0.00    +0.125 C 
ATOM     20  C   UNL     1       1.649  -5.285  27.216  0.00  0.00    +0.164 A 
ENDROOT
BRANCH  15  21
ATOM     21  C   UNL     1       8.226   2.165  24.145  0.00  0.00    +0.035 A 
ATOM     22  C   UNL     1       9.590   1.853  24.184  0.00  0.00    +0.027 A 
ATOM     23  C   UNL     1      10.562   2.844  23.948  0.00  0.00    +0.047 A 
ATOM     24  C   UNL     1      10.176   4.150  23.655  0.00  0.00    +0.121 A 
ATOM     25  C   UNL     1       8.824   4.472  23.672  0.00  0.00    +0.047 A 
ATOM     26  C   UNL     1       7.864   3.494  23.931  0.00  0.00    +0.027 A 
BRANCH  24  27
ATOM     27  O   UNL     1      10.984   5.169  23.249  0.00  0.00    -0.489 OA
BRANCH  27  28
ATOM     28  C   UNL     1      12.309   5.255  23.772  0.00  0.00    +0.167 C 
ATOM     29  C   UNL     1      12.335   6.519  24.634  0.00  0.00    +0.051 C 
ATOM     30  C   UNL     1      13.325   5.409  22.643  0.00  0.00    +0.051 C 
ENDBRANCH  27  28
ENDBRANCH  24  27
ENDBRANCH  15  21
BRANCH   1  32
ATOM     31  C   UNL     1       1.680  -1.644  26.794  0.00  0.00    +0.277 C 
ATOM     32  O   UNL     1       1.390  -2.903  27.410  0.00  0.00    -0.491 OA
ENDBRANCH   1  32
BRANCH  20  33
ATOM     33  O   UNL     1       0.655  -5.392  28.140  0.00  0.00    -0.488 OA
BRANCH  33  34
ATOM     34  C   UNL     1       0.850  -6.230  29.288  0.00  0.00    +0.230 C 
BRANCH  34  35
ATOM     35  C   UNL     1       2.160  -5.736  29.875  0.00  0.00    +0.056 C 
BRANCH  35  36
ATOM     36  C   UNL     1       3.318  -6.733  29.949  0.00  0.00    +0.087 C 
BRANCH  36  37
ATOM     37  N   UNL     1       4.522  -6.061  30.482  0.00  0.00    -0.302 NA
ATOM     38  C   UNL     1       4.589  -4.617  30.217  0.00  0.00    +0.084 C 
ATOM     39  C   UNL     1       4.774  -4.304  28.736  0.00  0.00    +0.015 C 
ATOM     40  C   UNL     1       6.053  -4.946  28.209  0.00  0.00    +0.002 C 
ATOM     41  C   UNL     1       6.201  -6.410  28.627  0.00  0.00    +0.015 C 
ATOM     42  C   UNL     1       5.784  -6.689  30.076  0.00  0.00    +0.084 C 
ENDBRANCH  36  37
ENDBRANCH  35  36
ENDBRANCH  34  35
ENDBRANCH  33  34
ENDBRANCH  20  33
TORSDOF 9
ENDMDL
MODEL 7
REMARK VINA RESULT:      -4.9      3.700     11.510
REMARK  Name = 
REMARK  12 active torsions:
REMARK  status: ('A' for Active; 'I' for Inactive)
REMARK    1  A    between atoms: C_1  and  O_2
REMARK    2  A    between atoms: O_2  and  C_3
REMARK    3  A    between atoms: C_4  and  O_5
REMARK    4  A    between atoms: O_5  and  C_6
REMARK    5  A    between atoms: C_6  and  C_7
REMARK    6  A    between atoms: C_7  and  C_8
REMARK    7  A    between atoms: C_8  and  N_9
REMARK    8  A    between atoms: N_29  and  C_30
REMARK    9  A    between atoms: C_33  and  O_34
REMARK   10  A    between atoms: O_34  and  C_35
REMARK   11  A    between atoms: C_35  and  C_36
REMARK   12  A    between atoms: C_35  and  C_37
REMARK                            x       y       z     vdW  Elec       q    Type
REMARK                         _______ _______ _______ _____ _____    ______ ____
ROOT
ATOM      1  C   UNL     1       5.620   4.101  25.621  0.00  0.00    +0.162 A 
ATOM      2  C   UNL     1       5.288   3.226  26.636  0.00  0.00    +0.062 A 
ATOM      3  C   UNL     1       5.996   3.209  27.851  0.00  0.00    +0.044 A 
ATOM      4  C   UNL     1       6.891   4.230  28.145  0.00  0.00    +0.080 A 
ATOM      5  N   UNL     1       7.485   4.322  29.341  0.00  0.00    -0.235 NA
ATOM      6  C   UNL     1       7.174   3.366  30.230  0.00  0.00    +0.223 A 
ATOM      7  N   UNL     1       6.391   2.298  30.021  0.00  0.00    -0.220 NA
ATOM      8  C   UNL     1       7.149   5.180  27.161  0.00  0.00    +0.078 A 
ATOM      9  C   UNL     1       5.830   2.198  28.806  0.00  0.00    +0.132 A 
ATOM     10  N   UNL     1       5.043   1.095  28.505  0.00  0.00    -0.312 N 
ATOM     11  C   UNL     1       5.416   0.213  27.379  0.00  0.00    +0.125 C 
ATOM     12  C   UNL     1       4.124  -0.416  26.797  0.00  0.00    +0.128 C 
ATOM     13  N   UNL     1       3.308  -1.041  27.852  0.00  0.00    -0.282 N 
ATOM     14  C   UNL     1       2.787  -2.311  27.894  0.00  0.00    +0.307 C 
ATOM     15  N   UNL     1       2.908  -3.087  26.766  0.00  0.00    -0.269 N 
ATOM     16  H   UNL     1       3.280  -2.664  25.935  0.00  0.00    +0.156 HD
ATOM     17  O   UNL     1       2.243  -2.700  28.936  0.00  0.00    -0.252 OA
ATOM     18  C   UNL     1       3.084  -0.180  29.039  0.00  0.00    +0.128 C 
ATOM     19  C   UNL     1       4.404   0.373  29.603  0.00  0.00    +0.125 C 
ATOM     20  C   UNL     1       6.549   5.112  25.895  0.00  0.00    +0.164 A 
ENDROOT
BRANCH  15  21
ATOM     21  C   UNL     1       2.538  -4.455  26.657  0.00  0.00    +0.035 A 
ATOM     22  C   UNL     1       1.199  -4.767  26.393  0.00  0.00    +0.027 A 
ATOM     23  C   UNL     1       0.800  -6.099  26.177  0.00  0.00    +0.047 A 
ATOM     24  C   UNL     1       1.740  -7.127  26.207  0.00  0.00    +0.121 A 
ATOM     25  C   UNL     1       3.059  -6.824  26.523  0.00  0.00    +0.047 A 
ATOM     26  C   UNL     1       3.447  -5.505  26.763  0.00  0.00    +0.027 A 
BRANCH  24  27
ATOM     27  O   UNL     1       1.538  -8.429  25.860  0.00  0.00    -0.489 OA
BRANCH  27  28
ATOM     28  C   UNL     1       0.725  -8.728  24.726  0.00  0.00    +0.167 C 
ATOM     29  C   UNL     1       0.449 -10.232  24.797  0.00  0.00    +0.051 C 
ATOM     30  C   UNL     1       1.474  -8.426  23.431  0.00  0.00    +0.051 C 
ENDBRANCH  27  28
ENDBRANCH  24  27
ENDBRANCH  15  21
BRANCH   1  32
ATOM     31  C   UNL     1       4.332   2.791  24.130  0.00  0.00    +0.277 C 
ATOM     32  O   UNL     1       5.063   3.999  24.368  0.00  0.00    -0.491 OA
ENDBRANCH   1  32
BRANCH  20  33
ATOM     33  O   UNL     1       6.812   5.984  24.883  0.00  0.00    -0.488 OA
BRANCH  33  34
ATOM     34  C   UNL     1       8.175   6.246  24.519  0.00  0.00    +0.230 C 
BRANCH  34  35
ATOM     35  C   UNL     1       8.490   5.163  23.504  0.00  0.00    +0.056 C 
BRANCH  35  36
ATOM     36  C   UNL     1       9.456   4.056  23.933  0.00  0.00    +0.087 C 
BRANCH  36  37
ATOM     37  N   UNL     1       9.148   2.812  23.197  0.00  0.00    -0.302 NA
ATOM     38  C   UNL     1       7.991   2.063  23.710  0.00  0.00    +0.084 C 
ATOM     39  C   UNL     1       8.248   1.470  25.092  0.00  0.00    +0.015 C 
ATOM     40  C   UNL     1       9.447   0.530  25.057  0.00  0.00    +0.002 C 
ATOM     41  C   UNL     1      10.653   1.129  24.330  0.00  0.00    +0.015 C 
ATOM     42  C   UNL     1      10.291   1.903  23.058  0.00  0.00    +0.084 C 
ENDBRANCH  36  37
ENDBRANCH  35  36
ENDBRANCH  34  35
ENDBRANCH  33  34
ENDBRANCH  20  33
TORSDOF 9
ENDMDL
MODEL 8
REMARK VINA RESULT:      -4.8      3.730     11.082
REMARK  Name = 
REMARK  12 active torsions:
REMARK  status: ('A' for Active; 'I' for Inactive)
REMARK    1  A    between atoms: C_1  and  O_2
REMARK    2  A    between atoms: O_2  and  C_3
REMARK    3  A    between atoms: C_4  and  O_5
REMARK    4  A    between atoms: O_5  and  C_6
REMARK    5  A    between atoms: C_6  and  C_7
REMARK    6  A    between atoms: C_7  and  C_8
REMARK    7  A    between atoms: C_8  and  N_9
REMARK    8  A    between atoms: N_29  and  C_30
REMARK    9  A    between atoms: C_33  and  O_34
REMARK   10  A    between atoms: O_34  and  C_35
REMARK   11  A    between atoms: C_35  and  C_36
REMARK   12  A    between atoms: C_35  and  C_37
REMARK                            x       y       z     vdW  Elec       q    Type
REMARK                         _______ _______ _______ _____ _____    ______ ____
ROOT
ATOM      1  C   UNL     1       6.794   4.281  27.296  0.00  0.00    +0.162 A 
ATOM      2  C   UNL     1       7.380   3.207  26.654  0.00  0.00    +0.062 A 
ATOM      3  C   UNL     1       8.207   3.386  25.530  0.00  0.00    +0.044 A 
ATOM      4  C   UNL     1       8.639   4.660  25.185  0.00  0.00    +0.080 A 
ATOM      5  N   UNL     1       9.528   4.860  24.205  0.00  0.00    -0.235 NA
ATOM      6  C   UNL     1       9.965   3.761  23.572  0.00  0.00    +0.223 A 
ATOM      7  N   UNL     1       9.553   2.500  23.771  0.00  0.00    -0.220 NA
ATOM      8  C   UNL     1       8.133   5.742  25.901  0.00  0.00    +0.078 A 
ATOM      9  C   UNL     1       8.634   2.318  24.732  0.00  0.00    +0.132 A 
ATOM     10  N   UNL     1       8.129   1.046  24.962  0.00  0.00    -0.312 N 
ATOM     11  C   UNL     1       6.678   0.797  24.826  0.00  0.00    +0.125 C 
ATOM     12  C   UNL     1       6.284  -0.354  25.785  0.00  0.00    +0.128 C 
ATOM     13  N   UNL     1       7.152  -1.531  25.600  0.00  0.00    -0.282 N 
ATOM     14  C   UNL     1       6.790  -2.838  25.390  0.00  0.00    +0.307 C 
ATOM     15  N   UNL     1       5.456  -3.155  25.491  0.00  0.00    -0.269 N 
ATOM     16  H   UNL     1       4.822  -2.445  25.808  0.00  0.00    +0.156 HD
ATOM     17  O   UNL     1       7.670  -3.665  25.115  0.00  0.00    -0.252 OA
ATOM     18  C   UNL     1       8.602  -1.220  25.587  0.00  0.00    +0.128 C 
ATOM     19  C   UNL     1       8.940  -0.107  24.580  0.00  0.00    +0.125 C 
ATOM     20  C   UNL     1       7.196   5.571  26.931  0.00  0.00    +0.164 A 
ENDROOT
BRANCH  15  21
ATOM     21  C   UNL     1       4.881  -4.420  25.196  0.00  0.00    +0.035 A 
ATOM     22  C   UNL     1       4.531  -5.261  26.260  0.00  0.00    +0.027 A 
ATOM     23  C   UNL     1       3.867  -6.479  26.025  0.00  0.00    +0.047 A 
ATOM     24  C   UNL     1       3.532  -6.859  24.727  0.00  0.00    +0.121 A 
ATOM     25  C   UNL     1       3.928  -6.051  23.668  0.00  0.00    +0.047 A 
ATOM     26  C   UNL     1       4.610  -4.856  23.901  0.00  0.00    +0.027 A 
BRANCH  24  27
ATOM     27  O   UNL     1       2.756  -7.916  24.359  0.00  0.00    -0.489 OA
BRANCH  27  28
ATOM     28  C   UNL     1       1.727  -8.362  25.242  0.00  0.00    +0.167 C 
ATOM     29  C   UNL     1       1.434  -9.809  24.840  0.00  0.00    +0.051 C 
ATOM     30  C   UNL     1       0.459  -7.534  25.054  0.00  0.00    +0.051 C 
ENDBRANCH  27  28
ENDBRANCH  24  27
ENDBRANCH  15  21
BRANCH   1  32
ATOM     31  C   UNL     1       6.306   3.458  29.461  0.00  0.00    +0.277 C 
ATOM     32  O   UNL     1       5.841   4.106  28.272  0.00  0.00    -0.491 OA
ENDBRANCH   1  32
BRANCH  20  33
ATOM     33  O   UNL     1       6.632   6.600  27.620  0.00  0.00    -0.488 OA
BRANCH  33  34
ATOM     34  C   UNL     1       5.205   6.751  27.614  0.00  0.00    +0.230 C 
BRANCH  34  35
ATOM     35  C   UNL     1       4.888   7.105  26.173  0.00  0.00    +0.056 C 
BRANCH  35  36
ATOM     36  C   UNL     1       3.516   6.693  25.633  0.00  0.00    +0.087 C 
BRANCH  36  37
ATOM     37  N   UNL     1       3.648   6.231  24.235  0.00  0.00    -0.302 NA
ATOM     38  C   UNL     1       2.395   5.774  23.616  0.00  0.00    +0.084 C 
ATOM     39  C   UNL     1       1.869   4.489  24.247  0.00  0.00    +0.015 C 
ATOM     40  C   UNL     1       2.898   3.371  24.123  0.00  0.00    +0.002 C 
ATOM     41  C   UNL     1       4.307   3.810  24.529  0.00  0.00    +0.015 C 
ATOM     42  C   UNL     1       4.686   5.213  24.040  0.00  0.00    +0.084 C 
ENDBRANCH  36  37
ENDBRANCH  35  36
ENDBRANCH  34  35
ENDBRANCH  33  34
ENDBRANCH  20  33
TORSDOF 9
ENDMDL
