MODEL 1
REMARK VINA RESULT:      -7.5      0.000      0.000
REMARK  Name = 
REMARK  8 active torsions:
REMARK  status: ('A' for Active; 'I' for Inactive)
REMARK    1  A    between atoms: C_1  and  O_2
REMARK    2  A    between atoms: O_2  and  C_3
REMARK    3  A    between atoms: C_5  and  C_6
REMARK    4  A    between atoms: C_6  and  N_7
REMARK    5  A    between atoms: N_7  and  C_8
REMARK    6  A    between atoms: N_7  and  C_9
REMARK    7  A    between atoms: C_21  and  O_22
REMARK    8  A    between atoms: O_22  and  C_23
REMARK                            x       y       z     vdW  Elec       q    Type
REMARK                         _______ _______ _______ _____ _____    ______ ____
ROOT
ATOM      1  C   UNL     1       8.815  -2.661  25.305  0.00  0.00    +0.049 A 
ATOM      2  C   UNL     1       8.750  -1.623  26.228  0.00  0.00    +0.136 A 
ATOM      3  N   UNL     1       9.014  -0.314  25.966  0.00  0.00    -0.234 NA
ATOM      4  C   UNL     1       9.354   0.052  24.724  0.00  0.00    +0.167 A 
ATOM      5  N   UNL     1       9.596   1.335  24.484  0.00  0.00    -0.195 NA
ATOM      6  C   UNL     1       9.918   1.686  23.243  0.00  0.00    +0.216 A 
ATOM      7  N   UNL     1      10.058   0.851  22.216  0.00  0.00    -0.199 NA
ATOM      8  C   UNL     1       9.805  -0.433  22.459  0.00  0.00    +0.131 A 
ATOM      9  N   UNL     1       9.984  -1.296  21.370  0.00  0.00    -0.342 N 
ATOM     10  H   UNL     1       9.167  -1.875  21.209  0.00  0.00    +0.144 HD
ATOM     11  H   UNL     1      10.200  -0.718  20.561  0.00  0.00    +0.144 HD
ATOM     12  N   UNL     1      10.166   3.019  22.992  0.00  0.00    -0.327 N 
ATOM     13  H   UNL     1      10.765   3.112  22.185  0.00  0.00    +0.145 HD
ATOM     14  H   UNL     1      10.461   3.482  23.847  0.00  0.00    +0.145 HD
ATOM     15  C   UNL     1       9.439  -0.901  23.721  0.00  0.00    +0.061 A 
ATOM     16  C   UNL     1       9.166  -2.252  24.022  0.00  0.00    +0.039 A 
ENDROOT
BRANCH   1  17
ATOM     17  N   UNL     1       8.570  -3.997  25.580  0.00  0.00    -0.327 N 
ATOM     18  C   UNL     1       9.674  -4.934  25.373  0.00  0.00    +0.129 C 
BRANCH  17  19
ATOM     19  C   UNL     1       7.400  -4.474  26.337  0.00  0.00    +0.143 C 
BRANCH  19  24
ATOM     20  C   UNL     1       5.175  -5.573  23.380  0.00  0.00    +0.121 A 
ATOM     21  C   UNL     1       4.442  -6.597  23.971  0.00  0.00    +0.049 A 
ATOM     22  C   UNL     1       4.631  -6.901  25.321  0.00  0.00    +0.049 A 
ATOM     23  C   UNL     1       5.564  -6.198  26.089  0.00  0.00    +0.125 A 
ATOM     24  C   UNL     1       6.320  -5.156  25.506  0.00  0.00    +0.015 A 
ATOM     25  C   UNL     1       6.086  -4.845  24.154  0.00  0.00    +0.054 A 
BRANCH  20  27
ATOM     26  C   UNL     1       6.091  -5.749  21.196  0.00  0.00    +0.277 C 
ATOM     27  O   UNL     1       5.102  -5.204  22.064  0.00  0.00    -0.495 OA
ENDBRANCH  20  27
BRANCH  23  28
ATOM     28  O   UNL     1       5.823  -6.464  27.413  0.00  0.00    -0.495 OA
ATOM     29  C   UNL     1       4.711  -6.817  28.232  0.00  0.00    +0.277 C 
ENDBRANCH  23  28
ENDBRANCH  19  24
ENDBRANCH  17  19
ENDBRANCH   1  17
TORSDOF 5
ENDMDL
MODEL 2
REMARK VINA RESULT:      -7.4      4.380      8.846
REMARK  Name = 
REMARK  8 active torsions:
REMARK  status: ('A' for Active; 'I' for Inactive)
REMARK    1  A    between atoms: C_1  and  O_2
REMARK    2  A    between atoms: O_2  and  C_3
REMARK    3  A    between atoms: C_5  and  C_6
REMARK    4  A    between atoms: C_6  and  N_7
REMARK    5  A    between atoms: N_7  and  C_8
REMARK    6  A    between atoms: N_7  and  C_9
REMARK    7  A    between atoms: C_21  and  O_22
REMARK    8  A    between atoms: O_22  and  C_23
REMARK                            x       y       z     vdW  Elec       q    Type
REMARK                         _______ _______ _______ _____ _____    ______ ____
ROOT
ATOM      1  C   UNL     1       9.073   0.031  23.179  0.00  0.00    +0.049 A 
ATOM      2  C   UNL     1       9.979  -0.775  22.499  0.00  0.00    +0.136 A 
ATOM      3  N   UNL     1      10.323  -2.045  22.846  0.00  0.00    -0.234 NA
ATOM      4  C   UNL     1       9.754  -2.611  23.917  0.00  0.00    +0.167 A 
ATOM      5  N   UNL     1      10.094  -3.854  24.233  0.00  0.00    -0.195 NA
ATOM      6  C   UNL     1       9.510  -4.409  25.291  0.00  0.00    +0.216 A 
ATOM      7  N   UNL     1       8.634  -3.808  26.094  0.00  0.00    -0.199 NA
ATOM      8  C   UNL     1       8.290  -2.564  25.767  0.00  0.00    +0.131 A 
ATOM      9  N   UNL     1       7.387  -1.943  26.640  0.00  0.00    -0.342 N 
ATOM     10  H   UNL     1       6.587  -1.561  26.147  0.00  0.00    +0.144 HD
ATOM     11  H   UNL     1       7.107  -2.639  27.327  0.00  0.00    +0.144 HD
ATOM     12  N   UNL     1       9.859  -5.703  25.619  0.00  0.00    -0.327 N 
ATOM     13  H   UNL     1       9.692  -5.867  26.600  0.00  0.00    +0.145 HD
ATOM     14  H   UNL     1      10.787  -5.909  25.263  0.00  0.00    +0.145 HD
ATOM     15  C   UNL     1       8.829  -1.900  24.664  0.00  0.00    +0.061 A 
ATOM     16  C   UNL     1       8.494  -0.583  24.285  0.00  0.00    +0.039 A 
ENDROOT
BRANCH   1  17
ATOM     17  N   UNL     1       8.743   1.333  22.839  0.00  0.00    -0.327 N 
ATOM     18  C   UNL     1       8.474   1.607  21.427  0.00  0.00    +0.129 C 
BRANCH  17  19
ATOM     19  C   UNL     1       8.356   2.360  23.821  0.00  0.00    +0.143 C 
BRANCH  19  24
ATOM     20  C   UNL     1      11.334   4.798  23.515  0.00  0.00    +0.121 A 
ATOM     21  C   UNL     1      10.677   6.022  23.577  0.00  0.00    +0.049 A 
ATOM     22  C   UNL     1       9.293   6.063  23.759  0.00  0.00    +0.049 A 
ATOM     23  C   UNL     1       8.550   4.883  23.867  0.00  0.00    +0.125 A 
ATOM     24  C   UNL     1       9.199   3.630  23.804  0.00  0.00    +0.015 A 
ATOM     25  C   UNL     1      10.598   3.615  23.655  0.00  0.00    +0.054 A 
BRANCH  20  27
ATOM     26  C   UNL     1      13.273   5.445  22.306  0.00  0.00    +0.277 C 
ATOM     27  O   UNL     1      12.677   4.628  23.308  0.00  0.00    -0.495 OA
ENDBRANCH  20  27
BRANCH  23  28
ATOM     28  O   UNL     1       7.184   4.849  24.016  0.00  0.00    -0.495 OA
ATOM     29  C   UNL     1       6.402   5.362  22.941  0.00  0.00    +0.277 C 
ENDBRANCH  23  28
ENDBRANCH  19  24
ENDBRANCH  17  19
ENDBRANCH   1  17
TORSDOF 5
ENDMDL
MODEL 3
REMARK VINA RESULT:      -7.3      0.714      1.827
REMARK  Name = 
REMARK  8 active torsions:
REMARK  status: ('A' for Active; 'I' for Inactive)
REMARK    1  A    between atoms: C_1  and  O_2
REMARK    2  A    between atoms: O_2  and  C_3
REMARK    3  A    between atoms: C_5  and  C_6
REMARK    4  A    between atoms: C_6  and  N_7
REMARK    5  A    between atoms: N_7  and  C_8
REMARK    6  A    between atoms: N_7  and  C_9
REMARK    7  A    between atoms: C_21  and  O_22
REMARK    8  A    between atoms: O_22  and  C_23
REMARK                            x       y       z     vdW  Elec       q    Type
REMARK                         _______ _______ _______ _____ _____    ______ ____
ROOT
ATOM      1  C   UNL     1       9.124  -2.798  24.777  0.00  0.00    +0.049 A 
ATOM      2  C   UNL     1       9.910  -2.697  23.634  0.00  0.00    +0.136 A 
ATOM      3  N   UNL     1      10.289  -1.535  23.035  0.00  0.00    -0.234 NA
ATOM      4  C   UNL     1       9.908  -0.367  23.566  0.00  0.00    +0.167 A 
ATOM      5  N   UNL     1      10.297   0.756  22.974  0.00  0.00    -0.195 NA
ATOM      6  C   UNL     1       9.924   1.909  23.520  0.00  0.00    +0.216 A 
ATOM      7  N   UNL     1       9.153   2.040  24.597  0.00  0.00    -0.199 NA
ATOM      8  C   UNL     1       8.773   0.910  25.192  0.00  0.00    +0.131 A 
ATOM      9  N   UNL     1       7.941   1.072  26.308  0.00  0.00    -0.342 N 
ATOM     10  H   UNL     1       8.294   0.573  27.117  0.00  0.00    +0.144 HD
ATOM     11  H   UNL     1       7.868   2.072  26.487  0.00  0.00    +0.144 HD
ATOM     12  N   UNL     1      10.331   3.076  22.908  0.00  0.00    -0.327 N 
ATOM     13  H   UNL     1       9.695   3.825  23.138  0.00  0.00    +0.145 HD
ATOM     14  H   UNL     1      10.513   2.904  21.924  0.00  0.00    +0.145 HD
ATOM     15  C   UNL     1       9.129  -0.349  24.711  0.00  0.00    +0.061 A 
ATOM     16  C   UNL     1       8.745  -1.568  25.309  0.00  0.00    +0.039 A 
ENDROOT
BRANCH   1  17
ATOM     17  N   UNL     1       8.717  -3.981  25.371  0.00  0.00    -0.327 N 
ATOM     18  C   UNL     1       9.728  -5.024  25.540  0.00  0.00    +0.129 C 
BRANCH  17  19
ATOM     19  C   UNL     1       7.447  -4.135  26.100  0.00  0.00    +0.143 C 
BRANCH  19  24
ATOM     20  C   UNL     1       5.174  -5.648  23.370  0.00  0.00    +0.121 A 
ATOM     21  C   UNL     1       4.550  -6.665  24.084  0.00  0.00    +0.049 A 
ATOM     22  C   UNL     1       4.825  -6.834  25.443  0.00  0.00    +0.049 A 
ATOM     23  C   UNL     1       5.736  -6.000  26.098  0.00  0.00    +0.125 A 
ATOM     24  C   UNL     1       6.383  -4.963  25.389  0.00  0.00    +0.015 A 
ATOM     25  C   UNL     1       6.063  -4.791  24.030  0.00  0.00    +0.054 A 
BRANCH  20  27
ATOM     26  C   UNL     1       6.116  -5.722  21.191  0.00  0.00    +0.277 C 
ATOM     27  O   UNL     1       5.013  -5.404  22.033  0.00  0.00    -0.495 OA
ENDBRANCH  20  27
BRANCH  23  28
ATOM     28  O   UNL     1       6.076  -6.128  27.424  0.00  0.00    -0.495 OA
ATOM     29  C   UNL     1       5.147  -6.802  28.268  0.00  0.00    +0.277 C 
ENDBRANCH  23  28
ENDBRANCH  19  24
ENDBRANCH  17  19
ENDBRANCH   1  17
TORSDOF 5
ENDMDL
MODEL 4
REMARK VINA RESULT:      -7.2      4.167      8.785
REMARK  Name = 
REMARK  8 active torsions:
REMARK  status: ('A' for Active; 'I' for Inactive)
REMARK    1  A    between atoms: C_1  and  O_2
REMARK    2  A    between atoms: O_2  and  C_3
REMARK    3  A    between atoms: C_5  and  C_6
REMARK    4  A    between atoms: C_6  and  N_7
REMARK    5  A    between atoms: N_7  and  C_8
REMARK    6  A    between atoms: N_7  and  C_9
REMARK    7  A    between atoms: C_21  and  O_22
REMARK    8  A    between atoms: O_22  and  C_23
REMARK                            x       y       z     vdW  Elec       q    Type
REMARK                         _______ _______ _______ _____ _____    ______ ____
ROOT
ATOM      1  C   UNL     1       9.999  -0.209  23.349  0.00  0.00    +0.049 A 
ATOM      2  C   UNL     1      10.477  -1.334  22.686  0.00  0.00    +0.136 A 
ATOM      3  N   UNL     1      10.302  -2.623  23.087  0.00  0.00    -0.234 NA
ATOM      4  C   UNL     1       9.604  -2.876  24.200  0.00  0.00    +0.167 A 
ATOM      5  N   UNL     1       9.435  -4.140  24.569  0.00  0.00    -0.195 NA
ATOM      6  C   UNL     1       8.728  -4.377  25.670  0.00  0.00    +0.216 A 
ATOM      7  N   UNL     1       8.201  -3.449  26.465  0.00  0.00    -0.199 NA
ATOM      8  C   UNL     1       8.367  -2.183  26.086  0.00  0.00    +0.131 A 
ATOM      9  N   UNL     1       7.827  -1.223  26.952  0.00  0.00    -0.342 N 
ATOM     10  H   UNL     1       7.223  -0.571  26.462  0.00  0.00    +0.144 HD
ATOM     11  H   UNL     1       7.324  -1.724  27.681  0.00  0.00    +0.144 HD
ATOM     12  N   UNL     1       8.547  -5.690  26.052  0.00  0.00    -0.327 N 
ATOM     13  H   UNL     1       8.374  -5.739  27.045  0.00  0.00    +0.145 HD
ATOM     14  H   UNL     1       9.299  -6.263  25.681  0.00  0.00    +0.145 HD
ATOM     15  C   UNL     1       9.074  -1.829  24.937  0.00  0.00    +0.061 A 
ATOM     16  C   UNL     1       9.274  -0.502  24.502  0.00  0.00    +0.039 A 
ENDROOT
BRANCH   1  17
ATOM     17  N   UNL     1      10.199   1.103  22.954  0.00  0.00    -0.327 N 
ATOM     18  C   UNL     1       9.512   1.547  21.742  0.00  0.00    +0.129 C 
BRANCH  17  19
ATOM     19  C   UNL     1      10.795   2.135  23.820  0.00  0.00    +0.143 C 
BRANCH  19  24
ATOM     20  C   UNL     1       8.172   4.956  24.081  0.00  0.00    +0.121 A 
ATOM     21  C   UNL     1       8.968   6.075  23.858  0.00  0.00    +0.049 A 
ATOM     22  C   UNL     1      10.328   5.919  23.582  0.00  0.00    +0.049 A 
ATOM     23  C   UNL     1      10.910   4.648  23.541  0.00  0.00    +0.125 A 
ATOM     24  C   UNL     1      10.118   3.500  23.768  0.00  0.00    +0.015 A 
ATOM     25  C   UNL     1       8.744   3.680  24.009  0.00  0.00    +0.054 A 
BRANCH  20  27
ATOM     26  C   UNL     1       6.094   3.806  24.087  0.00  0.00    +0.277 C 
ATOM     27  O   UNL     1       6.839   4.981  24.391  0.00  0.00    -0.495 OA
ENDBRANCH  20  27
BRANCH  23  28
ATOM     28  O   UNL     1      12.246   4.424  23.307  0.00  0.00    -0.495 OA
ATOM     29  C   UNL     1      12.952   5.423  22.577  0.00  0.00    +0.277 C 
ENDBRANCH  23  28
ENDBRANCH  19  24
ENDBRANCH  17  19
ENDBRANCH   1  17
TORSDOF 5
ENDMDL
MODEL 5
REMARK VINA RESULT:      -7.0      3.290      7.670
REMARK  Name = 
REMARK  8 active torsions:
REMARK  status: ('A' for Active; 'I' for Inactive)
REMARK    1  A    between atoms: C_1  and  O_2
REMARK    2  A    between atoms: O_2  and  C_3
REMARK    3  A    between atoms: C_5  and  C_6
REMARK    4  A    between atoms: C_6  and  N_7
REMARK    5  A    between atoms: N_7  and  C_8
REMARK    6  A    between atoms: N_7  and  C_9
REMARK    7  A    between atoms: C_21  and  O_22
REMARK    8  A    between atoms: O_22  and  C_23
REMARK                            x       y       z     vdW  Elec       q    Type
REMARK                         _______ _______ _______ _____ _____    ______ ____
ROOT
ATOM      1  C   UNL     1       7.062  -1.650  25.792  0.00  0.00    +0.049 A 
ATOM      2  C   UNL     1       5.911  -1.582  25.014  0.00  0.00    +0.136 A 
ATOM      3  N   UNL     1       5.112  -2.635  24.690  0.00  0.00    -0.234 NA
ATOM      4  C   UNL     1       5.413  -3.855  25.150  0.00  0.00    +0.167 A 
ATOM      5  N   UNL     1       4.615  -4.867  24.833  0.00  0.00    -0.195 NA
ATOM      6  C   UNL     1       4.919  -6.071  25.308  0.00  0.00    +0.216 A 
ATOM      7  N   UNL     1       5.985  -6.362  26.050  0.00  0.00    -0.199 NA
ATOM      8  C   UNL     1       6.777  -5.341  26.373  0.00  0.00    +0.131 A 
ATOM      9  N   UNL     1       7.906  -5.676  27.133  0.00  0.00    -0.342 N 
ATOM     10  H   UNL     1       7.981  -5.106  27.968  0.00  0.00    +0.144 HD
ATOM     11  H   UNL     1       7.834  -6.666  27.359  0.00  0.00    +0.144 HD
ATOM     12  N   UNL     1       4.088  -7.123  24.983  0.00  0.00    -0.327 N 
ATOM     13  H   UNL     1       4.597  -7.993  25.037  0.00  0.00    +0.145 HD
ATOM     14  H   UNL     1       3.600  -6.921  24.116  0.00  0.00    +0.145 HD
ATOM     15  C   UNL     1       6.535  -4.037  25.943  0.00  0.00    +0.061 A 
ATOM     16  C   UNL     1       7.349  -2.930  26.259  0.00  0.00    +0.039 A 
ENDROOT
BRANCH   1  17
ATOM     17  N   UNL     1       7.889  -0.582  26.099  0.00  0.00    -0.327 N 
ATOM     18  C   UNL     1       7.442   0.325  27.156  0.00  0.00    +0.129 C 
BRANCH  17  19
ATOM     19  C   UNL     1       9.290  -0.480  25.658  0.00  0.00    +0.143 C 
BRANCH  19  24
ATOM     20  C   UNL     1      10.094   2.475  23.307  0.00  0.00    +0.121 A 
ATOM     21  C   UNL     1      10.141   1.826  22.078  0.00  0.00    +0.049 A 
ATOM     22  C   UNL     1       9.872   0.458  22.001  0.00  0.00    +0.049 A 
ATOM     23  C   UNL     1       9.570  -0.279  23.150  0.00  0.00    +0.125 A 
ATOM     24  C   UNL     1       9.521   0.362  24.409  0.00  0.00    +0.015 A 
ATOM     25  C   UNL     1       9.760   1.748  24.456  0.00  0.00    +0.054 A 
BRANCH  20  27
ATOM     26  C   UNL     1      11.721   4.206  23.326  0.00  0.00    +0.277 C 
ATOM     27  O   UNL     1      10.369   3.800  23.515  0.00  0.00    -0.495 OA
ENDBRANCH  20  27
BRANCH  23  28
ATOM     28  O   UNL     1       9.326  -1.631  23.152  0.00  0.00    -0.495 OA
ATOM     29  C   UNL     1       8.320  -2.109  22.263  0.00  0.00    +0.277 C 
ENDBRANCH  23  28
ENDBRANCH  19  24
ENDBRANCH  17  19
ENDBRANCH   1  17
TORSDOF 5
ENDMDL
MODEL 6
REMARK VINA RESULT:      -6.9      2.015      3.148
REMARK  Name = 
REMARK  8 active torsions:
REMARK  status: ('A' for Active; 'I' for Inactive)
REMARK    1  A    between atoms: C_1  and  O_2
REMARK    2  A    between atoms: O_2  and  C_3
REMARK    3  A    between atoms: C_5  and  C_6
REMARK    4  A    between atoms: C_6  and  N_7
REMARK    5  A    between atoms: N_7  and  C_8
REMARK    6  A    between atoms: N_7  and  C_9
REMARK    7  A    between atoms: C_21  and  O_22
REMARK    8  A    between atoms: O_22  and  C_23
REMARK                            x       y       z     vdW  Elec       q    Type
REMARK                         _______ _______ _______ _____ _____    ______ ____
ROOT
ATOM      1  C   UNL     1       7.641  -2.293  22.792  0.00  0.00    +0.049 A 
ATOM      2  C   UNL     1       9.030  -2.327  22.839  0.00  0.00    +0.136 A 
ATOM      3  N   UNL     1       9.848  -1.239  22.857  0.00  0.00    -0.234 NA
ATOM      4  C   UNL     1       9.311  -0.013  22.844  0.00  0.00    +0.167 A 
ATOM      5  N   UNL     1      10.124   1.035  22.874  0.00  0.00    -0.195 NA
ATOM      6  C   UNL     1       9.577   2.247  22.876  0.00  0.00    +0.216 A 
ATOM      7  N   UNL     1       8.273   2.506  22.811  0.00  0.00    -0.199 NA
ATOM      8  C   UNL     1       7.461   1.450  22.791  0.00  0.00    +0.131 A 
ATOM      9  N   UNL     1       6.095   1.747  22.697  0.00  0.00    -0.342 N 
ATOM     10  H   UNL     1       5.558   1.283  23.421  0.00  0.00    +0.144 HD
ATOM     11  H   UNL     1       6.003   2.759  22.751  0.00  0.00    +0.144 HD
ATOM     12  N   UNL     1      10.421   3.338  22.911  0.00  0.00    -0.327 N 
ATOM     13  H   UNL     1       9.960   4.143  22.513  0.00  0.00    +0.145 HD
ATOM     14  H   UNL     1      11.327   3.085  22.529  0.00  0.00    +0.145 HD
ATOM     15  C   UNL     1       7.934   0.138  22.807  0.00  0.00    +0.061 A 
ATOM     16  C   UNL     1       7.110  -1.006  22.784  0.00  0.00    +0.039 A 
ENDROOT
BRANCH   1  17
ATOM     17  N   UNL     1       6.811  -3.401  22.748  0.00  0.00    -0.327 N 
ATOM     18  C   UNL     1       5.591  -3.290  21.949  0.00  0.00    +0.129 C 
BRANCH  17  19
ATOM     19  C   UNL     1       7.220  -4.746  23.190  0.00  0.00    +0.143 C 
BRANCH  19  24
ATOM     20  C   UNL     1       4.531  -6.924  24.904  0.00  0.00    +0.121 A 
ATOM     21  C   UNL     1       4.830  -6.701  26.243  0.00  0.00    +0.049 A 
ATOM     22  C   UNL     1       5.859  -5.823  26.593  0.00  0.00    +0.049 A 
ATOM     23  C   UNL     1       6.609  -5.172  25.609  0.00  0.00    +0.125 A 
ATOM     24  C   UNL     1       6.323  -5.387  24.242  0.00  0.00    +0.015 A 
ATOM     25  C   UNL     1       5.259  -6.248  23.916  0.00  0.00    +0.054 A 
BRANCH  20  27
ATOM     26  C   UNL     1       2.372  -7.869  25.199  0.00  0.00    +0.277 C 
ATOM     27  O   UNL     1       3.572  -7.781  24.437  0.00  0.00    -0.495 OA
ENDBRANCH  20  27
BRANCH  23  28
ATOM     28  O   UNL     1       7.654  -4.321  25.880  0.00  0.00    -0.495 OA
ATOM     29  C   UNL     1       7.338  -3.098  26.540  0.00  0.00    +0.277 C 
ENDBRANCH  23  28
ENDBRANCH  19  24
ENDBRANCH  17  19
ENDBRANCH   1  17
TORSDOF 5
ENDMDL
MODEL 7
REMARK VINA RESULT:      -6.8      1.277      3.526
REMARK  Name = 
REMARK  8 active torsions:
REMARK  status: ('A' for Active; 'I' for Inactive)
REMARK    1  A    between atoms: C_1  and  O_2
REMARK    2  A    between atoms: O_2  and  C_3
REMARK    3  A    between atoms: C_5  and  C_6
REMARK    4  A    between atoms: C_6  and  N_7
REMARK    5  A    between atoms: N_7  and  C_8
REMARK    6  A    between atoms: N_7  and  C_9
REMARK    7  A    between atoms: C_21  and  O_22
REMARK    8  A    between atoms: O_22  and  C_23
REMARK                            x       y       z     vdW  Elec       q    Type
REMARK                         _______ _______ _______ _____ _____    ______ ____
ROOT
ATOM      1  C   UNL     1       8.896  -2.706  25.037  0.00  0.00    +0.049 A 
ATOM      2  C   UNL     1       9.536  -2.948  23.826  0.00  0.00    +0.136 A 
ATOM      3  N   UNL     1       9.949  -1.995  22.946  0.00  0.00    -0.234 NA
ATOM      4  C   UNL     1       9.755  -0.703  23.236  0.00  0.00    +0.167 A 
ATOM      5  N   UNL     1      10.175   0.211  22.371  0.00  0.00    -0.195 NA
ATOM      6  C   UNL     1       9.989   1.491  22.679  0.00  0.00    +0.216 A 
ATOM      7  N   UNL     1       9.378   1.942  23.772  0.00  0.00    -0.199 NA
ATOM      8  C   UNL     1       8.968   1.020  24.642  0.00  0.00    +0.131 A 
ATOM      9  N   UNL     1       8.305   1.516  25.773  0.00  0.00    -0.342 N 
ATOM     10  H   UNL     1       8.708   1.160  26.632  0.00  0.00    +0.144 HD
ATOM     11  H   UNL     1       8.355   2.532  25.728  0.00  0.00    +0.144 HD
ATOM     12  N   UNL     1      10.428   2.443  21.782  0.00  0.00    -0.327 N 
ATOM     13  H   UNL     1       9.903   3.297  21.901  0.00  0.00    +0.145 HD
ATOM     14  H   UNL     1      10.464   2.045  20.848  0.00  0.00    +0.145 HD
ATOM     15  C   UNL     1       9.134  -0.347  24.423  0.00  0.00    +0.061 A 
ATOM     16  C   UNL     1       8.711  -1.355  25.315  0.00  0.00    +0.039 A 
ENDROOT
BRANCH   1  17
ATOM     17  N   UNL     1       8.454  -3.677  25.921  0.00  0.00    -0.327 N 
ATOM     18  C   UNL     1       9.403  -4.729  26.285  0.00  0.00    +0.129 C 
BRANCH  17  19
ATOM     19  C   UNL     1       7.230  -3.549  26.730  0.00  0.00    +0.143 C 
BRANCH  19  24
ATOM     20  C   UNL     1       5.204  -6.593  27.971  0.00  0.00    +0.121 A 
ATOM     21  C   UNL     1       4.522  -6.942  26.811  0.00  0.00    +0.049 A 
ATOM     22  C   UNL     1       4.744  -6.232  25.629  0.00  0.00    +0.049 A 
ATOM     23  C   UNL     1       5.639  -5.158  25.596  0.00  0.00    +0.125 A 
ATOM     24  C   UNL     1       6.340  -4.785  26.766  0.00  0.00    +0.015 A 
ATOM     25  C   UNL     1       6.125  -5.538  27.934  0.00  0.00    +0.054 A 
BRANCH  20  27
ATOM     26  C   UNL     1       4.723  -6.330  30.281  0.00  0.00    +0.277 C 
ATOM     27  O   UNL     1       5.048  -7.188  29.193  0.00  0.00    -0.495 OA
ENDBRANCH  20  27
BRANCH  23  28
ATOM     28  O   UNL     1       5.883  -4.398  24.478  0.00  0.00    -0.495 OA
ATOM     29  C   UNL     1       6.310  -5.088  23.306  0.00  0.00    +0.277 C 
ENDBRANCH  23  28
ENDBRANCH  19  24
ENDBRANCH  17  19
ENDBRANCH   1  17
TORSDOF 5
ENDMDL
MODEL 8
REMARK VINA RESULT:      -6.7      3.406      7.361
REMARK  Name = 
REMARK  8 active torsions:
REMARK  status: ('A' for Active; 'I' for Inactive)
REMARK    1  A    between atoms: C_1  and  O_2
REMARK    2  A    between atoms: O_2  and  C_3
REMARK    3  A    between atoms: C_5  and  C_6
REMARK    4  A    between atoms: C_6  and  N_7
REMARK    5  A    between atoms: N_7  and  C_8
REMARK    6  A    between atoms: N_7  and  C_9
REMARK    7  A    between atoms: C_21  and  O_22
REMARK    8  A    between atoms: O_22  and  C_23
REMARK                            x       y       z     vdW  Elec       q    Type
REMARK                         _______ _______ _______ _____ _____    ______ ____
ROOT
ATOM      1  C   UNL     1       8.199  -3.366  24.866  0.00  0.00    +0.049 A 
ATOM      2  C   UNL     1       8.785  -3.487  26.121  0.00  0.00    +0.136 A 
ATOM      3  N   UNL     1       8.359  -4.312  27.117  0.00  0.00    -0.234 NA
ATOM      4  C   UNL     1       7.299  -5.101  26.907  0.00  0.00    +0.167 A 
ATOM      5  N   UNL     1       6.905  -5.907  27.886  0.00  0.00    -0.195 NA
ATOM      6  C   UNL     1       5.859  -6.696  27.660  0.00  0.00    +0.216 A 
ATOM      7  N   UNL     1       5.140  -6.723  26.540  0.00  0.00    -0.199 NA
ATOM      8  C   UNL     1       5.545  -5.919  25.558  0.00  0.00    +0.131 A 
ATOM      9  N   UNL     1       4.757  -5.945  24.400  0.00  0.00    -0.342 N 
ATOM     10  H   UNL     1       5.314  -6.108  23.568  0.00  0.00    +0.144 HD
ATOM     11  H   UNL     1       4.056  -6.672  24.529  0.00  0.00    +0.144 HD
ATOM     12  N   UNL     1       5.452  -7.537  28.674  0.00  0.00    -0.327 N 
ATOM     13  H   UNL     1       4.475  -7.765  28.561  0.00  0.00    +0.145 HD
ATOM     14  H   UNL     1       5.741  -7.159  29.572  0.00  0.00    +0.145 HD
ATOM     15  C   UNL     1       6.642  -5.069  25.688  0.00  0.00    +0.061 A 
ATOM     16  C   UNL     1       7.101  -4.201  24.675  0.00  0.00    +0.039 A 
ENDROOT
BRANCH   1  17
ATOM     17  N   UNL     1       8.618  -2.508  23.862  0.00  0.00    -0.327 N 
ATOM     18  C   UNL     1      10.055  -2.444  23.596  0.00  0.00    +0.129 C 
BRANCH  17  19
ATOM     19  C   UNL     1       7.711  -1.906  22.870  0.00  0.00    +0.143 C 
BRANCH  19  24
ATOM     20  C   UNL     1       5.644   0.796  24.695  0.00  0.00    +0.121 A 
ATOM     21  C   UNL     1       6.154   1.952  24.113  0.00  0.00    +0.049 A 
ATOM     22  C   UNL     1       7.122   1.860  23.111  0.00  0.00    +0.049 A 
ATOM     23  C   UNL     1       7.602   0.616  22.691  0.00  0.00    +0.125 A 
ATOM     24  C   UNL     1       7.099  -0.570  23.272  0.00  0.00    +0.015 A 
ATOM     25  C   UNL     1       6.098  -0.453  24.254  0.00  0.00    +0.054 A 
BRANCH  20  27
ATOM     26  C   UNL     1       4.133   2.000  26.076  0.00  0.00    +0.277 C 
ATOM     27  O   UNL     1       4.720   0.758  25.704  0.00  0.00    -0.495 OA
ENDBRANCH  20  27
BRANCH  23  28
ATOM     28  O   UNL     1       8.575   0.453  21.733  0.00  0.00    -0.495 OA
ATOM     29  C   UNL     1       9.839   1.061  21.984  0.00  0.00    +0.277 C 
ENDBRANCH  23  28
ENDBRANCH  19  24
ENDBRANCH  17  19
ENDBRANCH   1  17
TORSDOF 5
ENDMDL
MODEL 9
REMARK VINA RESULT:      -6.7      1.925      2.991
REMARK  Name = 
REMARK  8 active torsions:
REMARK  status: ('A' for Active; 'I' for Inactive)
REMARK    1  A    between atoms: C_1  and  O_2
REMARK    2  A    between atoms: O_2  and  C_3
REMARK    3  A    between atoms: C_5  and  C_6
REMARK    4  A    between atoms: C_6  and  N_7
REMARK    5  A    between atoms: N_7  and  C_8
REMARK    6  A    between atoms: N_7  and  C_9
REMARK    7  A    between atoms: C_21  and  O_22
REMARK    8  A    between atoms: O_22  and  C_23
REMARK                            x       y       z     vdW  Elec       q    Type
REMARK                         _______ _______ _______ _____ _____    ______ ____
ROOT
ATOM      1  C   UNL     1       8.456  -3.207  24.144  0.00  0.00    +0.049 A 
ATOM      2  C   UNL     1       8.180  -3.118  22.784  0.00  0.00    +0.136 A 
ATOM      3  N   UNL     1       8.436  -2.040  21.994  0.00  0.00    -0.234 NA
ATOM      4  C   UNL     1       9.016  -0.958  22.526  0.00  0.00    +0.167 A 
ATOM      5  N   UNL     1       9.269   0.079  21.737  0.00  0.00    -0.195 NA
ATOM      6  C   UNL     1       9.858   1.142  22.276  0.00  0.00    +0.216 A 
ATOM      7  N   UNL     1      10.186   1.276  23.560  0.00  0.00    -0.199 NA
ATOM      8  C   UNL     1       9.938   0.229  24.345  0.00  0.00    +0.131 A 
ATOM      9  N   UNL     1      10.268   0.402  25.696  0.00  0.00    -0.342 N 
ATOM     10  H   UNL     1      10.856  -0.349  26.040  0.00  0.00    +0.144 HD
ATOM     11  H   UNL     1      10.727   1.306  25.780  0.00  0.00    +0.144 HD
ATOM     12  N   UNL     1      10.125   2.219  21.457  0.00  0.00    -0.327 N 
ATOM     13  H   UNL     1      10.181   3.064  22.006  0.00  0.00    +0.145 HD
ATOM     14  H   UNL     1       9.486   2.217  20.667  0.00  0.00    +0.145 HD
ATOM     15  C   UNL     1       9.343  -0.941  23.873  0.00  0.00    +0.061 A 
ATOM     16  C   UNL     1       9.061  -2.070  24.670  0.00  0.00    +0.039 A 
ENDROOT
BRANCH   1  17
ATOM     17  N   UNL     1       8.171  -4.296  24.952  0.00  0.00    -0.327 N 
ATOM     18  C   UNL     1       9.172  -5.359  25.017  0.00  0.00    +0.129 C 
BRANCH  17  19
ATOM     19  C   UNL     1       7.096  -4.306  25.959  0.00  0.00    +0.143 C 
BRANCH  19  24
ATOM     20  C   UNL     1       3.861  -5.860  24.536  0.00  0.00    +0.121 A 
ATOM     21  C   UNL     1       3.002  -4.767  24.586  0.00  0.00    +0.049 A 
ATOM     22  C   UNL     1       3.473  -3.530  25.031  0.00  0.00    +0.049 A 
ATOM     23  C   UNL     1       4.799  -3.375  25.446  0.00  0.00    +0.125 A 
ATOM     24  C   UNL     1       5.686  -4.475  25.406  0.00  0.00    +0.015 A 
ATOM     25  C   UNL     1       5.198  -5.701  24.920  0.00  0.00    +0.054 A 
BRANCH  20  27
ATOM     26  C   UNL     1       2.655  -7.845  25.034  0.00  0.00    +0.277 C 
ATOM     27  O   UNL     1       3.511  -7.126  24.151  0.00  0.00    -0.495 OA
ENDBRANCH  20  27
BRANCH  23  28
ATOM     28  O   UNL     1       5.320  -2.196  25.924  0.00  0.00    -0.495 OA
ATOM     29  C   UNL     1       5.523  -1.148  24.980  0.00  0.00    +0.277 C 
ENDBRANCH  23  28
ENDBRANCH  19  24
ENDBRANCH  17  19
ENDBRANCH   1  17
TORSDOF 5
ENDMDL
