MODEL 1
REMARK VINA RESULT:      -7.4      0.000      0.000
REMARK  Name = 
REMARK  4 active torsions:
REMARK  status: ('A' for Active; 'I' for Inactive)
REMARK    1  A    between atoms: O_1  and  C_2
REMARK    2  A    between atoms: C_2  and  C_4
REMARK    3  A    between atoms: N_6  and  C_7
REMARK    4  A    between atoms: C_12  and  N_13
REMARK                            x       y       z     vdW  Elec       q    Type
REMARK                         _______ _______ _______ _____ _____    ______ ____
ROOT
ATOM      1  C   UNL     1       5.872  -5.629  25.944  0.00  0.00    +0.122 A 
ATOM      2  C   UNL     1       6.683  -4.595  26.625  0.00  0.00    +0.203 A 
ATOM      3  O   UNL     1       6.784  -4.600  27.850  0.00  0.00    -0.286 OA
ATOM      4  C   UNL     1       7.333  -3.554  25.799  0.00  0.00    +0.049 A 
ATOM      5  C   UNL     1       7.210  -3.610  24.404  0.00  0.00    +0.055 A 
ATOM      6  C   UNL     1       7.807  -2.584  23.654  0.00  0.00    +0.052 A 
ATOM      7  C   UNL     1       8.528  -1.524  24.237  0.00  0.00    +0.067 A 
ATOM      8  C   UNL     1       8.637  -1.536  25.638  0.00  0.00    +0.145 A 
ATOM      9  F   UNL     1       9.295  -0.558  26.281  0.00  0.00    -0.204 F 
ATOM     10  N   UNL     1       6.510  -4.694  23.799  0.00  0.00    -0.343 N 
ATOM     11  C   UNL     1       8.048  -2.528  26.418  0.00  0.00    +0.054 A 
ATOM     12  C   UNL     1       5.841  -5.599  24.603  0.00  0.00    +0.105 A 
ENDROOT
BRANCH   7  13
ATOM     13  N   UNL     1       9.138  -0.596  23.412  0.00  0.00    -0.325 N 
ATOM     14  C   UNL     1      10.372   0.090  23.834  0.00  0.00    +0.120 C 
ATOM     15  C   UNL     1      10.334   1.548  23.322  0.00  0.00    +0.100 C 
ATOM     16  N   UNL     1      10.146   1.649  21.861  0.00  0.00    -0.313 NA
ATOM     17  H   UNL     1       9.991   2.627  21.616  0.00  0.00    +0.122 HD
ATOM     18  C   UNL     1       8.963   0.864  21.447  0.00  0.00    +0.100 C 
ATOM     19  C   UNL     1       8.960  -0.603  21.952  0.00  0.00    +0.120 C 
ENDBRANCH   7  13
BRANCH  10  20
ATOM     20  C   UNL     1       6.333  -4.773  22.335  0.00  0.00    +0.087 C 
ATOM     21  C   UNL     1       5.761  -5.976  21.628  0.00  0.00    +0.027 C 
ATOM     22  C   UNL     1       7.219  -5.670  21.502  0.00  0.00    +0.027 C 
ENDBRANCH  10  20
BRANCH   1  23
ATOM     23  C   UNL     1       5.108  -6.668  26.664  0.00  0.00    +0.342 C 
ATOM     24  O   UNL     1       4.039  -7.106  26.273  0.00  0.00    -0.245 OA
BRANCH  23  25
ATOM     25  O   UNL     1       5.686  -7.098  27.808  0.00  0.00    -0.477 OA
ATOM     26  H   UNL     1       5.811  -6.393  28.490  0.00  0.00    +0.295 HD
ENDBRANCH  23  25
ENDBRANCH   1  23
TORSDOF 4
ENDMDL
MODEL 2
REMARK VINA RESULT:      -7.1      2.741      4.064
REMARK  Name = 
REMARK  4 active torsions:
REMARK  status: ('A' for Active; 'I' for Inactive)
REMARK    1  A    between atoms: O_1  and  C_2
REMARK    2  A    between atoms: C_2  and  C_4
REMARK    3  A    between atoms: N_6  and  C_7
REMARK    4  A    between atoms: C_12  and  N_13
REMARK                            x       y       z     vdW  Elec       q    Type
REMARK                         _______ _______ _______ _____ _____    ______ ____
ROOT
ATOM      1  C   UNL     1       8.160  -3.839  26.047  0.00  0.00    +0.122 A 
ATOM      2  C   UNL     1       8.993  -3.438  24.892  0.00  0.00    +0.203 A 
ATOM      3  O   UNL     1       9.724  -4.260  24.345  0.00  0.00    -0.286 OA
ATOM      4  C   UNL     1       8.941  -2.029  24.444  0.00  0.00    +0.049 A 
ATOM      5  C   UNL     1       8.070  -1.137  25.085  0.00  0.00    +0.055 A 
ATOM      6  C   UNL     1       8.076   0.201  24.659  0.00  0.00    +0.052 A 
ATOM      7  C   UNL     1       8.899   0.674  23.619  0.00  0.00    +0.067 A 
ATOM      8  C   UNL     1       9.733  -0.272  23.000  0.00  0.00    +0.145 A 
ATOM      9  F   UNL     1      10.561   0.093  22.008  0.00  0.00    -0.204 F 
ATOM     10  N   UNL     1       7.209  -1.609  26.118  0.00  0.00    -0.343 N 
ATOM     11  C   UNL     1       9.766  -1.605  23.401  0.00  0.00    +0.054 A 
ATOM     12  C   UNL     1       7.347  -2.909  26.570  0.00  0.00    +0.105 A 
ENDROOT
BRANCH   7  13
ATOM     13  N   UNL     1       8.786   1.996  23.226  0.00  0.00    -0.325 N 
ATOM     14  C   UNL     1       9.802   2.987  23.621  0.00  0.00    +0.120 C 
ATOM     15  C   UNL     1       9.103   4.337  23.899  0.00  0.00    +0.100 C 
ATOM     16  N   UNL     1       8.302   4.826  22.759  0.00  0.00    -0.313 NA
ATOM     17  H   UNL     1       7.763   5.638  23.059  0.00  0.00    +0.122 HD
ATOM     18  C   UNL     1       7.364   3.774  22.311  0.00  0.00    +0.100 C 
ATOM     19  C   UNL     1       8.029   2.401  22.031  0.00  0.00    +0.120 C 
ENDBRANCH   7  13
BRANCH  10  20
ATOM     20  C   UNL     1       6.299  -0.696  26.837  0.00  0.00    +0.087 C 
ATOM     21  C   UNL     1       5.110  -1.164  27.638  0.00  0.00    +0.027 C 
ATOM     22  C   UNL     1       4.892  -0.464  26.336  0.00  0.00    +0.027 C 
ENDBRANCH  10  20
BRANCH   1  23
ATOM     23  C   UNL     1       8.188  -5.193  26.639  0.00  0.00    +0.342 C 
ATOM     24  O   UNL     1       7.522  -5.515  27.608  0.00  0.00    -0.245 OA
BRANCH  23  25
ATOM     25  O   UNL     1       9.024  -6.058  26.020  0.00  0.00    -0.477 OA
ATOM     26  H   UNL     1       9.919  -5.687  25.824  0.00  0.00    +0.295 HD
ENDBRANCH  23  25
ENDBRANCH   1  23
TORSDOF 4
ENDMDL
MODEL 3
REMARK VINA RESULT:      -7.1      2.328      3.302
REMARK  Name = 
REMARK  4 active torsions:
REMARK  status: ('A' for Active; 'I' for Inactive)
REMARK    1  A    between atoms: O_1  and  C_2
REMARK    2  A    between atoms: C_2  and  C_4
REMARK    3  A    between atoms: N_6  and  C_7
REMARK    4  A    between atoms: C_12  and  N_13
REMARK                            x       y       z     vdW  Elec       q    Type
REMARK                         _______ _______ _______ _____ _____    ______ ____
ROOT
ATOM      1  C   UNL     1       6.832  -4.595  27.151  0.00  0.00    +0.122 A 
ATOM      2  C   UNL     1       7.903  -4.719  26.137  0.00  0.00    +0.203 A 
ATOM      3  O   UNL     1       8.405  -5.816  25.903  0.00  0.00    -0.286 OA
ATOM      4  C   UNL     1       8.364  -3.494  25.448  0.00  0.00    +0.049 A 
ATOM      5  C   UNL     1       7.739  -2.272  25.731  0.00  0.00    +0.055 A 
ATOM      6  C   UNL     1       8.228  -1.124  25.087  0.00  0.00    +0.052 A 
ATOM      7  C   UNL     1       9.295  -1.152  24.169  0.00  0.00    +0.067 A 
ATOM      8  C   UNL     1       9.866  -2.410  23.909  0.00  0.00    +0.145 A 
ATOM      9  F   UNL     1      10.897  -2.530  23.058  0.00  0.00    -0.204 F 
ATOM     10  N   UNL     1       6.637  -2.234  26.634  0.00  0.00    -0.343 N 
ATOM     11  C   UNL     1       9.418  -3.570  24.536  0.00  0.00    +0.054 A 
ATOM     12  C   UNL     1       6.291  -3.381  27.326  0.00  0.00    +0.105 A 
ENDROOT
BRANCH   7  13
ATOM     13  N   UNL     1       9.664   0.021  23.535  0.00  0.00    -0.325 N 
ATOM     14  C   UNL     1      10.706   0.891  24.109  0.00  0.00    +0.120 C 
ATOM     15  C   UNL     1      10.324   2.366  23.852  0.00  0.00    +0.100 C 
ATOM     16  N   UNL     1      10.105   2.673  22.424  0.00  0.00    -0.313 NA
ATOM     17  H   UNL     1       9.724   3.615  22.344  0.00  0.00    +0.122 HD
ATOM     18  C   UNL     1       9.136   1.718  21.843  0.00  0.00    +0.100 C 
ATOM     19  C   UNL     1       9.482   0.227  22.090  0.00  0.00    +0.120 C 
ENDBRANCH   7  13
BRANCH  10  20
ATOM     20  C   UNL     1       5.972  -0.963  26.981  0.00  0.00    +0.087 C 
ATOM     21  C   UNL     1       4.696  -0.880  27.783  0.00  0.00    +0.027 C 
ATOM     22  C   UNL     1       4.669  -0.573  26.320  0.00  0.00    +0.027 C 
ENDBRANCH  10  20
BRANCH   1  23
ATOM     23  C   UNL     1       6.347  -5.729  27.964  0.00  0.00    +0.342 C 
ATOM     24  O   UNL     1       6.452  -5.777  29.179  0.00  0.00    -0.245 OA
BRANCH  23  25
ATOM     25  O   UNL     1       5.776  -6.727  27.252  0.00  0.00    -0.477 OA
ATOM     26  H   UNL     1       4.872  -6.979  27.561  0.00  0.00    +0.295 HD
ENDBRANCH  23  25
ENDBRANCH   1  23
TORSDOF 4
ENDMDL
MODEL 4
REMARK VINA RESULT:      -6.9      3.362      5.183
REMARK  Name = 
REMARK  4 active torsions:
REMARK  status: ('A' for Active; 'I' for Inactive)
REMARK    1  A    between atoms: O_1  and  C_2
REMARK    2  A    between atoms: C_2  and  C_4
REMARK    3  A    between atoms: N_6  and  C_7
REMARK    4  A    between atoms: C_12  and  N_13
REMARK                            x       y       z     vdW  Elec       q    Type
REMARK                         _______ _______ _______ _____ _____    ______ ____
ROOT
ATOM      1  C   UNL     1       8.925  -2.813  24.920  0.00  0.00    +0.122 A 
ATOM      2  C   UNL     1       9.633  -2.058  23.862  0.00  0.00    +0.203 A 
ATOM      3  O   UNL     1      10.430  -2.632  23.125  0.00  0.00    -0.286 OA
ATOM      4  C   UNL     1       9.376  -0.606  23.742  0.00  0.00    +0.049 A 
ATOM      5  C   UNL     1       8.435  -0.004  24.589  0.00  0.00    +0.055 A 
ATOM      6  C   UNL     1       8.245   1.382  24.474  0.00  0.00    +0.052 A 
ATOM      7  C   UNL     1       8.940   2.179  23.545  0.00  0.00    +0.067 A 
ATOM      8  C   UNL     1       9.853   1.515  22.708  0.00  0.00    +0.145 A 
ATOM      9  F   UNL     1      10.569   2.198  21.801  0.00  0.00    -0.204 F 
ATOM     10  N   UNL     1       7.702  -0.805  25.513  0.00  0.00    -0.343 N 
ATOM     11  C   UNL     1      10.079   0.144  22.799  0.00  0.00    +0.054 A 
ATOM     12  C   UNL     1       8.030  -2.141  25.659  0.00  0.00    +0.105 A 
ENDROOT
BRANCH   7  13
ATOM     13  N   UNL     1       8.637   3.527  23.461  0.00  0.00    -0.325 N 
ATOM     14  C   UNL     1       7.294   3.971  23.048  0.00  0.00    +0.120 C 
ATOM     15  C   UNL     1       7.431   5.250  22.191  0.00  0.00    +0.100 C 
ATOM     16  N   UNL     1       8.161   6.336  22.874  0.00  0.00    -0.313 NA
ATOM     17  H   UNL     1       8.334   7.087  22.207  0.00  0.00    +0.122 HD
ATOM     18  C   UNL     1       9.460   5.837  23.374  0.00  0.00    +0.100 C 
ATOM     19  C   UNL     1       9.363   4.548  24.231  0.00  0.00    +0.120 C 
ENDBRANCH   7  13
BRANCH  10  20
ATOM     20  C   UNL     1       6.724  -0.205  26.442  0.00  0.00    +0.087 C 
ATOM     21  C   UNL     1       5.712  -1.007  27.222  0.00  0.00    +0.027 C 
ATOM     22  C   UNL     1       5.257  -0.152  26.084  0.00  0.00    +0.027 C 
ENDBRANCH  10  20
BRANCH   1  23
ATOM     23  C   UNL     1       9.160  -4.246  25.192  0.00  0.00    +0.342 C 
ATOM     24  O   UNL     1       9.521  -4.672  26.276  0.00  0.00    -0.245 OA
BRANCH  23  25
ATOM     25  O   UNL     1       8.949  -5.060  24.133  0.00  0.00    -0.477 OA
ATOM     26  H   UNL     1       8.713  -4.587  23.298  0.00  0.00    +0.295 HD
ENDBRANCH  23  25
ENDBRANCH   1  23
TORSDOF 4
ENDMDL
MODEL 5
REMARK VINA RESULT:      -6.9      3.919      7.354
REMARK  Name = 
REMARK  4 active torsions:
REMARK  status: ('A' for Active; 'I' for Inactive)
REMARK    1  A    between atoms: O_1  and  C_2
REMARK    2  A    between atoms: C_2  and  C_4
REMARK    3  A    between atoms: N_6  and  C_7
REMARK    4  A    between atoms: C_12  and  N_13
REMARK                            x       y       z     vdW  Elec       q    Type
REMARK                         _______ _______ _______ _____ _____    ______ ____
ROOT
ATOM      1  C   UNL     1       8.948   1.072  23.448  0.00  0.00    +0.122 A 
ATOM      2  C   UNL     1       9.707  -0.195  23.543  0.00  0.00    +0.203 A 
ATOM      3  O   UNL     1      10.857  -0.258  23.114  0.00  0.00    -0.286 OA
ATOM      4  C   UNL     1       9.037  -1.373  24.136  0.00  0.00    +0.049 A 
ATOM      5  C   UNL     1       7.735  -1.241  24.638  0.00  0.00    +0.055 A 
ATOM      6  C   UNL     1       7.116  -2.389  25.157  0.00  0.00    +0.052 A 
ATOM      7  C   UNL     1       7.747  -3.647  25.209  0.00  0.00    +0.067 A 
ATOM      8  C   UNL     1       9.060  -3.711  24.713  0.00  0.00    +0.145 A 
ATOM      9  F   UNL     1       9.734  -4.872  24.711  0.00  0.00    -0.204 F 
ATOM     10  N   UNL     1       7.097   0.033  24.619  0.00  0.00    -0.343 N 
ATOM     11  C   UNL     1       9.705  -2.598  24.178  0.00  0.00    +0.054 A 
ATOM     12  C   UNL     1       7.717   1.090  23.979  0.00  0.00    +0.105 A 
ENDROOT
BRANCH   7  13
ATOM     13  N   UNL     1       7.080  -4.706  25.801  0.00  0.00    -0.325 N 
ATOM     14  C   UNL     1       6.248  -5.616  24.993  0.00  0.00    +0.120 C 
ATOM     15  C   UNL     1       5.012  -6.031  25.822  0.00  0.00    +0.100 C 
ATOM     16  N   UNL     1       5.357  -6.642  27.121  0.00  0.00    -0.313 NA
ATOM     17  H   UNL     1       4.504  -6.759  27.667  0.00  0.00    +0.122 HD
ATOM     18  C   UNL     1       6.279  -5.758  27.867  0.00  0.00    +0.100 C 
ATOM     19  C   UNL     1       7.528  -5.313  27.063  0.00  0.00    +0.120 C 
ENDBRANCH   7  13
BRANCH  10  20
ATOM     20  C   UNL     1       5.715   0.207  25.110  0.00  0.00    +0.087 C 
ATOM     21  C   UNL     1       5.083   1.553  25.362  0.00  0.00    +0.027 C 
ATOM     22  C   UNL     1       5.456   0.685  26.521  0.00  0.00    +0.027 C 
ENDBRANCH  10  20
BRANCH   1  23
ATOM     23  C   UNL     1       9.478   2.290  22.802  0.00  0.00    +0.342 C 
ATOM     24  O   UNL     1       9.588   3.360  23.377  0.00  0.00    -0.245 OA
BRANCH  23  25
ATOM     25  O   UNL     1       9.831   2.130  21.506  0.00  0.00    -0.477 OA
ATOM     26  H   UNL     1       9.961   1.188  21.235  0.00  0.00    +0.295 HD
ENDBRANCH  23  25
ENDBRANCH   1  23
TORSDOF 4
ENDMDL
MODEL 6
REMARK VINA RESULT:      -6.7      2.150      3.500
REMARK  Name = 
REMARK  4 active torsions:
REMARK  status: ('A' for Active; 'I' for Inactive)
REMARK    1  A    between atoms: O_1  and  C_2
REMARK    2  A    between atoms: C_2  and  C_4
REMARK    3  A    between atoms: N_6  and  C_7
REMARK    4  A    between atoms: C_12  and  N_13
REMARK                            x       y       z     vdW  Elec       q    Type
REMARK                         _______ _______ _______ _____ _____    ______ ____
ROOT
ATOM      1  C   UNL     1       5.515  -5.368  24.777  0.00  0.00    +0.122 A 
ATOM      2  C   UNL     1       6.366  -5.040  23.612  0.00  0.00    +0.203 A 
ATOM      3  O   UNL     1       6.508  -5.857  22.705  0.00  0.00    -0.286 OA
ATOM      4  C   UNL     1       7.053  -3.730  23.589  0.00  0.00    +0.049 A 
ATOM      5  C   UNL     1       6.834  -2.823  24.634  0.00  0.00    +0.055 A 
ATOM      6  C   UNL     1       7.533  -1.606  24.599  0.00  0.00    +0.052 A 
ATOM      7  C   UNL     1       8.420  -1.256  23.563  0.00  0.00    +0.067 A 
ATOM      8  C   UNL     1       8.579  -2.197  22.531  0.00  0.00    +0.145 A 
ATOM      9  F   UNL     1       9.415  -1.955  21.508  0.00  0.00    -0.204 F 
ATOM     10  N   UNL     1       5.916  -3.150  25.673  0.00  0.00    -0.343 N 
ATOM     11  C   UNL     1       7.915  -3.421  22.535  0.00  0.00    +0.054 A 
ATOM     12  C   UNL     1       5.360  -4.416  25.710  0.00  0.00    +0.105 A 
ENDROOT
BRANCH   7  13
ATOM     13  N   UNL     1       9.012  -0.006  23.581  0.00  0.00    -0.325 N 
ATOM     14  C   UNL     1       8.499   1.081  22.729  0.00  0.00    +0.120 C 
ATOM     15  C   UNL     1       9.690   1.927  22.225  0.00  0.00    +0.100 C 
ATOM     16  N   UNL     1      10.530   2.461  23.316  0.00  0.00    -0.313 NA
ATOM     17  H   UNL     1      11.365   2.884  22.911  0.00  0.00    +0.122 HD
ATOM     18  C   UNL     1      10.944   1.365  24.219  0.00  0.00    +0.100 C 
ATOM     19  C   UNL     1       9.775   0.488  24.737  0.00  0.00    +0.120 C 
ENDBRANCH   7  13
BRANCH  10  20
ATOM     20  C   UNL     1       5.681  -2.235  26.807  0.00  0.00    +0.087 C 
ATOM     21  C   UNL     1       4.568  -2.417  27.810  0.00  0.00    +0.027 C 
ATOM     22  C   UNL     1       4.486  -1.308  26.811  0.00  0.00    +0.027 C 
ENDBRANCH  10  20
BRANCH   1  23
ATOM     23  C   UNL     1       4.847  -6.673  24.955  0.00  0.00    +0.342 C 
ATOM     24  O   UNL     1       4.572  -7.143  26.046  0.00  0.00    -0.245 OA
BRANCH  23  25
ATOM     25  O   UNL     1       4.565  -7.321  23.802  0.00  0.00    -0.477 OA
ATOM     26  H   UNL     1       4.345  -6.724  23.045  0.00  0.00    +0.295 HD
ENDBRANCH  23  25
ENDBRANCH   1  23
TORSDOF 4
ENDMDL
MODEL 7
REMARK VINA RESULT:      -6.7      4.704      7.967
REMARK  Name = 
REMARK  4 active torsions:
REMARK  status: ('A' for Active; 'I' for Inactive)
REMARK    1  A    between atoms: O_1  and  C_2
REMARK    2  A    between atoms: C_2  and  C_4
REMARK    3  A    between atoms: N_6  and  C_7
REMARK    4  A    between atoms: C_12  and  N_13
REMARK                            x       y       z     vdW  Elec       q    Type
REMARK                         _______ _______ _______ _____ _____    ______ ____
ROOT
ATOM      1  C   UNL     1       9.212   3.811  24.288  0.00  0.00    +0.122 A 
ATOM      2  C   UNL     1      10.127   2.802  23.708  0.00  0.00    +0.203 A 
ATOM      3  O   UNL     1      11.209   3.149  23.241  0.00  0.00    -0.286 OA
ATOM      4  C   UNL     1       9.689   1.390  23.680  0.00  0.00    +0.049 A 
ATOM      5  C   UNL     1       8.457   1.042  24.251  0.00  0.00    +0.055 A 
ATOM      6  C   UNL     1       8.056  -0.301  24.172  0.00  0.00    +0.052 A 
ATOM      7  C   UNL     1       8.838  -1.303  23.565  0.00  0.00    +0.067 A 
ATOM      8  C   UNL     1      10.073  -0.898  23.032  0.00  0.00    +0.145 A 
ATOM      9  F   UNL     1      10.878  -1.783  22.423  0.00  0.00    -0.204 F 
ATOM     10  N   UNL     1       7.670   2.040  24.896  0.00  0.00    -0.343 N 
ATOM     11  C   UNL     1      10.501   0.427  23.078  0.00  0.00    +0.054 A 
ATOM     12  C   UNL     1       8.068   3.363  24.826  0.00  0.00    +0.105 A 
ENDROOT
BRANCH   7  13
ATOM     13  N   UNL     1       8.389  -2.612  23.595  0.00  0.00    -0.325 N 
ATOM     14  C   UNL     1       7.641  -3.176  22.458  0.00  0.00    +0.120 C 
ATOM     15  C   UNL     1       6.553  -4.130  22.998  0.00  0.00    +0.100 C 
ATOM     16  N   UNL     1       7.090  -5.201  23.862  0.00  0.00    -0.313 NA
ATOM     17  H   UNL     1       6.311  -5.700  24.291  0.00  0.00    +0.122 HD
ATOM     18  C   UNL     1       7.926  -4.616  24.932  0.00  0.00    +0.100 C 
ATOM     19  C   UNL     1       9.024  -3.644  24.428  0.00  0.00    +0.120 C 
ENDBRANCH   7  13
BRANCH  10  20
ATOM     20  C   UNL     1       6.354   1.721  25.483  0.00  0.00    +0.087 C 
ATOM     21  C   UNL     1       5.602   2.651  26.402  0.00  0.00    +0.027 C 
ATOM     22  C   UNL     1       6.226   1.412  26.957  0.00  0.00    +0.027 C 
ENDBRANCH  10  20
BRANCH   1  23
ATOM     23  C   UNL     1       9.500   5.260  24.296  0.00  0.00    +0.342 C 
ATOM     24  O   UNL     1       9.472   5.943  25.306  0.00  0.00    -0.245 OA
BRANCH  23  25
ATOM     25  O   UNL     1       9.794   5.780  23.084  0.00  0.00    -0.477 OA
ATOM     26  H   UNL     1      10.106   6.718  23.110  0.00  0.00    +0.295 HD
ENDBRANCH  23  25
ENDBRANCH   1  23
TORSDOF 4
ENDMDL
MODEL 8
REMARK VINA RESULT:      -6.7      3.960      7.518
REMARK  Name = 
REMARK  4 active torsions:
REMARK  status: ('A' for Active; 'I' for Inactive)
REMARK    1  A    between atoms: O_1  and  C_2
REMARK    2  A    between atoms: C_2  and  C_4
REMARK    3  A    between atoms: N_6  and  C_7
REMARK    4  A    between atoms: C_12  and  N_13
REMARK                            x       y       z     vdW  Elec       q    Type
REMARK                         _______ _______ _______ _____ _____    ______ ____
ROOT
ATOM      1  C   UNL     1       9.273   0.866  23.219  0.00  0.00    +0.122 A 
ATOM      2  C   UNL     1       9.265  -0.425  22.496  0.00  0.00    +0.203 A 
ATOM      3  O   UNL     1      10.013  -0.598  21.536  0.00  0.00    -0.286 OA
ATOM      4  C   UNL     1       8.320  -1.473  22.939  0.00  0.00    +0.049 A 
ATOM      5  C   UNL     1       7.509  -1.236  24.058  0.00  0.00    +0.055 A 
ATOM      6  C   UNL     1       6.597  -2.237  24.427  0.00  0.00    +0.052 A 
ATOM      7  C   UNL     1       6.476  -3.460  23.739  0.00  0.00    +0.067 A 
ATOM      8  C   UNL     1       7.333  -3.649  22.641  0.00  0.00    +0.145 A 
ATOM      9  F   UNL     1       7.278  -4.779  21.918  0.00  0.00    -0.204 F 
ATOM     10  N   UNL     1       7.642  -0.016  24.782  0.00  0.00    -0.343 N 
ATOM     11  C   UNL     1       8.242  -2.675  22.235  0.00  0.00    +0.054 A 
ATOM     12  C   UNL     1       8.470   0.976  24.288  0.00  0.00    +0.105 A 
ENDROOT
BRANCH   7  13
ATOM     13  N   UNL     1       5.595  -4.413  24.217  0.00  0.00    -0.325 N 
ATOM     14  C   UNL     1       5.620  -4.817  25.635  0.00  0.00    +0.120 C 
ATOM     15  C   UNL     1       5.318  -6.329  25.730  0.00  0.00    +0.100 C 
ATOM     16  N   UNL     1       4.042  -6.712  25.094  0.00  0.00    -0.313 NA
ATOM     17  H   UNL     1       3.977  -7.729  25.071  0.00  0.00    +0.122 HD
ATOM     18  C   UNL     1       3.995  -6.202  23.706  0.00  0.00    +0.100 C 
ATOM     19  C   UNL     1       4.303  -4.688  23.570  0.00  0.00    +0.120 C 
ENDBRANCH   7  13
BRANCH  10  20
ATOM     20  C   UNL     1       6.785   0.284  25.946  0.00  0.00    +0.087 C 
ATOM     21  C   UNL     1       6.990   1.477  26.847  0.00  0.00    +0.027 C 
ATOM     22  C   UNL     1       7.312   0.108  27.352  0.00  0.00    +0.027 C 
ENDBRANCH  10  20
BRANCH   1  23
ATOM     23  C   UNL     1      10.109   2.017  22.819  0.00  0.00    +0.342 C 
ATOM     24  O   UNL     1      10.701   2.725  23.616  0.00  0.00    -0.245 OA
BRANCH  23  25
ATOM     25  O   UNL     1      10.165   2.233  21.485  0.00  0.00    -0.477 OA
ATOM     26  H   UNL     1       9.889   1.458  20.937  0.00  0.00    +0.295 HD
ENDBRANCH  23  25
ENDBRANCH   1  23
TORSDOF 4
ENDMDL
MODEL 9
REMARK VINA RESULT:      -6.5      2.148      2.374
REMARK  Name = 
REMARK  4 active torsions:
REMARK  status: ('A' for Active; 'I' for Inactive)
REMARK    1  A    between atoms: O_1  and  C_2
REMARK    2  A    between atoms: C_2  and  C_4
REMARK    3  A    between atoms: N_6  and  C_7
REMARK    4  A    between atoms: C_12  and  N_13
REMARK                            x       y       z     vdW  Elec       q    Type
REMARK                         _______ _______ _______ _____ _____    ______ ____
ROOT
ATOM      1  C   UNL     1       3.950  -4.567  24.980  0.00  0.00    +0.122 A 
ATOM      2  C   UNL     1       4.262  -3.255  25.589  0.00  0.00    +0.203 A 
ATOM      3  O   UNL     1       3.765  -2.944  26.670  0.00  0.00    -0.286 OA
ATOM      4  C   UNL     1       5.154  -2.332  24.854  0.00  0.00    +0.049 A 
ATOM      5  C   UNL     1       5.717  -2.745  23.639  0.00  0.00    +0.055 A 
ATOM      6  C   UNL     1       6.527  -1.829  22.949  0.00  0.00    +0.052 A 
ATOM      7  C   UNL     1       6.805  -0.534  23.428  0.00  0.00    +0.067 A 
ATOM      8  C   UNL     1       6.230  -0.186  24.663  0.00  0.00    +0.145 A 
ATOM      9  F   UNL     1       6.431   1.032  25.190  0.00  0.00    -0.204 F 
ATOM     10  N   UNL     1       5.469  -4.064  23.158  0.00  0.00    -0.343 N 
ATOM     11  C   UNL     1       5.411  -1.061  25.372  0.00  0.00    +0.054 A 
ATOM     12  C   UNL     1       4.563  -4.867  23.825  0.00  0.00    +0.105 A 
ENDROOT
BRANCH   7  13
ATOM     13  N   UNL     1       7.668   0.274  22.710  0.00  0.00    -0.325 N 
ATOM     14  C   UNL     1       8.873  -0.289  22.076  0.00  0.00    +0.120 C 
ATOM     15  C   UNL     1      10.019   0.743  22.174  0.00  0.00    +0.100 C 
ATOM     16  N   UNL     1       9.676   2.055  21.587  0.00  0.00    -0.313 NA
ATOM     17  H   UNL     1      10.416   2.719  21.811  0.00  0.00    +0.122 HD
ATOM     18  C   UNL     1       8.406   2.549  22.161  0.00  0.00    +0.100 C 
ATOM     19  C   UNL     1       7.234   1.535  22.090  0.00  0.00    +0.120 C 
ENDBRANCH   7  13
BRANCH  10  20
ATOM     20  C   UNL     1       6.020  -4.527  21.869  0.00  0.00    +0.087 C 
ATOM     21  C   UNL     1       5.951  -5.959  21.398  0.00  0.00    +0.027 C 
ATOM     22  C   UNL     1       7.263  -5.387  21.830  0.00  0.00    +0.027 C 
ENDBRANCH  10  20
BRANCH   1  23
ATOM     23  C   UNL     1       3.010  -5.537  25.576  0.00  0.00    +0.342 C 
ATOM     24  O   UNL     1       3.282  -6.713  25.752  0.00  0.00    -0.245 OA
BRANCH  23  25
ATOM     25  O   UNL     1       1.806  -5.019  25.910  0.00  0.00    -0.477 OA
ATOM     26  H   UNL     1       1.682  -4.076  25.642  0.00  0.00    +0.295 HD
ENDBRANCH  23  25
ENDBRANCH   1  23
TORSDOF 4
ENDMDL
