MODEL 1
REMARK VINA RESULT:      -3.9      0.000      0.000
REMARK  Name = 
REMARK  7 active torsions:
REMARK  status: ('A' for Active; 'I' for Inactive)
REMARK    1  A    between atoms: C_1  and  C_2
REMARK    2  A    between atoms: C_2  and  C_3
REMARK    3  A    between atoms: C_3  and  C_4
REMARK    4  A    between atoms: C_4  and  C_5
REMARK    5  A    between atoms: C_5  and  C_6
REMARK    6  A    between atoms: C_6  and  C_8
REMARK    7  A    between atoms: C_6  and  N_9
REMARK                            x       y       z     vdW  Elec       q    Type
REMARK                         _______ _______ _______ _____ _____    ______ ____
ROOT
ATOM      1  C   UNL     1       9.953  -1.842  23.935  0.00  0.00    +0.070 C 
ATOM      2  C   UNL     1      10.175  -1.577  22.447  0.00  0.00    +0.028 C 
ENDROOT
BRANCH   1   3
ATOM      3  N   UNL     1       8.827  -2.751  24.112  0.00  0.00    -0.315 N 
ATOM      4  H   UNL     1       7.903  -2.443  23.843  0.00  0.00    +0.149 HD
ATOM      5  C   UNL     1       8.992  -4.053  24.506  0.00  0.00    +0.325 C 
ATOM      6  O   UNL     1      10.053  -4.594  24.773  0.00  0.00    -0.280 OA
ENDBRANCH   1   3
BRANCH   1   7
ATOM      7  C   UNL     1       9.715  -0.527  24.699  0.00  0.00    +0.022 C 
BRANCH   7   8
ATOM      8  C   UNL     1      10.777   0.525  24.363  0.00  0.00    +0.002 C 
BRANCH   8   9
ATOM      9  C   UNL     1      10.161   1.883  24.029  0.00  0.00    -0.000 C 
BRANCH   9  11
ATOM     10  C   UNL     1       8.840   1.866  21.876  0.00  0.00    +0.004 C 
ATOM     11  C   UNL     1      10.191   2.126  22.518  0.00  0.00    -0.003 C 
ENDBRANCH   9  11
ENDBRANCH   8   9
ENDBRANCH   7   8
ENDBRANCH   1   7
TORSDOF 5
ENDMDL
MODEL 2
REMARK VINA RESULT:      -3.9      1.395      2.325
REMARK  Name = 
REMARK  7 active torsions:
REMARK  status: ('A' for Active; 'I' for Inactive)
REMARK    1  A    between atoms: C_1  and  C_2
REMARK    2  A    between atoms: C_2  and  C_3
REMARK    3  A    between atoms: C_3  and  C_4
REMARK    4  A    between atoms: C_4  and  C_5
REMARK    5  A    between atoms: C_5  and  C_6
REMARK    6  A    between atoms: C_6  and  C_8
REMARK    7  A    between atoms: C_6  and  N_9
REMARK                            x       y       z     vdW  Elec       q    Type
REMARK                         _______ _______ _______ _____ _____    ______ ____
ROOT
ATOM      1  C   UNL     1       8.773  -1.645  22.467  0.00  0.00    +0.070 C 
ATOM      2  C   UNL     1       7.486  -0.981  22.952  0.00  0.00    +0.028 C 
ENDROOT
BRANCH   1   3
ATOM      3  N   UNL     1       9.619  -1.975  23.608  0.00  0.00    -0.315 N 
ATOM      4  H   UNL     1      10.190  -1.249  24.019  0.00  0.00    +0.149 HD
ATOM      5  C   UNL     1       9.570  -3.196  24.228  0.00  0.00    +0.325 C 
ATOM      6  O   UNL     1       8.862  -4.138  23.906  0.00  0.00    -0.280 OA
ENDBRANCH   1   3
BRANCH   1   7
ATOM      7  C   UNL     1       9.525  -0.735  21.480  0.00  0.00    +0.022 C 
BRANCH   7   8
ATOM      8  C   UNL     1       9.012   0.708  21.536  0.00  0.00    +0.002 C 
BRANCH   8   9
ATOM      9  C   UNL     1      10.075   1.681  22.046  0.00  0.00    -0.000 C 
BRANCH   9  11
ATOM     10  C   UNL     1      10.856   1.149  24.389  0.00  0.00    +0.004 C 
ATOM     11  C   UNL     1       9.882   1.948  23.540  0.00  0.00    -0.003 C 
ENDBRANCH   9  11
ENDBRANCH   8   9
ENDBRANCH   7   8
ENDBRANCH   1   7
TORSDOF 5
ENDMDL
MODEL 3
REMARK VINA RESULT:      -3.7      2.057      2.752
REMARK  Name = 
REMARK  7 active torsions:
REMARK  status: ('A' for Active; 'I' for Inactive)
REMARK    1  A    between atoms: C_1  and  C_2
REMARK    2  A    between atoms: C_2  and  C_3
REMARK    3  A    between atoms: C_3  and  C_4
REMARK    4  A    between atoms: C_4  and  C_5
REMARK    5  A    between atoms: C_5  and  C_6
REMARK    6  A    between atoms: C_6  and  C_8
REMARK    7  A    between atoms: C_6  and  N_9
REMARK                            x       y       z     vdW  Elec       q    Type
REMARK                         _______ _______ _______ _____ _____    ______ ____
ROOT
ATOM      1  C   UNL     1      10.385   0.316  23.208  0.00  0.00    +0.070 C 
ATOM      2  C   UNL     1       9.742   0.747  21.891  0.00  0.00    +0.028 C 
ENDROOT
BRANCH   1   3
ATOM      3  N   UNL     1       9.524  -0.643  23.888  0.00  0.00    -0.315 N 
ATOM      4  H   UNL     1       8.730  -0.301  24.413  0.00  0.00    +0.149 HD
ATOM      5  C   UNL     1       9.669  -1.997  23.735  0.00  0.00    +0.325 C 
ATOM      6  O   UNL     1      10.518  -2.557  23.059  0.00  0.00    -0.280 OA
ENDBRANCH   1   3
BRANCH   1   7
ATOM      7  C   UNL     1      10.662   1.532  24.110  0.00  0.00    +0.022 C 
BRANCH   7   8
ATOM      8  C   UNL     1       9.527   2.559  24.040  0.00  0.00    +0.002 C 
BRANCH   8   9
ATOM      9  C   UNL     1      10.042   3.973  23.772  0.00  0.00    -0.000 C 
BRANCH   9  11
ATOM     10  C   UNL     1      12.171   5.299  23.472  0.00  0.00    +0.004 C 
ATOM     11  C   UNL     1      11.513   3.935  23.353  0.00  0.00    -0.003 C 
ENDBRANCH   9  11
ENDBRANCH   8   9
ENDBRANCH   7   8
ENDBRANCH   1   7
TORSDOF 5
ENDMDL
MODEL 4
REMARK VINA RESULT:      -3.7      1.777      2.182
REMARK  Name = 
REMARK  7 active torsions:
REMARK  status: ('A' for Active; 'I' for Inactive)
REMARK    1  A    between atoms: C_1  and  C_2
REMARK    2  A    between atoms: C_2  and  C_3
REMARK    3  A    between atoms: C_3  and  C_4
REMARK    4  A    between atoms: C_4  and  C_5
REMARK    5  A    between atoms: C_5  and  C_6
REMARK    6  A    between atoms: C_6  and  C_8
REMARK    7  A    between atoms: C_6  and  N_9
REMARK                            x       y       z     vdW  Elec       q    Type
REMARK                         _______ _______ _______ _____ _____    ______ ____
ROOT
ATOM      1  C   UNL     1       9.132  -0.908  24.568  0.00  0.00    +0.070 C 
ATOM      2  C   UNL     1       8.670  -1.931  25.604  0.00  0.00    +0.028 C 
ENDROOT
BRANCH   1   3
ATOM      3  N   UNL     1      10.008  -1.550  23.596  0.00  0.00    -0.315 N 
ATOM      4  H   UNL     1      10.940  -1.819  23.882  0.00  0.00    +0.149 HD
ATOM      5  C   UNL     1       9.575  -1.922  22.351  0.00  0.00    +0.325 C 
ATOM      6  O   UNL     1       8.453  -1.751  21.900  0.00  0.00    -0.280 OA
ENDBRANCH   1   3
BRANCH   1   7
ATOM      7  C   UNL     1       9.846   0.277  25.243  0.00  0.00    +0.022 C 
BRANCH   7   8
ATOM      8  C   UNL     1      10.905   0.898  24.326  0.00  0.00    +0.002 C 
BRANCH   8   9
ATOM      9  C   UNL     1      10.376   2.122  23.579  0.00  0.00    -0.000 C 
BRANCH   9  11
ATOM     10  C   UNL     1       8.615   1.810  21.795  0.00  0.00    +0.004 C 
ATOM     11  C   UNL     1      10.099   1.775  22.114  0.00  0.00    -0.003 C 
ENDBRANCH   9  11
ENDBRANCH   8   9
ENDBRANCH   7   8
ENDBRANCH   1   7
TORSDOF 5
ENDMDL
MODEL 5
REMARK VINA RESULT:      -3.7      2.649      3.053
REMARK  Name = 
REMARK  7 active torsions:
REMARK  status: ('A' for Active; 'I' for Inactive)
REMARK    1  A    between atoms: C_1  and  C_2
REMARK    2  A    between atoms: C_2  and  C_3
REMARK    3  A    between atoms: C_3  and  C_4
REMARK    4  A    between atoms: C_4  and  C_5
REMARK    5  A    between atoms: C_5  and  C_6
REMARK    6  A    between atoms: C_6  and  C_8
REMARK    7  A    between atoms: C_6  and  N_9
REMARK                            x       y       z     vdW  Elec       q    Type
REMARK                         _______ _______ _______ _____ _____    ______ ____
ROOT
ATOM      1  C   UNL     1       7.829  -1.976  22.500  0.00  0.00    +0.070 C 
ATOM      2  C   UNL     1       7.520  -1.429  23.893  0.00  0.00    +0.028 C 
ENDROOT
BRANCH   1   3
ATOM      3  N   UNL     1       7.599  -3.415  22.472  0.00  0.00    -0.315 N 
ATOM      4  H   UNL     1       8.258  -4.025  22.936  0.00  0.00    +0.149 HD
ATOM      5  C   UNL     1       6.455  -3.964  21.955  0.00  0.00    +0.325 C 
ATOM      6  O   UNL     1       5.528  -3.351  21.449  0.00  0.00    -0.280 OA
ENDBRANCH   1   3
BRANCH   1   7
ATOM      7  C   UNL     1       9.276  -1.649  22.089  0.00  0.00    +0.022 C 
BRANCH   7   8
ATOM      8  C   UNL     1       9.367  -0.310  21.349  0.00  0.00    +0.002 C 
BRANCH   8   9
ATOM      9  C   UNL     1      10.037   0.772  22.194  0.00  0.00    -0.000 C 
BRANCH   9  11
ATOM     10  C   UNL     1       7.816   1.845  21.651  0.00  0.00    +0.004 C 
ATOM     11  C   UNL     1       9.242   2.077  22.120  0.00  0.00    -0.003 C 
ENDBRANCH   9  11
ENDBRANCH   8   9
ENDBRANCH   7   8
ENDBRANCH   1   7
TORSDOF 5
ENDMDL
MODEL 6
REMARK VINA RESULT:      -3.6      1.659      2.434
REMARK  Name = 
REMARK  7 active torsions:
REMARK  status: ('A' for Active; 'I' for Inactive)
REMARK    1  A    between atoms: C_1  and  C_2
REMARK    2  A    between atoms: C_2  and  C_3
REMARK    3  A    between atoms: C_3  and  C_4
REMARK    4  A    between atoms: C_4  and  C_5
REMARK    5  A    between atoms: C_5  and  C_6
REMARK    6  A    between atoms: C_6  and  C_8
REMARK    7  A    between atoms: C_6  and  N_9
REMARK                            x       y       z     vdW  Elec       q    Type
REMARK                         _______ _______ _______ _____ _____    ______ ____
ROOT
ATOM      1  C   UNL     1       9.777  -0.564  23.324  0.00  0.00    +0.070 C 
ATOM      2  C   UNL     1      10.641   0.297  24.244  0.00  0.00    +0.028 C 
ENDROOT
BRANCH   1   3
ATOM      3  N   UNL     1      10.231  -1.948  23.371  0.00  0.00    -0.315 N 
ATOM      4  H   UNL     1      11.117  -2.186  22.946  0.00  0.00    +0.149 HD
ATOM      5  C   UNL     1       9.569  -2.913  24.084  0.00  0.00    +0.325 C 
ATOM      6  O   UNL     1       8.542  -2.755  24.725  0.00  0.00    -0.280 OA
ENDBRANCH   1   3
BRANCH   1   7
ATOM      7  C   UNL     1       9.809  -0.030  21.881  0.00  0.00    +0.022 C 
BRANCH   7   8
ATOM      8  C   UNL     1       9.720   1.499  21.839  0.00  0.00    +0.002 C 
BRANCH   8   9
ATOM      9  C   UNL     1       8.278   1.992  21.727  0.00  0.00    -0.000 C 
BRANCH   9  11
ATOM     10  C   UNL     1       7.222   4.227  22.249  0.00  0.00    +0.004 C 
ATOM     11  C   UNL     1       7.986   3.038  22.805  0.00  0.00    -0.003 C 
ENDBRANCH   9  11
ENDBRANCH   8   9
ENDBRANCH   7   8
ENDBRANCH   1   7
TORSDOF 5
ENDMDL
MODEL 7
REMARK VINA RESULT:      -3.6      3.150      5.012
REMARK  Name = 
REMARK  7 active torsions:
REMARK  status: ('A' for Active; 'I' for Inactive)
REMARK    1  A    between atoms: C_1  and  C_2
REMARK    2  A    between atoms: C_2  and  C_3
REMARK    3  A    between atoms: C_3  and  C_4
REMARK    4  A    between atoms: C_4  and  C_5
REMARK    5  A    between atoms: C_5  and  C_6
REMARK    6  A    between atoms: C_6  and  C_8
REMARK    7  A    between atoms: C_6  and  N_9
REMARK                            x       y       z     vdW  Elec       q    Type
REMARK                         _______ _______ _______ _____ _____    ______ ____
ROOT
ATOM      1  C   UNL     1       9.140   1.285  22.061  0.00  0.00    +0.070 C 
ATOM      2  C   UNL     1       7.866   1.837  21.422  0.00  0.00    +0.028 C 
ENDROOT
BRANCH   1   3
ATOM      3  N   UNL     1      10.223   2.251  21.919  0.00  0.00    -0.315 N 
ATOM      4  H   UNL     1      10.575   2.458  20.994  0.00  0.00    +0.149 HD
ATOM      5  C   UNL     1      10.691   2.988  22.975  0.00  0.00    +0.325 C 
ATOM      6  O   UNL     1      10.299   2.919  24.129  0.00  0.00    -0.280 OA
ENDBRANCH   1   3
BRANCH   1   7
ATOM      7  C   UNL     1       9.531  -0.064  21.432  0.00  0.00    +0.022 C 
BRANCH   7   8
ATOM      8  C   UNL     1       9.922  -1.094  22.498  0.00  0.00    +0.002 C 
BRANCH   8   9
ATOM      9  C   UNL     1       9.614  -0.606  23.914  0.00  0.00    -0.000 C 
BRANCH   9  11
ATOM     10  C   UNL     1       9.381  -3.115  24.098  0.00  0.00    +0.004 C 
ATOM     11  C   UNL     1       9.223  -1.782  24.811  0.00  0.00    -0.003 C 
ENDBRANCH   9  11
ENDBRANCH   8   9
ENDBRANCH   7   8
ENDBRANCH   1   7
TORSDOF 5
ENDMDL
MODEL 8
REMARK VINA RESULT:      -3.6      1.442      1.886
REMARK  Name = 
REMARK  7 active torsions:
REMARK  status: ('A' for Active; 'I' for Inactive)
REMARK    1  A    between atoms: C_1  and  C_2
REMARK    2  A    between atoms: C_2  and  C_3
REMARK    3  A    between atoms: C_3  and  C_4
REMARK    4  A    between atoms: C_4  and  C_5
REMARK    5  A    between atoms: C_5  and  C_6
REMARK    6  A    between atoms: C_6  and  C_8
REMARK    7  A    between atoms: C_6  and  N_9
REMARK                            x       y       z     vdW  Elec       q    Type
REMARK                         _______ _______ _______ _____ _____    ______ ____
ROOT
ATOM      1  C   UNL     1       9.176  -2.314  23.078  0.00  0.00    +0.070 C 
ATOM      2  C   UNL     1       7.766  -1.993  22.586  0.00  0.00    +0.028 C 
ENDROOT
BRANCH   1   3
ATOM      3  N   UNL     1       9.145  -2.615  24.504  0.00  0.00    -0.315 N 
ATOM      4  H   UNL     1       9.015  -1.857  25.161  0.00  0.00    +0.149 HD
ATOM      5  C   UNL     1       9.153  -3.899  24.983  0.00  0.00    +0.325 C 
ATOM      6  O   UNL     1       9.210  -4.916  24.310  0.00  0.00    -0.280 OA
ENDBRANCH   1   3
BRANCH   1   7
ATOM      7  C   UNL     1      10.138  -1.148  22.790  0.00  0.00    +0.022 C 
BRANCH   7   8
ATOM      8  C   UNL     1       9.694  -0.334  21.570  0.00  0.00    +0.002 C 
BRANCH   8   9
ATOM      9  C   UNL     1       9.702   1.170  21.843  0.00  0.00    -0.000 C 
BRANCH   9  11
ATOM     10  C   UNL     1       7.696   2.287  22.896  0.00  0.00    +0.004 C 
ATOM     11  C   UNL     1       8.312   1.763  21.610  0.00  0.00    -0.003 C 
ENDBRANCH   9  11
ENDBRANCH   8   9
ENDBRANCH   7   8
ENDBRANCH   1   7
TORSDOF 5
ENDMDL
MODEL 9
REMARK VINA RESULT:      -3.6      3.610      5.243
REMARK  Name = 
REMARK  7 active torsions:
REMARK  status: ('A' for Active; 'I' for Inactive)
REMARK    1  A    between atoms: C_1  and  C_2
REMARK    2  A    between atoms: C_2  and  C_3
REMARK    3  A    between atoms: C_3  and  C_4
REMARK    4  A    between atoms: C_4  and  C_5
REMARK    5  A    between atoms: C_5  and  C_6
REMARK    6  A    between atoms: C_6  and  C_8
REMARK    7  A    between atoms: C_6  and  N_9
REMARK                            x       y       z     vdW  Elec       q    Type
REMARK                         _______ _______ _______ _____ _____    ______ ____
ROOT
ATOM      1  C   UNL     1      10.430   2.132  23.727  0.00  0.00    +0.070 C 
ATOM      2  C   UNL     1      11.036   0.923  24.436  0.00  0.00    +0.028 C 
ENDROOT
BRANCH   1   3
ATOM      3  N   UNL     1       9.192   2.524  24.389  0.00  0.00    -0.315 N 
ATOM      4  H   UNL     1       8.616   1.809  24.812  0.00  0.00    +0.149 HD
ATOM      5  C   UNL     1       8.844   3.836  24.576  0.00  0.00    +0.325 C 
ATOM      6  O   UNL     1       9.483   4.809  24.206  0.00  0.00    -0.280 OA
ENDBRANCH   1   3
BRANCH   1   7
ATOM      7  C   UNL     1      10.178   1.829  22.239  0.00  0.00    +0.022 C 
BRANCH   7   8
ATOM      8  C   UNL     1       9.033   0.828  22.051  0.00  0.00    +0.002 C 
BRANCH   8   9
ATOM      9  C   UNL     1       9.499  -0.462  21.377  0.00  0.00    -0.000 C 
BRANCH   9  11
ATOM     10  C   UNL     1       9.602  -2.160  23.245  0.00  0.00    +0.004 C 
ATOM     11  C   UNL     1       8.832  -1.676  22.028  0.00  0.00    -0.003 C 
ENDBRANCH   9  11
ENDBRANCH   8   9
ENDBRANCH   7   8
ENDBRANCH   1   7
TORSDOF 5
ENDMDL
