MODEL 1
REMARK VINA RESULT:      -7.7      0.000      0.000
REMARK  Name = 
REMARK  5 active torsions:
REMARK  status: ('A' for Active; 'I' for Inactive)
REMARK    1  A    between atoms: O_1  and  C_2
REMARK    2  A    between atoms: C_6  and  C_9
REMARK    3  A    between atoms: C_6  and  C_22
REMARK    4  A    between atoms: N_12  and  C_13
REMARK    5  A    between atoms: C_13  and  C_14
REMARK                            x       y       z     vdW  Elec       q    Type
REMARK                         _______ _______ _______ _____ _____    ______ ____
ROOT
ATOM      1  C   UNL     1       9.333  -5.150  25.343  0.00  0.00    +0.179 C 
ATOM      2  C   UNL     1       8.579  -4.768  26.548  0.00  0.00    +0.094 C 
ATOM      3  C   UNL     1       7.206  -4.195  26.270  0.00  0.00    +0.030 C 
ATOM      4  C   UNL     1       6.673  -4.192  24.797  0.00  0.00    +0.077 C 
ATOM      5  C   UNL     1       7.766  -4.604  23.743  0.00  0.00    +0.250 C 
ATOM      6  O   UNL     1       7.534  -4.571  22.536  0.00  0.00    -0.273 OA
ATOM      7  N   UNL     1       8.991  -5.074  24.120  0.00  0.00    -0.149 NA
ENDROOT
BRANCH   4   8
ATOM      8  C   UNL     1       6.168  -2.709  24.441  0.00  0.00    +0.011 C 
ATOM      9  C   UNL     1       5.662  -1.922  25.679  0.00  0.00    +0.020 C 
ATOM     10  C   UNL     1       5.313  -0.466  25.356  0.00  0.00    +0.085 C 
ATOM     11  N   UNL     1       6.411   0.257  24.717  0.00  0.00    -0.298 NA
ATOM     12  C   UNL     1       6.747  -0.408  23.448  0.00  0.00    +0.085 C 
ATOM     13  C   UNL     1       7.179  -1.864  23.620  0.00  0.00    +0.020 C 
BRANCH  11  14
ATOM     14  C   UNL     1       7.556   0.413  25.640  0.00  0.00    +0.119 C 
BRANCH  14  15
ATOM     15  C   UNL     1       8.704   1.182  25.034  0.00  0.00    -0.033 A 
ATOM     16  C   UNL     1       9.932   0.546  24.795  0.00  0.00    +0.005 A 
ATOM     17  C   UNL     1      10.952   1.224  24.132  0.00  0.00    +0.000 A 
ATOM     18  C   UNL     1      10.762   2.538  23.713  0.00  0.00    +0.000 A 
ATOM     19  C   UNL     1       9.557   3.188  23.978  0.00  0.00    +0.000 A 
ATOM     20  C   UNL     1       8.535   2.517  24.644  0.00  0.00    +0.005 A 
ENDBRANCH  14  15
ENDBRANCH  11  14
ENDBRANCH   4   8
BRANCH   4  21
ATOM     21  C   UNL     1       5.450  -5.170  24.758  0.00  0.00    -0.032 A 
ATOM     22  C   UNL     1       4.423  -4.989  23.804  0.00  0.00    +0.004 A 
ATOM     23  C   UNL     1       3.315  -5.842  23.747  0.00  0.00    +0.000 A 
ATOM     24  C   UNL     1       3.209  -6.907  24.634  0.00  0.00    +0.000 A 
ATOM     25  C   UNL     1       4.206  -7.112  25.580  0.00  0.00    +0.000 A 
ATOM     26  C   UNL     1       5.309  -6.250  25.647  0.00  0.00    +0.004 A 
ENDBRANCH   4  21
BRANCH   1  27
ATOM     27  O   UNL     1      10.552  -5.638  25.600  0.00  0.00    -0.497 OA
ATOM     28  H   UNL     1      10.761  -5.435  26.529  0.00  0.00    +0.293 HD
ENDBRANCH   1  27
TORSDOF 5
ENDMDL
MODEL 2
REMARK VINA RESULT:      -7.7      2.386      3.489
REMARK  Name = 
REMARK  5 active torsions:
REMARK  status: ('A' for Active; 'I' for Inactive)
REMARK    1  A    between atoms: O_1  and  C_2
REMARK    2  A    between atoms: C_6  and  C_9
REMARK    3  A    between atoms: C_6  and  C_22
REMARK    4  A    between atoms: N_12  and  C_13
REMARK    5  A    between atoms: C_13  and  C_14
REMARK                            x       y       z     vdW  Elec       q    Type
REMARK                         _______ _______ _______ _____ _____    ______ ____
ROOT
ATOM      1  C   UNL     1       7.329  -5.324  27.291  0.00  0.00    +0.179 C 
ATOM      2  C   UNL     1       6.448  -4.164  27.077  0.00  0.00    +0.094 C 
ATOM      3  C   UNL     1       6.818  -3.311  25.883  0.00  0.00    +0.030 C 
ATOM      4  C   UNL     1       7.967  -3.795  24.935  0.00  0.00    +0.077 C 
ATOM      5  C   UNL     1       8.751  -5.038  25.499  0.00  0.00    +0.250 C 
ATOM      6  O   UNL     1       9.736  -5.489  24.917  0.00  0.00    -0.273 OA
ATOM      7  N   UNL     1       8.337  -5.706  26.616  0.00  0.00    -0.149 NA
ENDROOT
BRANCH   4   8
ATOM      8  C   UNL     1       9.012  -2.590  24.745  0.00  0.00    +0.011 C 
ATOM      9  C   UNL     1       9.330  -2.286  23.256  0.00  0.00    +0.020 C 
ATOM     10  C   UNL     1      10.217  -1.049  23.079  0.00  0.00    +0.085 C 
ATOM     11  N   UNL     1       9.675   0.142  23.729  0.00  0.00    -0.298 NA
ATOM     12  C   UNL     1       9.557  -0.113  25.173  0.00  0.00    +0.085 C 
ATOM     13  C   UNL     1       8.645  -1.291  25.511  0.00  0.00    +0.020 C 
BRANCH  11  14
ATOM     14  C   UNL     1       8.414   0.573  23.087  0.00  0.00    +0.119 C 
BRANCH  14  15
ATOM     15  C   UNL     1       8.288   2.073  22.980  0.00  0.00    -0.033 A 
ATOM     16  C   UNL     1       7.278   2.642  22.189  0.00  0.00    +0.005 A 
ATOM     17  C   UNL     1       7.090   4.022  22.182  0.00  0.00    +0.000 A 
ATOM     18  C   UNL     1       7.910   4.843  22.951  0.00  0.00    +0.000 A 
ATOM     19  C   UNL     1       8.938   4.288  23.713  0.00  0.00    +0.000 A 
ATOM     20  C   UNL     1       9.133   2.909  23.720  0.00  0.00    +0.005 A 
ENDBRANCH  14  15
ENDBRANCH  11  14
ENDBRANCH   4   8
BRANCH   4  21
ATOM     21  C   UNL     1       7.306  -4.120  23.553  0.00  0.00    -0.032 A 
ATOM     22  C   UNL     1       7.576  -5.347  22.905  0.00  0.00    +0.004 A 
ATOM     23  C   UNL     1       7.006  -5.664  21.667  0.00  0.00    +0.000 A 
ATOM     24  C   UNL     1       6.141  -4.770  21.048  0.00  0.00    +0.000 A 
ATOM     25  C   UNL     1       5.853  -3.558  21.665  0.00  0.00    +0.000 A 
ATOM     26  C   UNL     1       6.434  -3.233  22.897  0.00  0.00    +0.004 A 
ENDBRANCH   4  21
BRANCH   1  27
ATOM     27  O   UNL     1       7.005  -6.060  28.360  0.00  0.00    -0.497 OA
ATOM     28  H   UNL     1       6.034  -6.135  28.382  0.00  0.00    +0.293 HD
ENDBRANCH   1  27
TORSDOF 5
ENDMDL
MODEL 3
REMARK VINA RESULT:      -7.5      3.376      8.305
REMARK  Name = 
REMARK  5 active torsions:
REMARK  status: ('A' for Active; 'I' for Inactive)
REMARK    1  A    between atoms: O_1  and  C_2
REMARK    2  A    between atoms: C_6  and  C_9
REMARK    3  A    between atoms: C_6  and  C_22
REMARK    4  A    between atoms: N_12  and  C_13
REMARK    5  A    between atoms: C_13  and  C_14
REMARK                            x       y       z     vdW  Elec       q    Type
REMARK                         _______ _______ _______ _____ _____    ______ ____
ROOT
ATOM      1  C   UNL     1       5.450   2.344  23.683  0.00  0.00    +0.179 C 
ATOM      2  C   UNL     1       6.077   2.192  25.007  0.00  0.00    +0.094 C 
ATOM      3  C   UNL     1       7.565   1.919  24.965  0.00  0.00    +0.030 C 
ATOM      4  C   UNL     1       8.303   1.961  23.584  0.00  0.00    +0.077 C 
ATOM      5  C   UNL     1       7.320   2.075  22.361  0.00  0.00    +0.250 C 
ATOM      6  O   UNL     1       7.733   2.035  21.204  0.00  0.00    -0.273 OA
ATOM      7  N   UNL     1       5.981   2.285  22.529  0.00  0.00    -0.149 NA
ENDROOT
BRANCH   4   8
ATOM      8  C   UNL     1       9.153   0.608  23.419  0.00  0.00    +0.011 C 
ATOM      9  C   UNL     1       9.313  -0.179  24.748  0.00  0.00    +0.020 C 
ATOM     10  C   UNL     1      10.003  -1.533  24.556  0.00  0.00    +0.085 C 
ATOM     11  N   UNL     1       9.352  -2.371  23.552  0.00  0.00    -0.298 NA
ATOM     12  C   UNL     1       9.379  -1.674  22.257  0.00  0.00    +0.085 C 
ATOM     13  C   UNL     1       8.667  -0.323  22.276  0.00  0.00    +0.020 C 
BRANCH  11  14
ATOM     14  C   UNL     1       7.999  -2.776  23.992  0.00  0.00    +0.119 C 
BRANCH  14  15
ATOM     15  C   UNL     1       7.364  -3.802  23.086  0.00  0.00    -0.033 A 
ATOM     16  C   UNL     1       6.399  -3.413  22.144  0.00  0.00    +0.005 A 
ATOM     17  C   UNL     1       5.899  -4.340  21.233  0.00  0.00    +0.000 A 
ATOM     18  C   UNL     1       6.346  -5.658  21.260  0.00  0.00    +0.000 A 
ATOM     19  C   UNL     1       7.280  -6.060  22.215  0.00  0.00    +0.000 A 
ATOM     20  C   UNL     1       7.780  -5.139  23.131  0.00  0.00    +0.005 A 
ENDBRANCH  14  15
ENDBRANCH  11  14
ENDBRANCH   4   8
BRANCH   4  21
ATOM     21  C   UNL     1       9.287   3.179  23.636  0.00  0.00    -0.032 A 
ATOM     22  C   UNL     1      10.659   3.000  23.348  0.00  0.00    +0.004 A 
ATOM     23  C   UNL     1      11.564   4.066  23.391  0.00  0.00    +0.000 A 
ATOM     24  C   UNL     1      11.121   5.344  23.711  0.00  0.00    +0.000 A 
ATOM     25  C   UNL     1       9.776   5.551  23.995  0.00  0.00    +0.000 A 
ATOM     26  C   UNL     1       8.871   4.482  23.965  0.00  0.00    +0.004 A 
ENDBRANCH   4  21
BRANCH   1  27
ATOM     27  O   UNL     1       4.132   2.566  23.731  0.00  0.00    -0.497 OA
ATOM     28  H   UNL     1       3.942   3.332  23.160  0.00  0.00    +0.293 HD
ENDBRANCH   1  27
TORSDOF 5
ENDMDL
MODEL 4
REMARK VINA RESULT:      -7.3      2.253      3.440
REMARK  Name = 
REMARK  5 active torsions:
REMARK  status: ('A' for Active; 'I' for Inactive)
REMARK    1  A    between atoms: O_1  and  C_2
REMARK    2  A    between atoms: C_6  and  C_9
REMARK    3  A    between atoms: C_6  and  C_22
REMARK    4  A    between atoms: N_12  and  C_13
REMARK    5  A    between atoms: C_13  and  C_14
REMARK                            x       y       z     vdW  Elec       q    Type
REMARK                         _______ _______ _______ _____ _____    ______ ____
ROOT
ATOM      1  C   UNL     1       6.228  -5.224  21.385  0.00  0.00    +0.179 C 
ATOM      2  C   UNL     1       7.407  -5.906  21.944  0.00  0.00    +0.094 C 
ATOM      3  C   UNL     1       7.788  -5.453  23.336  0.00  0.00    +0.030 C 
ATOM      4  C   UNL     1       6.852  -4.445  24.086  0.00  0.00    +0.077 C 
ATOM      5  C   UNL     1       5.716  -3.857  23.169  0.00  0.00    +0.250 C 
ATOM      6  O   UNL     1       4.949  -2.989  23.581  0.00  0.00    -0.273 OA
ATOM      7  N   UNL     1       5.493  -4.326  21.906  0.00  0.00    -0.149 NA
ENDROOT
BRANCH   4   8
ATOM      8  C   UNL     1       7.746  -3.223  24.622  0.00  0.00    +0.011 C 
ATOM      9  C   UNL     1       8.887  -2.827  23.647  0.00  0.00    +0.020 C 
ATOM     10  C   UNL     1       9.646  -1.575  24.098  0.00  0.00    +0.085 C 
ATOM     11  N   UNL     1       8.771  -0.429  24.337  0.00  0.00    -0.298 NA
ATOM     12  C   UNL     1       7.814  -0.772  25.401  0.00  0.00    +0.085 C 
ATOM     13  C   UNL     1       6.934  -1.976  25.063  0.00  0.00    +0.020 C 
BRANCH  11  14
ATOM     14  C   UNL     1       8.139   0.031  23.081  0.00  0.00    +0.119 C 
BRANCH  14  15
ATOM     15  C   UNL     1       8.088   1.534  22.961  0.00  0.00    -0.033 A 
ATOM     16  C   UNL     1       7.115   2.145  22.155  0.00  0.00    +0.005 A 
ATOM     17  C   UNL     1       6.995   3.532  22.134  0.00  0.00    +0.000 A 
ATOM     18  C   UNL     1       7.848   4.319  22.905  0.00  0.00    +0.000 A 
ATOM     19  C   UNL     1       8.840   3.720  23.681  0.00  0.00    +0.000 A 
ATOM     20  C   UNL     1       8.966   2.334  23.702  0.00  0.00    +0.005 A 
ENDBRANCH  14  15
ENDBRANCH  11  14
ENDBRANCH   4   8
BRANCH   4  21
ATOM     21  C   UNL     1       6.251  -5.213  25.311  0.00  0.00    -0.032 A 
ATOM     22  C   UNL     1       6.824  -5.067  26.596  0.00  0.00    +0.004 A 
ATOM     23  C   UNL     1       6.313  -5.744  27.709  0.00  0.00    +0.000 A 
ATOM     24  C   UNL     1       5.209  -6.578  27.572  0.00  0.00    +0.000 A 
ATOM     25  C   UNL     1       4.623  -6.737  26.322  0.00  0.00    +0.000 A 
ATOM     26  C   UNL     1       5.141  -6.070  25.204  0.00  0.00    +0.004 A 
ENDBRANCH   4  21
BRANCH   1  27
ATOM     27  O   UNL     1       5.911  -5.619  20.146  0.00  0.00    -0.497 OA
ATOM     28  H   UNL     1       6.743  -5.753  19.658  0.00  0.00    +0.293 HD
ENDBRANCH   1  27
TORSDOF 5
ENDMDL
MODEL 5
REMARK VINA RESULT:      -7.1      1.769      2.736
REMARK  Name = 
REMARK  5 active torsions:
REMARK  status: ('A' for Active; 'I' for Inactive)
REMARK    1  A    between atoms: O_1  and  C_2
REMARK    2  A    between atoms: C_6  and  C_9
REMARK    3  A    between atoms: C_6  and  C_22
REMARK    4  A    between atoms: N_12  and  C_13
REMARK    5  A    between atoms: C_13  and  C_14
REMARK                            x       y       z     vdW  Elec       q    Type
REMARK                         _______ _______ _______ _____ _____    ______ ____
ROOT
ATOM      1  C   UNL     1       6.604  -5.791  27.917  0.00  0.00    +0.179 C 
ATOM      2  C   UNL     1       5.211  -5.858  27.444  0.00  0.00    +0.094 C 
ATOM      3  C   UNL     1       4.918  -4.989  26.241  0.00  0.00    +0.030 C 
ATOM      4  C   UNL     1       6.103  -4.238  25.544  0.00  0.00    +0.077 C 
ATOM      5  C   UNL     1       7.450  -4.323  26.353  0.00  0.00    +0.250 C 
ATOM      6  O   UNL     1       8.454  -3.717  25.986  0.00  0.00    -0.273 OA
ATOM      7  N   UNL     1       7.581  -5.119  27.454  0.00  0.00    -0.149 NA
ENDROOT
BRANCH   4   8
ATOM      8  C   UNL     1       5.706  -2.688  25.395  0.00  0.00    +0.011 C 
ATOM      9  C   UNL     1       5.739  -1.917  26.742  0.00  0.00    +0.020 C 
ATOM     10  C   UNL     1       5.496  -0.414  26.572  0.00  0.00    +0.085 C 
ATOM     11  N   UNL     1       6.407   0.209  25.615  0.00  0.00    -0.298 NA
ATOM     12  C   UNL     1       6.221  -0.420  24.298  0.00  0.00    +0.085 C 
ATOM     13  C   UNL     1       6.493  -1.924  24.297  0.00  0.00    +0.020 C 
BRANCH  11  14
ATOM     14  C   UNL     1       7.802   0.177  26.108  0.00  0.00    +0.119 C 
BRANCH  14  15
ATOM     15  C   UNL     1       8.761   0.932  25.220  0.00  0.00    -0.033 A 
ATOM     16  C   UNL     1       8.469   2.244  24.819  0.00  0.00    +0.005 A 
ATOM     17  C   UNL     1       9.405   2.979  24.096  0.00  0.00    +0.000 A 
ATOM     18  C   UNL     1      10.631   2.410  23.759  0.00  0.00    +0.000 A 
ATOM     19  C   UNL     1      10.914   1.094  24.124  0.00  0.00    +0.000 A 
ATOM     20  C   UNL     1       9.980   0.354  24.844  0.00  0.00    +0.005 A 
ENDBRANCH  14  15
ENDBRANCH  11  14
ENDBRANCH   4   8
BRANCH   4  21
ATOM     21  C   UNL     1       6.258  -4.864  24.117  0.00  0.00    -0.032 A 
ATOM     22  C   UNL     1       7.536  -5.218  23.628  0.00  0.00    +0.004 A 
ATOM     23  C   UNL     1       7.708  -5.774  22.355  0.00  0.00    +0.000 A 
ATOM     24  C   UNL     1       6.606  -6.003  21.540  0.00  0.00    +0.000 A 
ATOM     25  C   UNL     1       5.336  -5.669  21.996  0.00  0.00    +0.000 A 
ATOM     26  C   UNL     1       5.164  -5.100  23.265  0.00  0.00    +0.004 A 
ENDBRANCH   4  21
BRANCH   1  27
ATOM     27  O   UNL     1       6.848  -6.548  28.993  0.00  0.00    -0.497 OA
ATOM     28  H   UNL     1       6.561  -7.455  28.785  0.00  0.00    +0.293 HD
ENDBRANCH   1  27
TORSDOF 5
ENDMDL
MODEL 6
REMARK VINA RESULT:      -7.1      2.410      3.497
REMARK  Name = 
REMARK  5 active torsions:
REMARK  status: ('A' for Active; 'I' for Inactive)
REMARK    1  A    between atoms: O_1  and  C_2
REMARK    2  A    between atoms: C_6  and  C_9
REMARK    3  A    between atoms: C_6  and  C_22
REMARK    4  A    between atoms: N_12  and  C_13
REMARK    5  A    between atoms: C_13  and  C_14
REMARK                            x       y       z     vdW  Elec       q    Type
REMARK                         _______ _______ _______ _____ _____    ______ ____
ROOT
ATOM      1  C   UNL     1       4.523  -6.300  27.304  0.00  0.00    +0.179 C 
ATOM      2  C   UNL     1       3.671  -5.166  26.911  0.00  0.00    +0.094 C 
ATOM      3  C   UNL     1       4.413  -4.033  26.236  0.00  0.00    +0.030 C 
ATOM      4  C   UNL     1       5.931  -4.218  25.899  0.00  0.00    +0.077 C 
ATOM      5  C   UNL     1       6.548  -5.523  26.526  0.00  0.00    +0.250 C 
ATOM      6  O   UNL     1       7.748  -5.772  26.427  0.00  0.00    -0.273 OA
ATOM      7  N   UNL     1       5.775  -6.460  27.149  0.00  0.00    -0.149 NA
ENDROOT
BRANCH   4   8
ATOM      8  C   UNL     1       6.739  -2.955  26.475  0.00  0.00    +0.011 C 
ATOM      9  C   UNL     1       7.959  -2.560  25.601  0.00  0.00    +0.020 C 
ATOM     10  C   UNL     1       8.641  -1.274  26.079  0.00  0.00    +0.085 C 
ATOM     11  N   UNL     1       7.719  -0.146  26.193  0.00  0.00    -0.298 NA
ATOM     12  C   UNL     1       6.672  -0.480  27.171  0.00  0.00    +0.085 C 
ATOM     13  C   UNL     1       5.858  -1.717  26.792  0.00  0.00    +0.020 C 
BRANCH  11  14
ATOM     14  C   UNL     1       7.202   0.256  24.867  0.00  0.00    +0.119 C 
BRANCH  14  15
ATOM     15  C   UNL     1       8.286   0.719  23.924  0.00  0.00    -0.033 A 
ATOM     16  C   UNL     1       8.395   0.158  22.642  0.00  0.00    +0.005 A 
ATOM     17  C   UNL     1       9.320   0.665  21.734  0.00  0.00    +0.000 A 
ATOM     18  C   UNL     1      10.148   1.724  22.098  0.00  0.00    +0.000 A 
ATOM     19  C   UNL     1      10.070   2.264  23.381  0.00  0.00    +0.000 A 
ATOM     20  C   UNL     1       9.149   1.758  24.295  0.00  0.00    +0.005 A 
ENDBRANCH  14  15
ENDBRANCH  11  14
ENDBRANCH   4   8
BRANCH   4  21
ATOM     21  C   UNL     1       6.049  -4.230  24.337  0.00  0.00    -0.032 A 
ATOM     22  C   UNL     1       6.703  -5.297  23.679  0.00  0.00    +0.004 A 
ATOM     23  C   UNL     1       6.830  -5.333  22.286  0.00  0.00    +0.000 A 
ATOM     24  C   UNL     1       6.296  -4.311  21.510  0.00  0.00    +0.000 A 
ATOM     25  C   UNL     1       5.642  -3.251  22.130  0.00  0.00    +0.000 A 
ATOM     26  C   UNL     1       5.527  -3.207  23.525  0.00  0.00    +0.004 A 
ENDBRANCH   4  21
BRANCH   1  27
ATOM     27  O   UNL     1       3.860  -7.288  27.917  0.00  0.00    -0.497 OA
ATOM     28  H   UNL     1       3.135  -7.565  27.329  0.00  0.00    +0.293 HD
ENDBRANCH   1  27
TORSDOF 5
ENDMDL
MODEL 7
REMARK VINA RESULT:      -7.1      3.293      8.204
REMARK  Name = 
REMARK  5 active torsions:
REMARK  status: ('A' for Active; 'I' for Inactive)
REMARK    1  A    between atoms: O_1  and  C_2
REMARK    2  A    between atoms: C_6  and  C_9
REMARK    3  A    between atoms: C_6  and  C_22
REMARK    4  A    between atoms: N_12  and  C_13
REMARK    5  A    between atoms: C_13  and  C_14
REMARK                            x       y       z     vdW  Elec       q    Type
REMARK                         _______ _______ _______ _____ _____    ______ ____
ROOT
ATOM      1  C   UNL     1       5.554   2.348  23.615  0.00  0.00    +0.179 C 
ATOM      2  C   UNL     1       6.175   2.255  24.946  0.00  0.00    +0.094 C 
ATOM      3  C   UNL     1       7.676   2.062  24.923  0.00  0.00    +0.030 C 
ATOM      4  C   UNL     1       8.424   2.121  23.549  0.00  0.00    +0.077 C 
ATOM      5  C   UNL     1       7.449   2.159  22.315  0.00  0.00    +0.250 C 
ATOM      6  O   UNL     1       7.875   2.121  21.162  0.00  0.00    -0.273 OA
ATOM      7  N   UNL     1       6.099   2.298  22.466  0.00  0.00    -0.149 NA
ENDROOT
BRANCH   4   8
ATOM      8  C   UNL     1       9.348   0.814  23.416  0.00  0.00    +0.011 C 
ATOM      9  C   UNL     1       9.268  -0.120  24.654  0.00  0.00    +0.020 C 
ATOM     10  C   UNL     1      10.041  -1.428  24.462  0.00  0.00    +0.085 C 
ATOM     11  N   UNL     1       9.646  -2.156  23.258  0.00  0.00    -0.298 NA
ATOM     12  C   UNL     1       9.908  -1.313  22.082  0.00  0.00    +0.085 C 
ATOM     13  C   UNL     1       9.148   0.013  22.102  0.00  0.00    +0.020 C 
BRANCH  11  14
ATOM     14  C   UNL     1       8.251  -2.636  23.360  0.00  0.00    +0.119 C 
BRANCH  14  15
ATOM     15  C   UNL     1       8.021  -3.539  24.548  0.00  0.00    -0.033 A 
ATOM     16  C   UNL     1       8.770  -4.716  24.697  0.00  0.00    +0.005 A 
ATOM     17  C   UNL     1       8.638  -5.487  25.848  0.00  0.00    +0.000 A 
ATOM     18  C   UNL     1       7.754  -5.099  26.852  0.00  0.00    +0.000 A 
ATOM     19  C   UNL     1       6.980  -3.949  26.696  0.00  0.00    +0.000 A 
ATOM     20  C   UNL     1       7.106  -3.176  25.544  0.00  0.00    +0.005 A 
ENDBRANCH  14  15
ENDBRANCH  11  14
ENDBRANCH   4   8
BRANCH   4  21
ATOM     21  C   UNL     1       9.340   3.391  23.586  0.00  0.00    -0.032 A 
ATOM     22  C   UNL     1      10.735   3.271  23.393  0.00  0.00    +0.004 A 
ATOM     23  C   UNL     1      11.580   4.386  23.427  0.00  0.00    +0.000 A 
ATOM     24  C   UNL     1      11.053   5.654  23.644  0.00  0.00    +0.000 A 
ATOM     25  C   UNL     1       9.684   5.803  23.833  0.00  0.00    +0.000 A 
ATOM     26  C   UNL     1       8.838   4.686  23.813  0.00  0.00    +0.004 A 
ENDBRANCH   4  21
BRANCH   1  27
ATOM     27  O   UNL     1       4.225   2.499  23.647  0.00  0.00    -0.497 OA
ATOM     28  H   UNL     1       3.978   2.741  24.557  0.00  0.00    +0.293 HD
ENDBRANCH   1  27
TORSDOF 5
ENDMDL
MODEL 8
REMARK VINA RESULT:      -7.0      3.241      8.686
REMARK  Name = 
REMARK  5 active torsions:
REMARK  status: ('A' for Active; 'I' for Inactive)
REMARK    1  A    between atoms: O_1  and  C_2
REMARK    2  A    between atoms: C_6  and  C_9
REMARK    3  A    between atoms: C_6  and  C_22
REMARK    4  A    between atoms: N_12  and  C_13
REMARK    5  A    between atoms: C_13  and  C_14
REMARK                            x       y       z     vdW  Elec       q    Type
REMARK                         _______ _______ _______ _____ _____    ______ ____
ROOT
ATOM      1  C   UNL     1       6.015   3.827  22.576  0.00  0.00    +0.179 C 
ATOM      2  C   UNL     1       6.077   4.317  23.963  0.00  0.00    +0.094 C 
ATOM      3  C   UNL     1       7.325   3.909  24.715  0.00  0.00    +0.030 C 
ATOM      4  C   UNL     1       8.460   3.156  23.943  0.00  0.00    +0.077 C 
ATOM      5  C   UNL     1       8.037   2.722  22.490  0.00  0.00    +0.250 C 
ATOM      6  O   UNL     1       8.783   2.047  21.783  0.00  0.00    -0.273 OA
ATOM      7  N   UNL     1       6.858   3.126  21.931  0.00  0.00    -0.149 NA
ENDROOT
BRANCH   4   8
ATOM      8  C   UNL     1       8.846   1.833  24.767  0.00  0.00    +0.011 C 
ATOM      9  C   UNL     1       7.734   0.750  24.740  0.00  0.00    +0.020 C 
ATOM     10  C   UNL     1       8.162  -0.559  25.410  0.00  0.00    +0.085 C 
ATOM     11  N   UNL     1       9.405  -1.102  24.864  0.00  0.00    -0.298 NA
ATOM     12  C   UNL     1      10.485  -0.125  25.071  0.00  0.00    +0.085 C 
ATOM     13  C   UNL     1      10.225   1.223  24.401  0.00  0.00    +0.020 C 
BRANCH  11  14
ATOM     14  C   UNL     1       9.231  -1.520  23.456  0.00  0.00    +0.119 C 
BRANCH  14  15
ATOM     15  C   UNL     1       8.577  -2.874  23.317  0.00  0.00    -0.033 A 
ATOM     16  C   UNL     1       8.920  -3.917  24.192  0.00  0.00    +0.005 A 
ATOM     17  C   UNL     1       8.235  -5.128  24.136  0.00  0.00    +0.000 A 
ATOM     18  C   UNL     1       7.216  -5.313  23.206  0.00  0.00    +0.000 A 
ATOM     19  C   UNL     1       6.893  -4.293  22.311  0.00  0.00    +0.000 A 
ATOM     20  C   UNL     1       7.577  -3.082  22.359  0.00  0.00    +0.005 A 
ENDBRANCH  14  15
ENDBRANCH  11  14
ENDBRANCH   4   8
BRANCH   4  21
ATOM     21  C   UNL     1       9.698   4.115  23.910  0.00  0.00    -0.032 A 
ATOM     22  C   UNL     1       9.606   5.416  24.455  0.00  0.00    +0.004 A 
ATOM     23  C   UNL     1      10.692   6.299  24.436  0.00  0.00    +0.000 A 
ATOM     24  C   UNL     1      11.903   5.902  23.881  0.00  0.00    +0.000 A 
ATOM     25  C   UNL     1      12.024   4.627  23.341  0.00  0.00    +0.000 A 
ATOM     26  C   UNL     1      10.933   3.747  23.347  0.00  0.00    +0.004 A 
ENDBRANCH   4  21
BRANCH   1  27
ATOM     27  O   UNL     1       4.899   4.178  21.927  0.00  0.00    -0.497 OA
ATOM     28  H   UNL     1       4.601   5.030  22.293  0.00  0.00    +0.293 HD
ENDBRANCH   1  27
TORSDOF 5
ENDMDL
MODEL 9
REMARK VINA RESULT:      -6.9      2.718      3.667
REMARK  Name = 
REMARK  5 active torsions:
REMARK  status: ('A' for Active; 'I' for Inactive)
REMARK    1  A    between atoms: O_1  and  C_2
REMARK    2  A    between atoms: C_6  and  C_9
REMARK    3  A    between atoms: C_6  and  C_22
REMARK    4  A    between atoms: N_12  and  C_13
REMARK    5  A    between atoms: C_13  and  C_14
REMARK                            x       y       z     vdW  Elec       q    Type
REMARK                         _______ _______ _______ _____ _____    ______ ____
ROOT
ATOM      1  C   UNL     1       5.808  -6.124  27.609  0.00  0.00    +0.179 C 
ATOM      2  C   UNL     1       5.911  -4.656  27.563  0.00  0.00    +0.094 C 
ATOM      3  C   UNL     1       5.384  -4.033  26.289  0.00  0.00    +0.030 C 
ATOM      4  C   UNL     1       4.674  -4.951  25.237  0.00  0.00    +0.077 C 
ATOM      5  C   UNL     1       4.803  -6.484  25.566  0.00  0.00    +0.250 C 
ATOM      6  O   UNL     1       4.374  -7.341  24.796  0.00  0.00    -0.273 OA
ATOM      7  N   UNL     1       5.337  -6.927  26.742  0.00  0.00    -0.149 NA
ENDROOT
BRANCH   4   8
ATOM      8  C   UNL     1       5.342  -4.690  23.800  0.00  0.00    +0.011 C 
ATOM      9  C   UNL     1       5.336  -3.194  23.386  0.00  0.00    +0.020 C 
ATOM     10  C   UNL     1       6.097  -2.935  22.081  0.00  0.00    +0.085 C 
ATOM     11  N   UNL     1       7.467  -3.443  22.107  0.00  0.00    -0.298 NA
ATOM     12  C   UNL     1       7.433  -4.899  22.317  0.00  0.00    +0.085 C 
ATOM     13  C   UNL     1       6.754  -5.310  23.623  0.00  0.00    +0.020 C 
BRANCH  11  14
ATOM     14  C   UNL     1       8.290  -2.709  23.093  0.00  0.00    +0.119 C 
BRANCH  14  15
ATOM     15  C   UNL     1       8.447  -1.246  22.760  0.00  0.00    -0.033 A 
ATOM     16  C   UNL     1       9.268  -0.848  21.693  0.00  0.00    +0.005 A 
ATOM     17  C   UNL     1       9.323   0.491  21.315  0.00  0.00    +0.000 A 
ATOM     18  C   UNL     1       8.570   1.442  22.000  0.00  0.00    +0.000 A 
ATOM     19  C   UNL     1       7.779   1.060  23.083  0.00  0.00    +0.000 A 
ATOM     20  C   UNL     1       7.724  -0.277  23.468  0.00  0.00    +0.005 A 
ENDBRANCH  14  15
ENDBRANCH  11  14
ENDBRANCH   4   8
BRANCH   4  21
ATOM     21  C   UNL     1       3.173  -4.506  25.190  0.00  0.00    -0.032 A 
ATOM     22  C   UNL     1       2.310  -5.011  24.190  0.00  0.00    +0.004 A 
ATOM     23  C   UNL     1       0.966  -4.629  24.118  0.00  0.00    +0.000 A 
ATOM     24  C   UNL     1       0.443  -3.740  25.050  0.00  0.00    +0.000 A 
ATOM     25  C   UNL     1       1.267  -3.230  26.047  0.00  0.00    +0.000 A 
ATOM     26  C   UNL     1       2.616  -3.602  26.112  0.00  0.00    +0.004 A 
ENDBRANCH   4  21
BRANCH   1  27
ATOM     27  O   UNL     1       6.295  -6.666  28.732  0.00  0.00    -0.497 OA
ATOM     28  H   UNL     1       7.056  -7.221  28.485  0.00  0.00    +0.293 HD
ENDBRANCH   1  27
TORSDOF 5
ENDMDL
