MODEL 1
REMARK VINA RESULT:      -3.8      0.000      0.000
REMARK  Name = 
REMARK  7 active torsions:
REMARK  status: ('A' for Active; 'I' for Inactive)
REMARK    1  A    between atoms: O_1  and  C_2
REMARK    2  A    between atoms: C_2  and  C_3
REMARK    3  A    between atoms: C_2  and  C_7
REMARK    4  A    between atoms: C_3  and  C_4
REMARK    5  A    between atoms: C_4  and  O_5
REMARK    6  A    between atoms: C_7  and  C_8
REMARK    7  A    between atoms: C_8  and  O_9
REMARK                            x       y       z     vdW  Elec       q    Type
REMARK                         _______ _______ _______ _____ _____    ______ ____
ROOT
ATOM      1  C   UNL     1       9.677   0.486  24.289  0.00  0.00    +0.136 C 
ENDROOT
BRANCH   1   2
ATOM      2  O   UNL     1      11.089   0.333  24.061  0.00  0.00    -0.391 OA
ATOM      3  H   UNL     1      11.343   0.932  23.320  0.00  0.00    +0.210 HD
ENDBRANCH   1   2
BRANCH   1   4
ATOM      4  C   UNL     1       8.991  -0.645  23.527  0.00  0.00    +0.152 C 
BRANCH   4   5
ATOM      5  C   UNL     1       9.913  -1.355  22.565  0.00  0.00    +0.307 C 
ATOM      6  O   UNL     1      10.502  -2.387  22.849  0.00  0.00    -0.251 OA
BRANCH   5   7
ATOM      7  O   UNL     1       9.979  -0.798  21.336  0.00  0.00    -0.481 OA
ATOM      8  H   UNL     1      10.882  -0.455  21.127  0.00  0.00    +0.295 HD
ENDBRANCH   5   7
ENDBRANCH   4   5
ENDBRANCH   1   4
BRANCH   1   9
ATOM      9  C   UNL     1       9.178   1.845  23.794  0.00  0.00    +0.152 C 
BRANCH   9  10
ATOM     10  C   UNL     1      10.232   2.493  22.938  0.00  0.00    +0.307 C 
ATOM     11  O   UNL     1      11.054   3.274  23.393  0.00  0.00    -0.251 OA
BRANCH  10  12
ATOM     12  O   UNL     1      10.191   2.156  21.635  0.00  0.00    -0.481 OA
ATOM     13  H   UNL     1       9.312   2.197  21.211  0.00  0.00    +0.295 HD
ENDBRANCH  10  12
ENDBRANCH   9  10
ENDBRANCH   1   9
TORSDOF 7
ENDMDL
MODEL 2
REMARK VINA RESULT:      -3.7      1.383      3.844
REMARK  Name = 
REMARK  7 active torsions:
REMARK  status: ('A' for Active; 'I' for Inactive)
REMARK    1  A    between atoms: O_1  and  C_2
REMARK    2  A    between atoms: C_2  and  C_3
REMARK    3  A    between atoms: C_2  and  C_7
REMARK    4  A    between atoms: C_3  and  C_4
REMARK    5  A    between atoms: C_4  and  O_5
REMARK    6  A    between atoms: C_7  and  C_8
REMARK    7  A    between atoms: C_8  and  O_9
REMARK                            x       y       z     vdW  Elec       q    Type
REMARK                         _______ _______ _______ _____ _____    ______ ____
ROOT
ATOM      1  C   UNL     1       9.572   0.100  24.026  0.00  0.00    +0.136 C 
ENDROOT
BRANCH   1   2
ATOM      2  O   UNL     1       8.337   0.529  23.428  0.00  0.00    -0.391 OA
ATOM      3  H   UNL     1       7.647   0.541  24.133  0.00  0.00    +0.210 HD
ENDBRANCH   1   2
BRANCH   1   4
ATOM      4  C   UNL     1      10.560   1.251  23.847  0.00  0.00    +0.152 C 
BRANCH   4   5
ATOM      5  C   UNL     1      10.036   2.347  22.951  0.00  0.00    +0.307 C 
ATOM      6  O   UNL     1       9.574   3.392  23.383  0.00  0.00    -0.251 OA
BRANCH   5   7
ATOM      7  O   UNL     1      10.187   2.113  21.629  0.00  0.00    -0.481 OA
ATOM      8  H   UNL     1      10.025   1.166  21.395  0.00  0.00    +0.295 HD
ENDBRANCH   5   7
ENDBRANCH   4   5
ENDBRANCH   1   4
BRANCH   1   9
ATOM      9  C   UNL     1      10.103  -1.169  23.356  0.00  0.00    +0.152 C 
BRANCH   9  10
ATOM     10  C   UNL     1       9.295  -1.469  22.123  0.00  0.00    +0.307 C 
ATOM     11  O   UNL     1       8.392  -2.292  22.118  0.00  0.00    -0.251 OA
BRANCH  10  12
ATOM     12  O   UNL     1       9.652  -0.773  21.027  0.00  0.00    -0.481 OA
ATOM     13  H   UNL     1      10.584  -0.482  20.991  0.00  0.00    +0.295 HD
ENDBRANCH  10  12
ENDBRANCH   9  10
ENDBRANCH   1   9
TORSDOF 7
ENDMDL
MODEL 3
REMARK VINA RESULT:      -3.7      6.026      7.375
REMARK  Name = 
REMARK  7 active torsions:
REMARK  status: ('A' for Active; 'I' for Inactive)
REMARK    1  A    between atoms: O_1  and  C_2
REMARK    2  A    between atoms: C_2  and  C_3
REMARK    3  A    between atoms: C_2  and  C_7
REMARK    4  A    between atoms: C_3  and  C_4
REMARK    5  A    between atoms: C_4  and  O_5
REMARK    6  A    between atoms: C_7  and  C_8
REMARK    7  A    between atoms: C_8  and  O_9
REMARK                            x       y       z     vdW  Elec       q    Type
REMARK                         _______ _______ _______ _____ _____    ______ ____
ROOT
ATOM      1  C   UNL     1       7.817  -4.700  26.933  0.00  0.00    +0.136 C 
ENDROOT
BRANCH   1   2
ATOM      2  O   UNL     1       8.190  -6.089  26.933  0.00  0.00    -0.391 OA
ATOM      3  H   UNL     1       8.473  -6.326  27.847  0.00  0.00    +0.210 HD
ENDBRANCH   1   2
BRANCH   1   4
ATOM      4  C   UNL     1       6.308  -4.659  26.699  0.00  0.00    +0.152 C 
BRANCH   4   5
ATOM      5  C   UNL     1       5.762  -5.945  26.127  0.00  0.00    +0.307 C 
ATOM      6  O   UNL     1       5.325  -6.848  26.824  0.00  0.00    -0.251 OA
BRANCH   5   7
ATOM      7  O   UNL     1       5.727  -5.990  24.778  0.00  0.00    -0.481 OA
ATOM      8  H   UNL     1       6.111  -6.827  24.420  0.00  0.00    +0.295 HD
ENDBRANCH   5   7
ENDBRANCH   4   5
ENDBRANCH   1   4
BRANCH   1   9
ATOM      9  C   UNL     1       8.549  -3.928  25.834  0.00  0.00    +0.152 C 
BRANCH   9  10
ATOM     10  C   UNL     1       9.161  -4.893  24.855  0.00  0.00    +0.307 C 
ATOM     11  O   UNL     1       8.540  -5.336  23.900  0.00  0.00    -0.251 OA
BRANCH  10  12
ATOM     12  O   UNL     1      10.434  -5.239  25.119  0.00  0.00    -0.481 OA
ATOM     13  H   UNL     1      11.030  -5.300  24.348  0.00  0.00    +0.295 HD
ENDBRANCH  10  12
ENDBRANCH   9  10
ENDBRANCH   1   9
TORSDOF 7
ENDMDL
MODEL 4
REMARK VINA RESULT:      -3.7      4.015      6.222
REMARK  Name = 
REMARK  7 active torsions:
REMARK  status: ('A' for Active; 'I' for Inactive)
REMARK    1  A    between atoms: O_1  and  C_2
REMARK    2  A    between atoms: C_2  and  C_3
REMARK    3  A    between atoms: C_2  and  C_7
REMARK    4  A    between atoms: C_3  and  C_4
REMARK    5  A    between atoms: C_4  and  O_5
REMARK    6  A    between atoms: C_7  and  C_8
REMARK    7  A    between atoms: C_8  and  O_9
REMARK                            x       y       z     vdW  Elec       q    Type
REMARK                         _______ _______ _______ _____ _____    ______ ____
ROOT
ATOM      1  C   UNL     1       8.292  -4.866  24.115  0.00  0.00    +0.136 C 
ENDROOT
BRANCH   1   2
ATOM      2  O   UNL     1       9.625  -5.030  24.629  0.00  0.00    -0.391 OA
ATOM      3  H   UNL     1      10.053  -5.765  24.131  0.00  0.00    +0.210 HD
ENDBRANCH   1   2
BRANCH   1   4
ATOM      4  C   UNL     1       8.251  -3.491  23.452  0.00  0.00    +0.152 C 
BRANCH   4   5
ATOM      5  C   UNL     1       9.442  -2.631  23.797  0.00  0.00    +0.307 C 
ATOM      6  O   UNL     1      10.418  -2.527  23.071  0.00  0.00    -0.251 OA
BRANCH   5   7
ATOM      7  O   UNL     1       9.312  -1.926  24.942  0.00  0.00    -0.481 OA
ATOM      8  H   UNL     1       9.259  -2.509  25.738  0.00  0.00    +0.295 HD
ENDBRANCH   5   7
ENDBRANCH   4   5
ENDBRANCH   1   4
BRANCH   1   9
ATOM      9  C   UNL     1       7.250  -4.952  25.232  0.00  0.00    +0.152 C 
BRANCH   9  10
ATOM     10  C   UNL     1       7.933  -4.872  26.571  0.00  0.00    +0.307 C 
ATOM     11  O   UNL     1       8.360  -3.820  27.024  0.00  0.00    -0.251 OA
BRANCH  10  12
ATOM     12  O   UNL     1       8.048  -6.046  27.220  0.00  0.00    -0.481 OA
ATOM     13  H   UNL     1       7.297  -6.663  27.124  0.00  0.00    +0.295 HD
ENDBRANCH  10  12
ENDBRANCH   9  10
ENDBRANCH   1   9
TORSDOF 7
ENDMDL
MODEL 5
REMARK VINA RESULT:      -3.7      1.880      2.547
REMARK  Name = 
REMARK  7 active torsions:
REMARK  status: ('A' for Active; 'I' for Inactive)
REMARK    1  A    between atoms: O_1  and  C_2
REMARK    2  A    between atoms: C_2  and  C_3
REMARK    3  A    between atoms: C_2  and  C_7
REMARK    4  A    between atoms: C_3  and  C_4
REMARK    5  A    between atoms: C_4  and  O_5
REMARK    6  A    between atoms: C_7  and  C_8
REMARK    7  A    between atoms: C_8  and  O_9
REMARK                            x       y       z     vdW  Elec       q    Type
REMARK                         _______ _______ _______ _____ _____    ______ ____
ROOT
ATOM      1  C   UNL     1      10.217  -1.084  22.434  0.00  0.00    +0.136 C 
ENDROOT
BRANCH   1   2
ATOM      2  O   UNL     1       9.594  -1.030  21.140  0.00  0.00    -0.391 OA
ATOM      3  H   UNL     1      10.025  -0.307  20.626  0.00  0.00    +0.210 HD
ENDBRANCH   1   2
BRANCH   1   4
ATOM      4  C   UNL     1       9.363  -2.022  23.285  0.00  0.00    +0.152 C 
BRANCH   4   5
ATOM      5  C   UNL     1       8.008  -2.300  22.681  0.00  0.00    +0.307 C 
ATOM      6  O   UNL     1       7.723  -3.363  22.152  0.00  0.00    -0.251 OA
BRANCH   5   7
ATOM      7  O   UNL     1       7.108  -1.305  22.838  0.00  0.00    -0.481 OA
ATOM      8  H   UNL     1       6.294  -1.606  23.311  0.00  0.00    +0.295 HD
ENDBRANCH   5   7
ENDBRANCH   4   5
ENDBRANCH   1   4
BRANCH   1   9
ATOM      9  C   UNL     1      10.290   0.302  23.076  0.00  0.00    +0.152 C 
BRANCH   9  10
ATOM     10  C   UNL     1       9.478   1.279  22.270  0.00  0.00    +0.307 C 
ATOM     11  O   UNL     1       8.257   1.303  22.311  0.00  0.00    -0.251 OA
BRANCH  10  12
ATOM     12  O   UNL     1      10.197   2.110  21.493  0.00  0.00    -0.481 OA
ATOM     13  H   UNL     1      11.120   2.265  21.771  0.00  0.00    +0.295 HD
ENDBRANCH  10  12
ENDBRANCH   9  10
ENDBRANCH   1   9
TORSDOF 7
ENDMDL
MODEL 6
REMARK VINA RESULT:      -3.5      3.199      4.609
REMARK  Name = 
REMARK  7 active torsions:
REMARK  status: ('A' for Active; 'I' for Inactive)
REMARK    1  A    between atoms: O_1  and  C_2
REMARK    2  A    between atoms: C_2  and  C_3
REMARK    3  A    between atoms: C_2  and  C_7
REMARK    4  A    between atoms: C_3  and  C_4
REMARK    5  A    between atoms: C_4  and  O_5
REMARK    6  A    between atoms: C_7  and  C_8
REMARK    7  A    between atoms: C_8  and  O_9
REMARK                            x       y       z     vdW  Elec       q    Type
REMARK                         _______ _______ _______ _____ _____    ______ ____
ROOT
ATOM      1  C   UNL     1       8.747  -3.213  23.899  0.00  0.00    +0.136 C 
ENDROOT
BRANCH   1   2
ATOM      2  O   UNL     1      10.182  -3.137  23.939  0.00  0.00    -0.391 OA
ATOM      3  H   UNL     1      10.439  -2.191  23.835  0.00  0.00    +0.210 HD
ENDBRANCH   1   2
BRANCH   1   4
ATOM      4  C   UNL     1       8.385  -4.674  24.157  0.00  0.00    +0.152 C 
BRANCH   4   5
ATOM      5  C   UNL     1       8.973  -5.212  25.439  0.00  0.00    +0.307 C 
ATOM      6  O   UNL     1       8.340  -5.281  26.482  0.00  0.00    -0.251 OA
BRANCH   5   7
ATOM      7  O   UNL     1      10.234  -5.682  25.325  0.00  0.00    -0.481 OA
ATOM      8  H   UNL     1      10.446  -6.358  26.014  0.00  0.00    +0.295 HD
ENDBRANCH   5   7
ENDBRANCH   4   5
ENDBRANCH   1   4
BRANCH   1   9
ATOM      9  C   UNL     1       8.204  -2.759  22.543  0.00  0.00    +0.152 C 
BRANCH   9  10
ATOM     10  C   UNL     1       8.873  -1.477  22.130  0.00  0.00    +0.307 C 
ATOM     11  O   UNL     1       8.399  -0.380  22.387  0.00  0.00    -0.251 OA
BRANCH  10  12
ATOM     12  O   UNL     1      10.023  -1.631  21.447  0.00  0.00    -0.481 OA
ATOM     13  H   UNL     1      10.693  -2.207  21.863  0.00  0.00    +0.295 HD
ENDBRANCH  10  12
ENDBRANCH   9  10
ENDBRANCH   1   9
TORSDOF 7
ENDMDL
MODEL 7
REMARK VINA RESULT:      -3.4      6.242      7.415
REMARK  Name = 
REMARK  7 active torsions:
REMARK  status: ('A' for Active; 'I' for Inactive)
REMARK    1  A    between atoms: O_1  and  C_2
REMARK    2  A    between atoms: C_2  and  C_3
REMARK    3  A    between atoms: C_2  and  C_7
REMARK    4  A    between atoms: C_3  and  C_4
REMARK    5  A    between atoms: C_4  and  O_5
REMARK    6  A    between atoms: C_7  and  C_8
REMARK    7  A    between atoms: C_8  and  O_9
REMARK                            x       y       z     vdW  Elec       q    Type
REMARK                         _______ _______ _______ _____ _____    ______ ____
ROOT
ATOM      1  C   UNL     1       7.841  -4.312  23.933  0.00  0.00    +0.136 C 
ENDROOT
BRANCH   1   2
ATOM      2  O   UNL     1       8.528  -5.574  23.878  0.00  0.00    -0.391 OA
ATOM      3  H   UNL     1       8.920  -5.745  24.766  0.00  0.00    +0.210 HD
ENDBRANCH   1   2
BRANCH   1   4
ATOM      4  C   UNL     1       7.376  -4.137  25.377  0.00  0.00    +0.152 C 
BRANCH   4   5
ATOM      5  C   UNL     1       7.222  -5.445  26.113  0.00  0.00    +0.307 C 
ATOM      6  O   UNL     1       6.247  -6.169  25.984  0.00  0.00    -0.251 OA
BRANCH   5   7
ATOM      7  O   UNL     1       8.285  -5.791  26.873  0.00  0.00    -0.481 OA
ATOM      8  H   UNL     1       8.748  -5.004  27.250  0.00  0.00    +0.295 HD
ENDBRANCH   5   7
ENDBRANCH   4   5
ENDBRANCH   1   4
BRANCH   1   9
ATOM      9  C   UNL     1       6.645  -4.288  22.980  0.00  0.00    +0.152 C 
BRANCH   9  10
ATOM     10  C   UNL     1       6.502  -5.628  22.310  0.00  0.00    +0.307 C 
ATOM     11  O   UNL     1       7.067  -5.896  21.260  0.00  0.00    -0.251 OA
BRANCH  10  12
ATOM     12  O   UNL     1       5.696  -6.498  22.946  0.00  0.00    -0.481 OA
ATOM     13  H   UNL     1       6.004  -7.424  22.974  0.00  0.00    +0.295 HD
ENDBRANCH  10  12
ENDBRANCH   9  10
ENDBRANCH   1   9
TORSDOF 7
ENDMDL
MODEL 8
REMARK VINA RESULT:      -3.4      1.630      2.109
REMARK  Name = 
REMARK  7 active torsions:
REMARK  status: ('A' for Active; 'I' for Inactive)
REMARK    1  A    between atoms: O_1  and  C_2
REMARK    2  A    between atoms: C_2  and  C_3
REMARK    3  A    between atoms: C_2  and  C_7
REMARK    4  A    between atoms: C_3  and  C_4
REMARK    5  A    between atoms: C_4  and  O_5
REMARK    6  A    between atoms: C_7  and  C_8
REMARK    7  A    between atoms: C_8  and  O_9
REMARK                            x       y       z     vdW  Elec       q    Type
REMARK                         _______ _______ _______ _____ _____    ______ ____
ROOT
ATOM      1  C   UNL     1       8.930   0.815  21.842  0.00  0.00    +0.136 C 
ENDROOT
BRANCH   1   2
ATOM      2  O   UNL     1       8.172   0.481  23.018  0.00  0.00    -0.391 OA
ATOM      3  H   UNL     1       8.799   0.133  23.694  0.00  0.00    +0.210 HD
ENDBRANCH   1   2
BRANCH   1   4
ATOM      4  C   UNL     1       9.490  -0.500  21.303  0.00  0.00    +0.152 C 
BRANCH   4   5
ATOM      5  C   UNL     1       9.427  -1.626  22.306  0.00  0.00    +0.307 C 
ATOM      6  O   UNL     1      10.248  -1.765  23.200  0.00  0.00    -0.251 OA
BRANCH   5   7
ATOM      7  O   UNL     1       8.348  -2.429  22.182  0.00  0.00    -0.481 OA
ATOM      8  H   UNL     1       8.567  -3.287  21.742  0.00  0.00    +0.295 HD
ENDBRANCH   5   7
ENDBRANCH   4   5
ENDBRANCH   1   4
BRANCH   1   9
ATOM      9  C   UNL     1      10.065   1.786  22.169  0.00  0.00    +0.152 C 
BRANCH   9  10
ATOM     10  C   UNL     1      10.210   1.915  23.661  0.00  0.00    +0.307 C 
ATOM     11  O   UNL     1       9.672   2.811  24.295  0.00  0.00    -0.251 OA
BRANCH  10  12
ATOM     12  O   UNL     1      10.986   0.979  24.239  0.00  0.00    -0.481 OA
ATOM     13  H   UNL     1      10.912   0.077  23.873  0.00  0.00    +0.295 HD
ENDBRANCH  10  12
ENDBRANCH   9  10
ENDBRANCH   1   9
TORSDOF 7
ENDMDL
MODEL 9
REMARK VINA RESULT:      -3.4      3.048      5.416
REMARK  Name = 
REMARK  7 active torsions:
REMARK  status: ('A' for Active; 'I' for Inactive)
REMARK    1  A    between atoms: O_1  and  C_2
REMARK    2  A    between atoms: C_2  and  C_3
REMARK    3  A    between atoms: C_2  and  C_7
REMARK    4  A    between atoms: C_3  and  C_4
REMARK    5  A    between atoms: C_4  and  O_5
REMARK    6  A    between atoms: C_7  and  C_8
REMARK    7  A    between atoms: C_8  and  O_9
REMARK                            x       y       z     vdW  Elec       q    Type
REMARK                         _______ _______ _______ _____ _____    ______ ____
ROOT
ATOM      1  C   UNL     1       8.573  -2.943  24.112  0.00  0.00    +0.136 C 
ENDROOT
BRANCH   1   2
ATOM      2  O   UNL     1       7.736  -2.571  23.004  0.00  0.00    -0.391 OA
ATOM      3  H   UNL     1       8.281  -2.619  22.183  0.00  0.00    +0.210 HD
ENDBRANCH   1   2
BRANCH   1   4
ATOM      4  C   UNL     1       9.975  -2.432  23.784  0.00  0.00    +0.152 C 
BRANCH   4   5
ATOM      5  C   UNL     1       9.974  -1.290  22.797  0.00  0.00    +0.307 C 
ATOM      6  O   UNL     1       9.797  -0.128  23.127  0.00  0.00    -0.251 OA
BRANCH   5   7
ATOM      7  O   UNL     1      10.256  -1.647  21.525  0.00  0.00    -0.481 OA
ATOM      8  H   UNL     1       9.517  -1.438  20.903  0.00  0.00    +0.295 HD
ENDBRANCH   5   7
ENDBRANCH   4   5
ENDBRANCH   1   4
BRANCH   1   9
ATOM      9  C   UNL     1       8.590  -4.459  24.313  0.00  0.00    +0.152 C 
BRANCH   9  10
ATOM     10  C   UNL     1       9.346  -4.797  25.569  0.00  0.00    +0.307 C 
ATOM     11  O   UNL     1       9.003  -4.387  26.668  0.00  0.00    -0.251 OA
BRANCH  10  12
ATOM     12  O   UNL     1      10.431  -5.573  25.388  0.00  0.00    -0.481 OA
ATOM     13  H   UNL     1      10.940  -5.411  24.569  0.00  0.00    +0.295 HD
ENDBRANCH  10  12
ENDBRANCH   9  10
ENDBRANCH   1   9
TORSDOF 7
ENDMDL
