MODEL 1
REMARK VINA RESULT:      -6.9      0.000      0.000
REMARK  Name = 
REMARK  27 active torsions:
REMARK  status: ('A' for Active; 'I' for Inactive)
REMARK    1  A    between atoms: N_1  and  C_2
REMARK    2  A    between atoms: C_2  and  C_3
REMARK    3  A    between atoms: C_6  and  O_8
REMARK    4  A    between atoms: O_8  and  C_9
REMARK    5  A    between atoms: C_11  and  C_13
REMARK    6  A    between atoms: C_13  and  O_14
REMARK    7  A    between atoms: C_16  and  O_18
REMARK    8  A    between atoms: O_18  and  C_19
REMARK    9  A    between atoms: C_21  and  O_23
REMARK   10  A    between atoms: C_24  and  N_26
REMARK   11  A    between atoms: C_28  and  N_30
REMARK   12  A    between atoms: C_31  and  O_33
REMARK   13  A    between atoms: O_33  and  C_34
REMARK   14  A    between atoms: C_37  and  C_39
REMARK   15  A    between atoms: C_39  and  O_40
REMARK   16  A    between atoms: C_41  and  O_43
REMARK   17  A    between atoms: C_45  and  N_47
REMARK   18  A    between atoms: C_48  and  O_50
REMARK   19  A    between atoms: C_51  and  N_53
REMARK   20  A    between atoms: C_54  and  O_56
REMARK   21  A    between atoms: C_57  and  O_59
REMARK   22  A    between atoms: O_59  and  C_60
REMARK   23  A    between atoms: C_63  and  C_65
REMARK   24  A    between atoms: C_65  and  O_66
REMARK   25  A    between atoms: C_67  and  O_69
REMARK   26  A    between atoms: C_70  and  O_72
REMARK   27  A    between atoms: C_73  and  O_75
REMARK                            x       y       z     vdW  Elec       q    Type
REMARK                         _______ _______ _______ _____ _____    ______ ____
ROOT
ATOM      1  C   UNL     1       7.323  -0.475  22.668  0.00  0.00    +0.186 C 
ATOM      2  C   UNL     1       7.183   0.909  23.277  0.00  0.00    +0.202 C 
ATOM      3  C   UNL     1       8.050   0.818  24.550  0.00  0.00    +0.282 C 
ATOM      4  O   UNL     1       9.046  -0.173  24.329  0.00  0.00    -0.341 OA
ATOM      5  C   UNL     1       8.733  -0.869  23.116  0.00  0.00    +0.178 C 
ENDROOT
BRANCH   2   6
ATOM      6  O   UNL     1       5.832   1.323  23.461  0.00  0.00    -0.384 OA
ATOM      7  H   UNL     1       5.387   0.611  23.961  0.00  0.00    +0.210 HD
ENDBRANCH   2   6
BRANCH   3   8
ATOM      8  O   UNL     1       8.655   2.092  24.751  0.00  0.00    -0.340 OA
BRANCH   8   9
ATOM      9  C   UNL     1       7.882   3.290  24.547  0.00  0.00    +0.182 C 
ATOM     10  C   UNL     1       7.617   4.174  25.803  0.00  0.00    +0.169 C 
ATOM     11  C   UNL     1       6.686   5.379  25.413  0.00  0.00    +0.084 C 
ATOM     12  C   UNL     1       7.135   6.147  24.155  0.00  0.00    +0.042 C 
ATOM     13  C   UNL     1       7.418   5.214  22.980  0.00  0.00    +0.084 C 
ATOM     14  C   UNL     1       8.449   4.160  23.406  0.00  0.00    +0.163 C 
BRANCH  13  15
ATOM     15  N   UNL     1       7.875   5.988  21.813  0.00  0.00    -0.325 NA
ATOM     16  H   UNL     1       8.118   5.333  21.065  0.00  0.00    +0.119 HD
ATOM     17  H   UNL     1       7.052   6.456  21.421  0.00  0.00    +0.119 HD
ENDBRANCH  13  15
BRANCH  11  18
ATOM     18  N   UNL     1       6.548   6.346  26.521  0.00  0.00    -0.325 NA
ATOM     19  H   UNL     1       6.015   7.157  26.206  0.00  0.00    +0.119 HD
ATOM     20  H   UNL     1       5.985   5.924  27.263  0.00  0.00    +0.119 HD
ENDBRANCH  11  18
BRANCH  14  21
ATOM     21  O   UNL     1       8.795   3.353  22.277  0.00  0.00    -0.388 OA
ATOM     22  H   UNL     1       8.985   4.012  21.580  0.00  0.00    +0.210 HD
ENDBRANCH  14  21
BRANCH  10  23
ATOM     23  O   UNL     1       6.958   3.478  26.893  0.00  0.00    -0.342 OA
BRANCH  23  24
ATOM     24  C   UNL     1       5.595   3.135  26.658  0.00  0.00    +0.268 C 
ATOM     25  C   UNL     1       4.659   3.475  27.850  0.00  0.00    +0.110 C 
ATOM     26  C   UNL     1       4.880   2.501  29.008  0.00  0.00    +0.057 C 
ATOM     27  C   UNL     1       4.789   1.054  28.509  0.00  0.00    +0.147 C 
ATOM     28  C   UNL     1       5.740   0.837  27.326  0.00  0.00    +0.175 C 
ATOM     29  O   UNL     1       5.432   1.770  26.280  0.00  0.00    -0.342 OA
BRANCH  25  30
ATOM     30  N   UNL     1       4.780   4.874  28.272  0.00  0.00    -0.323 NA
ATOM     31  H   UNL     1       5.470   4.962  29.014  0.00  0.00    +0.119 HD
ATOM     32  H   UNL     1       5.126   5.422  27.481  0.00  0.00    +0.119 HD
ENDBRANCH  25  30
BRANCH  27  33
ATOM     33  O   UNL     1       5.068   0.162  29.581  0.00  0.00    -0.389 OA
ATOM     34  H   UNL     1       5.835   0.507  30.072  0.00  0.00    +0.210 HD
ENDBRANCH  27  33
BRANCH  28  35
ATOM     35  C   UNL     1       5.617  -0.574  26.734  0.00  0.00    +0.190 C 
BRANCH  35  36
ATOM     36  O   UNL     1       4.884  -0.524  25.505  0.00  0.00    -0.392 OA
ATOM     37  H   UNL     1       5.341   0.126  24.946  0.00  0.00    +0.210 HD
ENDBRANCH  35  36
ENDBRANCH  28  35
ENDBRANCH  23  24
ENDBRANCH  10  23
ENDBRANCH   8   9
ENDBRANCH   3   8
BRANCH   1  38
ATOM     38  O   UNL     1       6.374  -1.452  23.147  0.00  0.00    -0.341 OA
BRANCH  38  43
ATOM     39  C   UNL     1       7.379  -4.283  25.211  0.00  0.00    +0.166 C 
ATOM     40  C   UNL     1       6.641  -5.483  24.569  0.00  0.00    +0.181 C 
ATOM     41  C   UNL     1       6.870  -5.265  23.034  0.00  0.00    +0.167 C 
ATOM     42  C   UNL     1       6.479  -3.846  22.510  0.00  0.00    +0.139 C 
ATOM     43  C   UNL     1       6.991  -2.719  23.475  0.00  0.00    +0.270 C 
ATOM     44  O   UNL     1       6.701  -3.088  24.813  0.00  0.00    -0.343 OA
BRANCH  42  45
ATOM     45  N   UNL     1       5.018  -3.772  22.285  0.00  0.00    -0.321 NA
ATOM     46  H   UNL     1       4.830  -4.092  21.334  0.00  0.00    +0.119 HD
ATOM     47  H   UNL     1       4.591  -4.490  22.877  0.00  0.00    +0.119 HD
ENDBRANCH  42  45
BRANCH  41  48
ATOM     48  O   UNL     1       8.265  -5.537  22.749  0.00  0.00    -0.387 OA
ATOM     49  H   UNL     1       8.611  -4.898  22.102  0.00  0.00    +0.210 HD
ENDBRANCH  41  48
BRANCH  40  50
ATOM     50  O   UNL     1       5.263  -5.525  25.029  0.00  0.00    -0.340 OA
BRANCH  50  51
ATOM     51  C   UNL     1       4.817  -6.791  25.545  0.00  0.00    +0.282 C 
ATOM     52  C   UNL     1       3.295  -7.018  25.307  0.00  0.00    +0.201 C 
ATOM     53  C   UNL     1       2.388  -6.319  26.326  0.00  0.00    +0.179 C 
ATOM     54  C   UNL     1       2.891  -6.451  27.763  0.00  0.00    +0.177 C 
ATOM     55  C   UNL     1       4.406  -6.245  27.874  0.00  0.00    +0.178 C 
ATOM     56  O   UNL     1       5.169  -6.991  26.917  0.00  0.00    -0.341 OA
BRANCH  54  57
ATOM     57  O   UNL     1       2.177  -5.502  28.579  0.00  0.00    -0.386 OA
ATOM     58  H   UNL     1       2.421  -4.602  28.299  0.00  0.00    +0.210 HD
ENDBRANCH  54  57
BRANCH  53  59
ATOM     59  O   UNL     1       1.066  -6.913  26.240  0.00  0.00    -0.386 OA
ATOM     60  H   UNL     1       1.197  -7.880  26.178  0.00  0.00    +0.210 HD
ENDBRANCH  53  59
BRANCH  52  61
ATOM     61  O   UNL     1       3.001  -8.431  25.362  0.00  0.00    -0.384 OA
ATOM     62  H   UNL     1       3.635  -8.842  24.736  0.00  0.00    +0.210 HD
ENDBRANCH  52  61
BRANCH  55  63
ATOM     63  C   UNL     1       4.865  -6.724  29.263  0.00  0.00    +0.190 C 
BRANCH  63  64
ATOM     64  O   UNL     1       6.105  -7.419  29.146  0.00  0.00    -0.392 OA
ATOM     65  H   UNL     1       6.245  -7.833  30.021  0.00  0.00    +0.210 HD
ENDBRANCH  63  64
ENDBRANCH  55  63
ENDBRANCH  50  51
ENDBRANCH  40  50
BRANCH  39  66
ATOM     66  C   UNL     1       7.477  -4.233  26.735  0.00  0.00    +0.112 C 
BRANCH  66  67
ATOM     67  N   UNL     1       7.830  -5.586  27.252  0.00  0.00    -0.328 NA
ATOM     68  H   UNL     1       7.879  -5.488  28.267  0.00  0.00    +0.118 HD
ATOM     69  H   UNL     1       8.782  -5.809  26.959  0.00  0.00    +0.118 HD
ENDBRANCH  66  67
ENDBRANCH  39  66
ENDBRANCH  38  43
ENDBRANCH   1  38
BRANCH   5  70
ATOM     70  C   UNL     1       9.788  -0.479  22.077  0.00  0.00    +0.190 C 
BRANCH  70  71
ATOM     71  O   UNL     1      10.464  -1.639  21.629  0.00  0.00    -0.392 OA
ATOM     72  H   UNL     1      10.073  -2.398  22.092  0.00  0.00    +0.210 HD
ENDBRANCH  70  71
ENDBRANCH   5  70
TORSDOF 27
ENDMDL
MODEL 2
REMARK VINA RESULT:      -6.6      2.050      2.492
REMARK  Name = 
REMARK  27 active torsions:
REMARK  status: ('A' for Active; 'I' for Inactive)
REMARK    1  A    between atoms: N_1  and  C_2
REMARK    2  A    between atoms: C_2  and  C_3
REMARK    3  A    between atoms: C_6  and  O_8
REMARK    4  A    between atoms: O_8  and  C_9
REMARK    5  A    between atoms: C_11  and  C_13
REMARK    6  A    between atoms: C_13  and  O_14
REMARK    7  A    between atoms: C_16  and  O_18
REMARK    8  A    between atoms: O_18  and  C_19
REMARK    9  A    between atoms: C_21  and  O_23
REMARK   10  A    between atoms: C_24  and  N_26
REMARK   11  A    between atoms: C_28  and  N_30
REMARK   12  A    between atoms: C_31  and  O_33
REMARK   13  A    between atoms: O_33  and  C_34
REMARK   14  A    between atoms: C_37  and  C_39
REMARK   15  A    between atoms: C_39  and  O_40
REMARK   16  A    between atoms: C_41  and  O_43
REMARK   17  A    between atoms: C_45  and  N_47
REMARK   18  A    between atoms: C_48  and  O_50
REMARK   19  A    between atoms: C_51  and  N_53
REMARK   20  A    between atoms: C_54  and  O_56
REMARK   21  A    between atoms: C_57  and  O_59
REMARK   22  A    between atoms: O_59  and  C_60
REMARK   23  A    between atoms: C_63  and  C_65
REMARK   24  A    between atoms: C_65  and  O_66
REMARK   25  A    between atoms: C_67  and  O_69
REMARK   26  A    between atoms: C_70  and  O_72
REMARK   27  A    between atoms: C_73  and  O_75
REMARK                            x       y       z     vdW  Elec       q    Type
REMARK                         _______ _______ _______ _____ _____    ______ ____
ROOT
ATOM      1  C   UNL     1       8.059  -0.107  23.182  0.00  0.00    +0.186 C 
ATOM      2  C   UNL     1       7.126   1.087  23.267  0.00  0.00    +0.202 C 
ATOM      3  C   UNL     1       7.926   2.094  24.120  0.00  0.00    +0.282 C 
ATOM      4  O   UNL     1       9.308   1.810  23.947  0.00  0.00    -0.341 OA
ATOM      5  C   UNL     1       9.432   0.569  23.241  0.00  0.00    +0.178 C 
ENDROOT
BRANCH   2   6
ATOM      6  O   UNL     1       5.818   0.763  23.732  0.00  0.00    -0.384 OA
ATOM      7  H   UNL     1       5.890   0.629  24.697  0.00  0.00    +0.210 HD
ENDBRANCH   2   6
BRANCH   3   8
ATOM      8  O   UNL     1       7.624   3.401  23.640  0.00  0.00    -0.340 OA
BRANCH   8   9
ATOM      9  C   UNL     1       7.892   4.547  24.471  0.00  0.00    +0.182 C 
ATOM     10  C   UNL     1       7.445   4.449  25.961  0.00  0.00    +0.169 C 
ATOM     11  C   UNL     1       7.731   5.813  26.688  0.00  0.00    +0.084 C 
ATOM     12  C   UNL     1       9.151   6.366  26.466  0.00  0.00    +0.042 C 
ATOM     13  C   UNL     1       9.536   6.390  24.989  0.00  0.00    +0.084 C 
ATOM     14  C   UNL     1       9.370   4.984  24.397  0.00  0.00    +0.163 C 
BRANCH  13  15
ATOM     15  N   UNL     1      10.912   6.894  24.829  0.00  0.00    -0.325 NA
ATOM     16  H   UNL     1      11.359   6.375  24.068  0.00  0.00    +0.119 HD
ATOM     17  H   UNL     1      10.843   7.835  24.428  0.00  0.00    +0.119 HD
ENDBRANCH  13  15
BRANCH  11  18
ATOM     18  N   UNL     1       7.491   5.720  28.142  0.00  0.00    -0.325 NA
ATOM     19  H   UNL     1       6.679   6.283  28.395  0.00  0.00    +0.119 HD
ATOM     20  H   UNL     1       7.237   4.758  28.378  0.00  0.00    +0.119 HD
ENDBRANCH  11  18
BRANCH  14  21
ATOM     21  O   UNL     1       9.831   4.982  23.044  0.00  0.00    -0.388 OA
ATOM     22  H   UNL     1       9.033   4.736  22.535  0.00  0.00    +0.210 HD
ENDBRANCH  14  21
BRANCH  10  23
ATOM     23  O   UNL     1       6.031   4.171  26.142  0.00  0.00    -0.342 OA
BRANCH  23  24
ATOM     24  C   UNL     1       5.147   5.155  25.612  0.00  0.00    +0.268 C 
ATOM     25  C   UNL     1       3.870   5.362  26.470  0.00  0.00    +0.110 C 
ATOM     26  C   UNL     1       2.914   4.178  26.315  0.00  0.00    +0.057 C 
ATOM     27  C   UNL     1       2.656   3.896  24.831  0.00  0.00    +0.147 C 
ATOM     28  C   UNL     1       3.983   3.725  24.081  0.00  0.00    +0.175 C 
ATOM     29  O   UNL     1       4.792   4.897  24.256  0.00  0.00    -0.342 OA
BRANCH  25  30
ATOM     30  N   UNL     1       4.181   5.643  27.875  0.00  0.00    -0.323 NA
ATOM     31  H   UNL     1       3.345   5.556  28.448  0.00  0.00    +0.119 HD
ATOM     32  H   UNL     1       4.842   4.937  28.208  0.00  0.00    +0.119 HD
ENDBRANCH  25  30
BRANCH  27  33
ATOM     33  O   UNL     1       1.826   2.748  24.703  0.00  0.00    -0.389 OA
ATOM     34  H   UNL     1       2.157   2.062  25.309  0.00  0.00    +0.210 HD
ENDBRANCH  27  33
BRANCH  28  35
ATOM     35  C   UNL     1       3.775   3.529  22.573  0.00  0.00    +0.190 C 
BRANCH  35  36
ATOM     36  O   UNL     1       5.042   3.366  21.925  0.00  0.00    -0.392 OA
ATOM     37  H   UNL     1       4.849   2.993  21.049  0.00  0.00    +0.210 HD
ENDBRANCH  35  36
ENDBRANCH  28  35
ENDBRANCH  23  24
ENDBRANCH  10  23
ENDBRANCH   8   9
ENDBRANCH   3   8
BRANCH   1  38
ATOM     38  O   UNL     1       7.941  -1.054  24.264  0.00  0.00    -0.341 OA
BRANCH  38  43
ATOM     39  C   UNL     1       8.187  -4.686  24.449  0.00  0.00    +0.166 C 
ATOM     40  C   UNL     1       6.741  -5.165  24.175  0.00  0.00    +0.181 C 
ATOM     41  C   UNL     1       6.295  -4.278  22.962  0.00  0.00    +0.167 C 
ATOM     42  C   UNL     1       6.492  -2.742  23.167  0.00  0.00    +0.139 C 
ATOM     43  C   UNL     1       7.891  -2.426  23.806  0.00  0.00    +0.270 C 
ATOM     44  O   UNL     1       8.124  -3.323  24.879  0.00  0.00    -0.343 OA
BRANCH  42  45
ATOM     45  N   UNL     1       5.374  -2.188  23.963  0.00  0.00    -0.321 NA
ATOM     46  H   UNL     1       4.536  -2.731  23.747  0.00  0.00    +0.119 HD
ATOM     47  H   UNL     1       5.568  -2.412  24.943  0.00  0.00    +0.119 HD
ENDBRANCH  42  45
BRANCH  41  48
ATOM     48  O   UNL     1       7.024  -4.724  21.792  0.00  0.00    -0.387 OA
ATOM     49  H   UNL     1       7.680  -4.057  21.524  0.00  0.00    +0.210 HD
ENDBRANCH  41  48
BRANCH  40  50
ATOM     50  O   UNL     1       5.946  -5.070  25.387  0.00  0.00    -0.340 OA
BRANCH  50  51
ATOM     51  C   UNL     1       5.438  -6.315  25.898  0.00  0.00    +0.282 C 
ATOM     52  C   UNL     1       3.884  -6.389  25.821  0.00  0.00    +0.201 C 
ATOM     53  C   UNL     1       3.163  -5.664  26.962  0.00  0.00    +0.179 C 
ATOM     54  C   UNL     1       3.801  -5.913  28.328  0.00  0.00    +0.177 C 
ATOM     55  C   UNL     1       5.331  -5.852  28.278  0.00  0.00    +0.178 C 
ATOM     56  O   UNL     1       5.913  -6.615  27.213  0.00  0.00    -0.341 OA
BRANCH  54  57
ATOM     57  O   UNL     1       3.272  -4.946  29.256  0.00  0.00    -0.386 OA
ATOM     58  H   UNL     1       3.588  -5.165  30.150  0.00  0.00    +0.210 HD
ENDBRANCH  54  57
BRANCH  53  59
ATOM     59  O   UNL     1       1.788  -6.129  26.999  0.00  0.00    -0.386 OA
ATOM     60  H   UNL     1       1.585  -6.331  27.934  0.00  0.00    +0.210 HD
ENDBRANCH  53  59
BRANCH  52  61
ATOM     61  O   UNL     1       3.464  -7.771  25.851  0.00  0.00    -0.384 OA
ATOM     62  H   UNL     1       2.999  -7.908  24.998  0.00  0.00    +0.210 HD
ENDBRANCH  52  61
BRANCH  55  63
ATOM     63  C   UNL     1       5.887  -6.441  29.587  0.00  0.00    +0.190 C 
BRANCH  63  64
ATOM     64  O   UNL     1       6.800  -7.496  29.290  0.00  0.00    -0.392 OA
ATOM     65  H   UNL     1       6.551  -8.223  29.894  0.00  0.00    +0.210 HD
ENDBRANCH  63  64
ENDBRANCH  55  63
ENDBRANCH  50  51
ENDBRANCH  40  50
BRANCH  39  66
ATOM     66  C   UNL     1       9.001  -5.430  25.507  0.00  0.00    +0.112 C 
BRANCH  66  67
ATOM     67  N   UNL     1       8.575  -4.982  26.864  0.00  0.00    -0.328 NA
ATOM     68  H   UNL     1       8.139  -5.797  27.297  0.00  0.00    +0.118 HD
ATOM     69  H   UNL     1       7.823  -4.300  26.761  0.00  0.00    +0.118 HD
ENDBRANCH  66  67
ENDBRANCH  39  66
ENDBRANCH  38  43
ENDBRANCH   1  38
BRANCH   5  70
ATOM     70  C   UNL     1       9.968   0.887  21.842  0.00  0.00    +0.190 C 
BRANCH  70  71
ATOM     71  O   UNL     1      10.021   2.290  21.662  0.00  0.00    -0.392 OA
ATOM     72  H   UNL     1      10.894   2.587  21.965  0.00  0.00    +0.210 HD
ENDBRANCH  70  71
ENDBRANCH   5  70
TORSDOF 27
ENDMDL
MODEL 3
REMARK VINA RESULT:      -6.3      2.748      9.489
REMARK  Name = 
REMARK  27 active torsions:
REMARK  status: ('A' for Active; 'I' for Inactive)
REMARK    1  A    between atoms: N_1  and  C_2
REMARK    2  A    between atoms: C_2  and  C_3
REMARK    3  A    between atoms: C_6  and  O_8
REMARK    4  A    between atoms: O_8  and  C_9
REMARK    5  A    between atoms: C_11  and  C_13
REMARK    6  A    between atoms: C_13  and  O_14
REMARK    7  A    between atoms: C_16  and  O_18
REMARK    8  A    between atoms: O_18  and  C_19
REMARK    9  A    between atoms: C_21  and  O_23
REMARK   10  A    between atoms: C_24  and  N_26
REMARK   11  A    between atoms: C_28  and  N_30
REMARK   12  A    between atoms: C_31  and  O_33
REMARK   13  A    between atoms: O_33  and  C_34
REMARK   14  A    between atoms: C_37  and  C_39
REMARK   15  A    between atoms: C_39  and  O_40
REMARK   16  A    between atoms: C_41  and  O_43
REMARK   17  A    between atoms: C_45  and  N_47
REMARK   18  A    between atoms: C_48  and  O_50
REMARK   19  A    between atoms: C_51  and  N_53
REMARK   20  A    between atoms: C_54  and  O_56
REMARK   21  A    between atoms: C_57  and  O_59
REMARK   22  A    between atoms: O_59  and  C_60
REMARK   23  A    between atoms: C_63  and  C_65
REMARK   24  A    between atoms: C_65  and  O_66
REMARK   25  A    between atoms: C_67  and  O_69
REMARK   26  A    between atoms: C_70  and  O_72
REMARK   27  A    between atoms: C_73  and  O_75
REMARK                            x       y       z     vdW  Elec       q    Type
REMARK                         _______ _______ _______ _____ _____    ______ ____
ROOT
ATOM      1  C   UNL     1       7.757  -2.843  25.602  0.00  0.00    +0.186 C 
ATOM      2  C   UNL     1       7.660  -4.337  25.344  0.00  0.00    +0.202 C 
ATOM      3  C   UNL     1       7.294  -4.906  26.731  0.00  0.00    +0.282 C 
ATOM      4  O   UNL     1       6.618  -3.886  27.456  0.00  0.00    -0.341 OA
ATOM      5  C   UNL     1       6.735  -2.657  26.727  0.00  0.00    +0.178 C 
ENDROOT
BRANCH   2   6
ATOM      6  O   UNL     1       8.817  -4.888  24.720  0.00  0.00    -0.384 OA
ATOM      7  H   UNL     1       9.590  -4.451  25.127  0.00  0.00    +0.210 HD
ENDBRANCH   2   6
BRANCH   3   8
ATOM      8  O   UNL     1       6.432  -6.022  26.524  0.00  0.00    -0.340 OA
BRANCH   8   9
ATOM      9  C   UNL     1       5.079  -5.978  27.016  0.00  0.00    +0.182 C 
ATOM     10  C   UNL     1       3.949  -5.885  25.946  0.00  0.00    +0.169 C 
ATOM     11  C   UNL     1       2.556  -5.754  26.660  0.00  0.00    +0.084 C 
ATOM     12  C   UNL     1       2.315  -6.788  27.777  0.00  0.00    +0.042 C 
ATOM     13  C   UNL     1       3.480  -6.856  28.761  0.00  0.00    +0.084 C 
ATOM     14  C   UNL     1       4.779  -7.135  27.992  0.00  0.00    +0.163 C 
BRANCH  13  15
ATOM     15  N   UNL     1       3.220  -7.879  29.789  0.00  0.00    -0.325 NA
ATOM     16  H   UNL     1       2.688  -7.445  30.548  0.00  0.00    +0.119 HD
ATOM     17  H   UNL     1       2.533  -8.531  29.398  0.00  0.00    +0.119 HD
ENDBRANCH  13  15
BRANCH  11  18
ATOM     18  N   UNL     1       1.437  -5.840  25.700  0.00  0.00    -0.325 NA
ATOM     19  H   UNL     1       1.130  -4.901  25.443  0.00  0.00    +0.119 HD
ATOM     20  H   UNL     1       1.774  -6.260  24.831  0.00  0.00    +0.119 HD
ENDBRANCH  11  18
BRANCH  14  21
ATOM     21  O   UNL     1       5.852  -7.305  28.921  0.00  0.00    -0.388 OA
ATOM     22  H   UNL     1       5.592  -6.733  29.671  0.00  0.00    +0.210 HD
ENDBRANCH  14  21
BRANCH  10  23
ATOM     23  O   UNL     1       4.067  -4.744  25.054  0.00  0.00    -0.342 OA
BRANCH  23  24
ATOM     24  C   UNL     1       3.720  -4.997  23.696  0.00  0.00    +0.268 C 
ATOM     25  C   UNL     1       4.213  -6.377  23.181  0.00  0.00    +0.110 C 
ATOM     26  C   UNL     1       5.727  -6.368  22.969  0.00  0.00    +0.057 C 
ATOM     27  C   UNL     1       6.133  -5.172  22.099  0.00  0.00    +0.147 C 
ATOM     28  C   UNL     1       5.582  -3.870  22.692  0.00  0.00    +0.175 C 
ATOM     29  O   UNL     1       4.155  -3.961  22.818  0.00  0.00    -0.342 OA
BRANCH  25  30
ATOM     30  N   UNL     1       3.781  -7.481  24.044  0.00  0.00    -0.323 NA
ATOM     31  H   UNL     1       4.182  -8.359  23.723  0.00  0.00    +0.119 HD
ATOM     32  H   UNL     1       4.144  -7.317  24.986  0.00  0.00    +0.119 HD
ENDBRANCH  25  30
BRANCH  27  33
ATOM     33  O   UNL     1       7.549  -5.136  21.972  0.00  0.00    -0.389 OA
ATOM     34  H   UNL     1       7.809  -4.236  21.707  0.00  0.00    +0.210 HD
ENDBRANCH  27  33
BRANCH  28  35
ATOM     35  C   UNL     1       5.888  -2.654  21.805  0.00  0.00    +0.190 C 
BRANCH  35  36
ATOM     36  O   UNL     1       6.099  -1.497  22.622  0.00  0.00    -0.392 OA
ATOM     37  H   UNL     1       5.487  -1.583  23.373  0.00  0.00    +0.210 HD
ENDBRANCH  35  36
ENDBRANCH  28  35
ENDBRANCH  23  24
ENDBRANCH  10  23
ENDBRANCH   8   9
ENDBRANCH   3   8
BRANCH   1  38
ATOM     38  O   UNL     1       9.050  -2.381  26.043  0.00  0.00    -0.341 OA
BRANCH  38  43
ATOM     39  C   UNL     1       9.634  -0.631  22.900  0.00  0.00    +0.166 C 
ATOM     40  C   UNL     1       9.234   0.831  23.215  0.00  0.00    +0.181 C 
ATOM     41  C   UNL     1       9.896   1.088  24.613  0.00  0.00    +0.167 C 
ATOM     42  C   UNL     1       9.556   0.023  25.704  0.00  0.00    +0.139 C 
ATOM     43  C   UNL     1       9.650  -1.434  25.128  0.00  0.00    +0.270 C 
ATOM     44  O   UNL     1       9.003  -1.476  23.867  0.00  0.00    -0.343 OA
BRANCH  42  45
ATOM     45  N   UNL     1       8.231   0.308  26.297  0.00  0.00    -0.321 NA
ATOM     46  H   UNL     1       8.362   0.462  27.299  0.00  0.00    +0.119 HD
ATOM     47  H   UNL     1       7.937   1.222  25.942  0.00  0.00    +0.119 HD
ENDBRANCH  42  45
BRANCH  41  48
ATOM     48  O   UNL     1      11.330   1.166  24.419  0.00  0.00    -0.387 OA
ATOM     49  H   UNL     1      11.717   0.275  24.374  0.00  0.00    +0.210 HD
ENDBRANCH  41  48
BRANCH  40  50
ATOM     50  O   UNL     1       7.792   0.983  23.133  0.00  0.00    -0.340 OA
BRANCH  50  51
ATOM     51  C   UNL     1       7.328   2.183  22.491  0.00  0.00    +0.282 C 
ATOM     52  C   UNL     1       8.068   3.451  23.013  0.00  0.00    +0.201 C 
ATOM     53  C   UNL     1       7.529   3.991  24.342  0.00  0.00    +0.179 C 
ATOM     54  C   UNL     1       6.002   4.006  24.405  0.00  0.00    +0.177 C 
ATOM     55  C   UNL     1       5.381   2.727  23.832  0.00  0.00    +0.178 C 
ATOM     56  O   UNL     1       5.908   2.341  22.557  0.00  0.00    -0.341 OA
BRANCH  54  57
ATOM     57  O   UNL     1       5.610   4.204  25.778  0.00  0.00    -0.386 OA
ATOM     58  H   UNL     1       4.892   3.583  25.991  0.00  0.00    +0.210 HD
ENDBRANCH  54  57
BRANCH  53  59
ATOM     59  O   UNL     1       8.015   5.349  24.511  0.00  0.00    -0.386 OA
ATOM     60  H   UNL     1       7.376   5.805  25.094  0.00  0.00    +0.210 HD
ENDBRANCH  53  59
BRANCH  52  61
ATOM     61  O   UNL     1       7.961   4.510  22.038  0.00  0.00    -0.384 OA
ATOM     62  H   UNL     1       8.529   4.221  21.291  0.00  0.00    +0.210 HD
ENDBRANCH  52  61
BRANCH  55  63
ATOM     63  C   UNL     1       3.874   2.967  23.624  0.00  0.00    +0.190 C 
BRANCH  63  64
ATOM     64  O   UNL     1       3.156   2.549  24.783  0.00  0.00    -0.392 OA
ATOM     65  H   UNL     1       3.447   1.630  24.943  0.00  0.00    +0.210 HD
ENDBRANCH  63  64
ENDBRANCH  55  63
ENDBRANCH  50  51
ENDBRANCH  40  50
BRANCH  39  66
ATOM     66  C   UNL     1       9.262  -1.196  21.530  0.00  0.00    +0.112 C 
BRANCH  66  67
ATOM     67  N   UNL     1       9.130  -0.076  20.553  0.00  0.00    -0.328 NA
ATOM     68  H   UNL     1       9.710   0.678  20.922  0.00  0.00    +0.118 HD
ATOM     69  H   UNL     1       8.174   0.279  20.592  0.00  0.00    +0.118 HD
ENDBRANCH  66  67
ENDBRANCH  39  66
ENDBRANCH  38  43
ENDBRANCH   1  38
BRANCH   5  70
ATOM     70  C   UNL     1       5.346  -2.314  26.181  0.00  0.00    +0.190 C 
BRANCH  70  71
ATOM     71  O   UNL     1       5.435  -1.182  25.335  0.00  0.00    -0.392 OA
ATOM     72  H   UNL     1       4.761  -1.285  24.644  0.00  0.00    +0.210 HD
ENDBRANCH  70  71
ENDBRANCH   5  70
TORSDOF 27
ENDMDL
MODEL 4
REMARK VINA RESULT:      -6.3      1.764      2.581
REMARK  Name = 
REMARK  27 active torsions:
REMARK  status: ('A' for Active; 'I' for Inactive)
REMARK    1  A    between atoms: N_1  and  C_2
REMARK    2  A    between atoms: C_2  and  C_3
REMARK    3  A    between atoms: C_6  and  O_8
REMARK    4  A    between atoms: O_8  and  C_9
REMARK    5  A    between atoms: C_11  and  C_13
REMARK    6  A    between atoms: C_13  and  O_14
REMARK    7  A    between atoms: C_16  and  O_18
REMARK    8  A    between atoms: O_18  and  C_19
REMARK    9  A    between atoms: C_21  and  O_23
REMARK   10  A    between atoms: C_24  and  N_26
REMARK   11  A    between atoms: C_28  and  N_30
REMARK   12  A    between atoms: C_31  and  O_33
REMARK   13  A    between atoms: O_33  and  C_34
REMARK   14  A    between atoms: C_37  and  C_39
REMARK   15  A    between atoms: C_39  and  O_40
REMARK   16  A    between atoms: C_41  and  O_43
REMARK   17  A    between atoms: C_45  and  N_47
REMARK   18  A    between atoms: C_48  and  O_50
REMARK   19  A    between atoms: C_51  and  N_53
REMARK   20  A    between atoms: C_54  and  O_56
REMARK   21  A    between atoms: C_57  and  O_59
REMARK   22  A    between atoms: O_59  and  C_60
REMARK   23  A    between atoms: C_63  and  C_65
REMARK   24  A    between atoms: C_65  and  O_66
REMARK   25  A    between atoms: C_67  and  O_69
REMARK   26  A    between atoms: C_70  and  O_72
REMARK   27  A    between atoms: C_73  and  O_75
REMARK                            x       y       z     vdW  Elec       q    Type
REMARK                         _______ _______ _______ _____ _____    ______ ____
ROOT
ATOM      1  C   UNL     1       7.607  -1.564  23.316  0.00  0.00    +0.186 C 
ATOM      2  C   UNL     1       8.830  -1.023  24.035  0.00  0.00    +0.202 C 
ATOM      3  C   UNL     1       9.225   0.199  23.178  0.00  0.00    +0.282 C 
ATOM      4  O   UNL     1       8.052   0.672  22.529  0.00  0.00    -0.341 OA
ATOM      5  C   UNL     1       7.005  -0.287  22.725  0.00  0.00    +0.178 C 
ENDROOT
BRANCH   2   6
ATOM      6  O   UNL     1       9.848  -1.996  24.254  0.00  0.00    -0.384 OA
ATOM      7  H   UNL     1       9.774  -2.272  25.188  0.00  0.00    +0.210 HD
ENDBRANCH   2   6
BRANCH   3   8
ATOM      8  O   UNL     1       9.740   1.194  24.059  0.00  0.00    -0.340 OA
BRANCH   8   9
ATOM      9  C   UNL     1       9.083   2.473  24.152  0.00  0.00    +0.182 C 
ATOM     10  C   UNL     1       8.310   2.767  25.474  0.00  0.00    +0.169 C 
ATOM     11  C   UNL     1       7.585   4.157  25.362  0.00  0.00    +0.084 C 
ATOM     12  C   UNL     1       8.484   5.303  24.861  0.00  0.00    +0.042 C 
ATOM     13  C   UNL     1       9.242   4.928  23.590  0.00  0.00    +0.084 C 
ATOM     14  C   UNL     1      10.041   3.641  23.836  0.00  0.00    +0.163 C 
BRANCH  13  15
ATOM     15  N   UNL     1      10.111   6.041  23.168  0.00  0.00    -0.325 NA
ATOM     16  H   UNL     1      11.072   5.821  23.440  0.00  0.00    +0.119 HD
ATOM     17  H   UNL     1      10.170   6.006  22.145  0.00  0.00    +0.119 HD
ENDBRANCH  13  15
BRANCH  11  18
ATOM     18  N   UNL     1       6.985   4.566  26.648  0.00  0.00    -0.325 NA
ATOM     19  H   UNL     1       7.620   4.338  27.413  0.00  0.00    +0.119 HD
ATOM     20  H   UNL     1       6.896   5.584  26.666  0.00  0.00    +0.119 HD
ENDBRANCH  11  18
BRANCH  14  21
ATOM     21  O   UNL     1      10.834   3.348  22.683  0.00  0.00    -0.388 OA
ATOM     22  H   UNL     1      10.168   3.110  22.008  0.00  0.00    +0.210 HD
ENDBRANCH  14  21
BRANCH  10  23
ATOM     23  O   UNL     1       7.285   1.789  25.794  0.00  0.00    -0.342 OA
BRANCH  23  24
ATOM     24  C   UNL     1       7.169   1.463  27.176  0.00  0.00    +0.268 C 
ATOM     25  C   UNL     1       7.615   0.013  27.507  0.00  0.00    +0.110 C 
ATOM     26  C   UNL     1       6.583  -1.000  27.008  0.00  0.00    +0.057 C 
ATOM     27  C   UNL     1       5.185  -0.624  27.513  0.00  0.00    +0.147 C 
ATOM     28  C   UNL     1       4.858   0.828  27.145  0.00  0.00    +0.175 C 
ATOM     29  O   UNL     1       5.859   1.702  27.686  0.00  0.00    -0.342 OA
BRANCH  25  30
ATOM     30  N   UNL     1       8.964  -0.281  27.014  0.00  0.00    -0.323 NA
ATOM     31  H   UNL     1       9.052  -0.009  26.037  0.00  0.00    +0.119 HD
ATOM     32  H   UNL     1       9.632   0.287  27.539  0.00  0.00    +0.119 HD
ENDBRANCH  25  30
BRANCH  27  33
ATOM     33  O   UNL     1       4.228  -1.532  26.981  0.00  0.00    -0.389 OA
ATOM     34  H   UNL     1       3.342  -1.238  27.257  0.00  0.00    +0.210 HD
ENDBRANCH  27  33
BRANCH  28  35
ATOM     35  C   UNL     1       3.502   1.277  27.709  0.00  0.00    +0.190 C 
BRANCH  35  36
ATOM     36  O   UNL     1       2.446   0.822  26.856  0.00  0.00    -0.392 OA
ATOM     37  H   UNL     1       1.933   0.185  27.380  0.00  0.00    +0.210 HD
ENDBRANCH  35  36
ENDBRANCH  28  35
ENDBRANCH  23  24
ENDBRANCH  10  23
ENDBRANCH   8   9
ENDBRANCH   3   8
BRANCH   1  38
ATOM     38  O   UNL     1       7.888  -2.501  22.255  0.00  0.00    -0.341 OA
BRANCH  38  43
ATOM     39  C   UNL     1       7.070  -5.308  24.430  0.00  0.00    +0.166 C 
ATOM     40  C   UNL     1       5.693  -5.788  23.908  0.00  0.00    +0.181 C 
ATOM     41  C   UNL     1       5.881  -5.782  22.351  0.00  0.00    +0.167 C 
ATOM     42  C   UNL     1       6.420  -4.439  21.763  0.00  0.00    +0.139 C 
ATOM     43  C   UNL     1       7.602  -3.871  22.626  0.00  0.00    +0.270 C 
ATOM     44  O   UNL     1       7.257  -3.958  23.998  0.00  0.00    -0.343 OA
BRANCH  42  45
ATOM     45  N   UNL     1       5.314  -3.467  21.617  0.00  0.00    -0.321 NA
ATOM     46  H   UNL     1       5.667  -2.666  21.090  0.00  0.00    +0.119 HD
ATOM     47  H   UNL     1       4.626  -3.892  20.989  0.00  0.00    +0.119 HD
ENDBRANCH  42  45
BRANCH  41  48
ATOM     48  O   UNL     1       6.769  -6.872  22.005  0.00  0.00    -0.387 OA
ATOM     49  H   UNL     1       6.763  -7.552  22.701  0.00  0.00    +0.210 HD
ENDBRANCH  41  48
BRANCH  40  50
ATOM     50  O   UNL     1       4.636  -4.949  24.446  0.00  0.00    -0.340 OA
BRANCH  50  51
ATOM     51  C   UNL     1       3.488  -5.648  24.958  0.00  0.00    +0.282 C 
ATOM     52  C   UNL     1       2.265  -4.703  25.153  0.00  0.00    +0.201 C 
ATOM     53  C   UNL     1       2.304  -3.882  26.446  0.00  0.00    +0.179 C 
ATOM     54  C   UNL     1       2.747  -4.699  27.659  0.00  0.00    +0.177 C 
ATOM     55  C   UNL     1       3.931  -5.619  27.344  0.00  0.00    +0.178 C 
ATOM     56  O   UNL     1       3.771  -6.391  26.147  0.00  0.00    -0.341 OA
BRANCH  54  57
ATOM     57  O   UNL     1       3.069  -3.784  28.725  0.00  0.00    -0.386 OA
ATOM     58  H   UNL     1       2.403  -3.877  29.429  0.00  0.00    +0.210 HD
ENDBRANCH  54  57
BRANCH  53  59
ATOM     59  O   UNL     1       0.971  -3.364  26.695  0.00  0.00    -0.386 OA
ATOM     60  H   UNL     1       0.563  -3.949  27.365  0.00  0.00    +0.210 HD
ENDBRANCH  53  59
BRANCH  52  61
ATOM     61  O   UNL     1       1.049  -5.482  25.169  0.00  0.00    -0.384 OA
ATOM     62  H   UNL     1       0.955  -5.778  26.099  0.00  0.00    +0.210 HD
ENDBRANCH  52  61
BRANCH  55  63
ATOM     63  C   UNL     1       4.085  -6.630  28.495  0.00  0.00    +0.190 C 
BRANCH  63  64
ATOM     64  O   UNL     1       5.206  -7.476  28.245  0.00  0.00    -0.392 OA
ATOM     65  H   UNL     1       5.977  -6.984  28.592  0.00  0.00    +0.210 HD
ENDBRANCH  63  64
ENDBRANCH  55  63
ENDBRANCH  50  51
ENDBRANCH  40  50
BRANCH  39  66
ATOM     66  C   UNL     1       7.303  -5.311  25.940  0.00  0.00    +0.112 C 
BRANCH  66  67
ATOM     67  N   UNL     1       8.765  -5.431  26.213  0.00  0.00    -0.328 NA
ATOM     68  H   UNL     1       9.194  -5.656  25.314  0.00  0.00    +0.118 HD
ATOM     69  H   UNL     1       8.921  -6.255  26.796  0.00  0.00    +0.118 HD
ENDBRANCH  66  67
ENDBRANCH  39  66
ENDBRANCH  38  43
ENDBRANCH   1  38
BRANCH   5  70
ATOM     70  C   UNL     1       5.975   0.343  23.667  0.00  0.00    +0.190 C 
BRANCH  70  71
ATOM     71  O   UNL     1       5.691   1.664  23.245  0.00  0.00    -0.392 OA
ATOM     72  H   UNL     1       5.760   1.678  22.276  0.00  0.00    +0.210 HD
ENDBRANCH  70  71
ENDBRANCH   5  70
TORSDOF 27
ENDMDL
MODEL 5
REMARK VINA RESULT:      -6.3      1.977      2.451
REMARK  Name = 
REMARK  27 active torsions:
REMARK  status: ('A' for Active; 'I' for Inactive)
REMARK    1  A    between atoms: N_1  and  C_2
REMARK    2  A    between atoms: C_2  and  C_3
REMARK    3  A    between atoms: C_6  and  O_8
REMARK    4  A    between atoms: O_8  and  C_9
REMARK    5  A    between atoms: C_11  and  C_13
REMARK    6  A    between atoms: C_13  and  O_14
REMARK    7  A    between atoms: C_16  and  O_18
REMARK    8  A    between atoms: O_18  and  C_19
REMARK    9  A    between atoms: C_21  and  O_23
REMARK   10  A    between atoms: C_24  and  N_26
REMARK   11  A    between atoms: C_28  and  N_30
REMARK   12  A    between atoms: C_31  and  O_33
REMARK   13  A    between atoms: O_33  and  C_34
REMARK   14  A    between atoms: C_37  and  C_39
REMARK   15  A    between atoms: C_39  and  O_40
REMARK   16  A    between atoms: C_41  and  O_43
REMARK   17  A    between atoms: C_45  and  N_47
REMARK   18  A    between atoms: C_48  and  O_50
REMARK   19  A    between atoms: C_51  and  N_53
REMARK   20  A    between atoms: C_54  and  O_56
REMARK   21  A    between atoms: C_57  and  O_59
REMARK   22  A    between atoms: O_59  and  C_60
REMARK   23  A    between atoms: C_63  and  C_65
REMARK   24  A    between atoms: C_65  and  O_66
REMARK   25  A    between atoms: C_67  and  O_69
REMARK   26  A    between atoms: C_70  and  O_72
REMARK   27  A    between atoms: C_73  and  O_75
REMARK                            x       y       z     vdW  Elec       q    Type
REMARK                         _______ _______ _______ _____ _____    ______ ____
ROOT
ATOM      1  C   UNL     1       8.168  -0.331  24.198  0.00  0.00    +0.186 C 
ATOM      2  C   UNL     1       8.112   0.750  25.263  0.00  0.00    +0.202 C 
ATOM      3  C   UNL     1       9.093   1.815  24.729  0.00  0.00    +0.282 C 
ATOM      4  O   UNL     1       9.143   1.691  23.314  0.00  0.00    -0.341 OA
ATOM      5  C   UNL     1       8.454   0.491  22.938  0.00  0.00    +0.178 C 
ENDROOT
BRANCH   2   6
ATOM      6  O   UNL     1       8.357   0.270  26.583  0.00  0.00    -0.384 OA
ATOM      7  H   UNL     1       8.668   1.035  27.105  0.00  0.00    +0.210 HD
ENDBRANCH   2   6
BRANCH   3   8
ATOM      8  O   UNL     1       8.583   3.094  25.097  0.00  0.00    -0.340 OA
BRANCH   8   9
ATOM      9  C   UNL     1       7.535   3.697  24.314  0.00  0.00    +0.182 C 
ATOM     10  C   UNL     1       6.234   4.094  25.075  0.00  0.00    +0.169 C 
ATOM     11  C   UNL     1       5.175   4.647  24.054  0.00  0.00    +0.084 C 
ATOM     12  C   UNL     1       5.720   5.715  23.088  0.00  0.00    +0.042 C 
ATOM     13  C   UNL     1       7.017   5.275  22.414  0.00  0.00    +0.084 C 
ATOM     14  C   UNL     1       8.045   4.896  23.489  0.00  0.00    +0.163 C 
BRANCH  13  15
ATOM     15  N   UNL     1       7.518   6.340  21.527  0.00  0.00    -0.325 NA
ATOM     16  H   UNL     1       6.792   7.057  21.442  0.00  0.00    +0.119 HD
ATOM     17  H   UNL     1       8.248   6.841  22.041  0.00  0.00    +0.119 HD
ENDBRANCH  13  15
BRANCH  11  18
ATOM     18  N   UNL     1       3.991   5.203  24.740  0.00  0.00    -0.325 NA
ATOM     19  H   UNL     1       3.580   5.944  24.173  0.00  0.00    +0.119 HD
ATOM     20  H   UNL     1       3.271   4.480  24.803  0.00  0.00    +0.119 HD
ENDBRANCH  11  18
BRANCH  14  21
ATOM     21  O   UNL     1       9.293   4.587  22.863  0.00  0.00    -0.388 OA
ATOM     22  H   UNL     1       9.114   4.749  21.915  0.00  0.00    +0.210 HD
ENDBRANCH  14  21
BRANCH  10  23
ATOM     23  O   UNL     1       5.598   2.996  25.780  0.00  0.00    -0.342 OA
BRANCH  23  24
ATOM     24  C   UNL     1       5.137   3.303  27.093  0.00  0.00    +0.268 C 
ATOM     25  C   UNL     1       5.867   2.502  28.206  0.00  0.00    +0.110 C 
ATOM     26  C   UNL     1       5.415   1.041  28.207  0.00  0.00    +0.057 C 
ATOM     27  C   UNL     1       3.884   0.960  28.252  0.00  0.00    +0.147 C 
ATOM     28  C   UNL     1       3.273   1.798  27.122  0.00  0.00    +0.175 C 
ATOM     29  O   UNL     1       3.726   3.155  27.226  0.00  0.00    -0.342 OA
BRANCH  25  30
ATOM     30  N   UNL     1       7.325   2.631  28.120  0.00  0.00    -0.323 NA
ATOM     31  H   UNL     1       7.706   1.933  27.486  0.00  0.00    +0.119 HD
ATOM     32  H   UNL     1       7.546   3.546  27.720  0.00  0.00    +0.119 HD
ENDBRANCH  25  30
BRANCH  27  33
ATOM     33  O   UNL     1       3.478  -0.401  28.179  0.00  0.00    -0.389 OA
ATOM     34  H   UNL     1       4.277  -0.955  28.126  0.00  0.00    +0.210 HD
ENDBRANCH  27  33
BRANCH  28  35
ATOM     35  C   UNL     1       1.739   1.819  27.182  0.00  0.00    +0.190 C 
BRANCH  35  36
ATOM     36  O   UNL     1       1.210   0.674  26.504  0.00  0.00    -0.392 OA
ATOM     37  H   UNL     1       1.744  -0.082  26.797  0.00  0.00    +0.210 HD
ENDBRANCH  35  36
ENDBRANCH  28  35
ENDBRANCH  23  24
ENDBRANCH  10  23
ENDBRANCH   8   9
ENDBRANCH   3   8
BRANCH   1  38
ATOM     38  O   UNL     1       9.207  -1.315  24.379  0.00  0.00    -0.341 OA
BRANCH  38  43
ATOM     39  C   UNL     1       7.137  -3.200  26.711  0.00  0.00    +0.166 C 
ATOM     40  C   UNL     1       7.223  -4.654  26.185  0.00  0.00    +0.181 C 
ATOM     41  C   UNL     1       8.749  -4.830  25.872  0.00  0.00    +0.167 C 
ATOM     42  C   UNL     1       9.362  -3.721  24.959  0.00  0.00    +0.139 C 
ATOM     43  C   UNL     1       8.884  -2.291  25.397  0.00  0.00    +0.270 C 
ATOM     44  O   UNL     1       7.487  -2.323  25.637  0.00  0.00    -0.343 OA
BRANCH  42  45
ATOM     45  N   UNL     1       9.055  -4.005  23.539  0.00  0.00    -0.321 NA
ATOM     46  H   UNL     1       9.920  -3.906  23.005  0.00  0.00    +0.119 HD
ATOM     47  H   UNL     1       8.837  -5.003  23.476  0.00  0.00    +0.119 HD
ENDBRANCH  42  45
BRANCH  41  48
ATOM     48  O   UNL     1       9.459  -4.887  27.134  0.00  0.00    -0.387 OA
ATOM     49  H   UNL     1       8.936  -4.468  27.839  0.00  0.00    +0.210 HD
ENDBRANCH  41  48
BRANCH  40  50
ATOM     50  O   UNL     1       6.300  -4.839  25.079  0.00  0.00    -0.340 OA
BRANCH  50  51
ATOM     51  C   UNL     1       5.636  -6.114  25.030  0.00  0.00    +0.282 C 
ATOM     52  C   UNL     1       4.324  -6.060  24.192  0.00  0.00    +0.201 C 
ATOM     53  C   UNL     1       3.117  -5.496  24.949  0.00  0.00    +0.179 C 
ATOM     54  C   UNL     1       3.004  -6.028  26.376  0.00  0.00    +0.177 C 
ATOM     55  C   UNL     1       4.358  -6.072  27.093  0.00  0.00    +0.178 C 
ATOM     56  O   UNL     1       5.408  -6.676  26.325  0.00  0.00    -0.341 OA
BRANCH  54  57
ATOM     57  O   UNL     1       2.064  -5.203  27.092  0.00  0.00    -0.386 OA
ATOM     58  H   UNL     1       2.419  -5.022  27.980  0.00  0.00    +0.210 HD
ENDBRANCH  54  57
BRANCH  53  59
ATOM     59  O   UNL     1       1.914  -5.858  24.220  0.00  0.00    -0.386 OA
ATOM     60  H   UNL     1       1.225  -5.215  24.481  0.00  0.00    +0.210 HD
ENDBRANCH  53  59
BRANCH  52  61
ATOM     61  O   UNL     1       3.976  -7.391  23.750  0.00  0.00    -0.384 OA
ATOM     62  H   UNL     1       3.135  -7.595  24.213  0.00  0.00    +0.210 HD
ENDBRANCH  52  61
BRANCH  55  63
ATOM     63  C   UNL     1       4.210  -6.921  28.368  0.00  0.00    +0.190 C 
BRANCH  63  64
ATOM     64  O   UNL     1       5.411  -7.656  28.599  0.00  0.00    -0.392 OA
ATOM     65  H   UNL     1       5.940  -7.537  27.786  0.00  0.00    +0.210 HD
ENDBRANCH  63  64
ENDBRANCH  55  63
ENDBRANCH  50  51
ENDBRANCH  40  50
BRANCH  39  66
ATOM     66  C   UNL     1       5.791  -2.709  27.243  0.00  0.00    +0.112 C 
BRANCH  66  67
ATOM     67  N   UNL     1       4.927  -2.301  26.098  0.00  0.00    -0.328 NA
ATOM     68  H   UNL     1       3.966  -2.404  26.430  0.00  0.00    +0.118 HD
ATOM     69  H   UNL     1       5.026  -2.992  25.352  0.00  0.00    +0.118 HD
ENDBRANCH  66  67
ENDBRANCH  39  66
ENDBRANCH  38  43
ENDBRANCH   1  38
BRANCH   5  70
ATOM     70  C   UNL     1       7.164   0.906  22.226  0.00  0.00    +0.190 C 
BRANCH  70  71
ATOM     71  O   UNL     1       7.433   1.980  21.343  0.00  0.00    -0.392 OA
ATOM     72  H   UNL     1       8.133   1.686  20.738  0.00  0.00    +0.210 HD
ENDBRANCH  70  71
ENDBRANCH   5  70
TORSDOF 27
ENDMDL
MODEL 6
REMARK VINA RESULT:      -6.2      1.744      3.885
REMARK  Name = 
REMARK  27 active torsions:
REMARK  status: ('A' for Active; 'I' for Inactive)
REMARK    1  A    between atoms: N_1  and  C_2
REMARK    2  A    between atoms: C_2  and  C_3
REMARK    3  A    between atoms: C_6  and  O_8
REMARK    4  A    between atoms: O_8  and  C_9
REMARK    5  A    between atoms: C_11  and  C_13
REMARK    6  A    between atoms: C_13  and  O_14
REMARK    7  A    between atoms: C_16  and  O_18
REMARK    8  A    between atoms: O_18  and  C_19
REMARK    9  A    between atoms: C_21  and  O_23
REMARK   10  A    between atoms: C_24  and  N_26
REMARK   11  A    between atoms: C_28  and  N_30
REMARK   12  A    between atoms: C_31  and  O_33
REMARK   13  A    between atoms: O_33  and  C_34
REMARK   14  A    between atoms: C_37  and  C_39
REMARK   15  A    between atoms: C_39  and  O_40
REMARK   16  A    between atoms: C_41  and  O_43
REMARK   17  A    between atoms: C_45  and  N_47
REMARK   18  A    between atoms: C_48  and  O_50
REMARK   19  A    between atoms: C_51  and  N_53
REMARK   20  A    between atoms: C_54  and  O_56
REMARK   21  A    between atoms: C_57  and  O_59
REMARK   22  A    between atoms: O_59  and  C_60
REMARK   23  A    between atoms: C_63  and  C_65
REMARK   24  A    between atoms: C_65  and  O_66
REMARK   25  A    between atoms: C_67  and  O_69
REMARK   26  A    between atoms: C_70  and  O_72
REMARK   27  A    between atoms: C_73  and  O_75
REMARK                            x       y       z     vdW  Elec       q    Type
REMARK                         _______ _______ _______ _____ _____    ______ ____
ROOT
ATOM      1  C   UNL     1       8.008  -0.310  23.167  0.00  0.00    +0.186 C 
ATOM      2  C   UNL     1       7.361   0.939  23.740  0.00  0.00    +0.202 C 
ATOM      3  C   UNL     1       7.467   0.718  25.263  0.00  0.00    +0.282 C 
ATOM      4  O   UNL     1       8.581  -0.132  25.504  0.00  0.00    -0.341 OA
ATOM      5  C   UNL     1       9.040  -0.646  24.247  0.00  0.00    +0.178 C 
ENDROOT
BRANCH   2   6
ATOM      6  O   UNL     1       6.056   1.197  23.228  0.00  0.00    -0.384 OA
ATOM      7  H   UNL     1       5.760   0.376  22.789  0.00  0.00    +0.210 HD
ENDBRANCH   2   6
BRANCH   3   8
ATOM      8  O   UNL     1       7.675   1.991  25.870  0.00  0.00    -0.340 OA
BRANCH   8   9
ATOM      9  C   UNL     1       6.654   2.553  26.717  0.00  0.00    +0.182 C 
ATOM     10  C   UNL     1       5.285   2.873  26.044  0.00  0.00    +0.169 C 
ATOM     11  C   UNL     1       4.332   3.561  27.087  0.00  0.00    +0.084 C 
ATOM     12  C   UNL     1       4.242   2.832  28.441  0.00  0.00    +0.042 C 
ATOM     13  C   UNL     1       5.618   2.513  29.018  0.00  0.00    +0.084 C 
ATOM     14  C   UNL     1       6.427   1.710  27.989  0.00  0.00    +0.163 C 
BRANCH  13  15
ATOM     15  N   UNL     1       5.482   1.788  30.294  0.00  0.00    -0.325 NA
ATOM     16  H   UNL     1       6.063   2.255  30.994  0.00  0.00    +0.119 HD
ATOM     17  H   UNL     1       4.538   1.975  30.647  0.00  0.00    +0.119 HD
ENDBRANCH  13  15
BRANCH  11  18
ATOM     18  N   UNL     1       2.964   3.725  26.556  0.00  0.00    -0.325 NA
ATOM     19  H   UNL     1       2.664   4.694  26.669  0.00  0.00    +0.119 HD
ATOM     20  H   UNL     1       2.976   3.561  25.547  0.00  0.00    +0.119 HD
ENDBRANCH  11  18
BRANCH  14  21
ATOM     21  O   UNL     1       7.674   1.319  28.567  0.00  0.00    -0.388 OA
ATOM     22  H   UNL     1       7.745   1.893  29.356  0.00  0.00    +0.210 HD
ENDBRANCH  14  21
BRANCH  10  23
ATOM     23  O   UNL     1       5.376   3.774  24.908  0.00  0.00    -0.342 OA
BRANCH  23  24
ATOM     24  C   UNL     1       5.978   5.036  25.182  0.00  0.00    +0.268 C 
ATOM     25  C   UNL     1       5.332   6.211  24.398  0.00  0.00    +0.110 C 
ATOM     26  C   UNL     1       5.721   6.156  22.920  0.00  0.00    +0.057 C 
ATOM     27  C   UNL     1       7.243   6.045  22.777  0.00  0.00    +0.147 C 
ATOM     28  C   UNL     1       7.772   4.865  23.602  0.00  0.00    +0.175 C 
ATOM     29  O   UNL     1       7.389   5.025  24.975  0.00  0.00    -0.342 OA
BRANCH  25  30
ATOM     30  N   UNL     1       3.879   6.274  24.587  0.00  0.00    -0.323 NA
ATOM     31  H   UNL     1       3.621   7.134  25.067  0.00  0.00    +0.119 HD
ATOM     32  H   UNL     1       3.434   6.306  23.667  0.00  0.00    +0.119 HD
ENDBRANCH  25  30
BRANCH  27  33
ATOM     33  O   UNL     1       7.583   5.922  21.401  0.00  0.00    -0.389 OA
ATOM     34  H   UNL     1       7.879   5.008  21.241  0.00  0.00    +0.210 HD
ENDBRANCH  27  33
BRANCH  28  35
ATOM     35  C   UNL     1       9.304   4.770  23.560  0.00  0.00    +0.190 C 
BRANCH  35  36
ATOM     36  O   UNL     1       9.730   3.534  24.145  0.00  0.00    -0.392 OA
ATOM     37  H   UNL     1      10.408   3.175  23.550  0.00  0.00    +0.210 HD
ENDBRANCH  35  36
ENDBRANCH  28  35
ENDBRANCH  23  24
ENDBRANCH  10  23
ENDBRANCH   8   9
ENDBRANCH   3   8
BRANCH   1  38
ATOM     38  O   UNL     1       7.118  -1.431  22.985  0.00  0.00    -0.341 OA
BRANCH  38  43
ATOM     39  C   UNL     1       7.100  -3.937  25.631  0.00  0.00    +0.166 C 
ATOM     40  C   UNL     1       6.766  -5.252  24.887  0.00  0.00    +0.181 C 
ATOM     41  C   UNL     1       7.678  -5.184  23.614  0.00  0.00    +0.167 C 
ATOM     42  C   UNL     1       7.550  -3.865  22.787  0.00  0.00    +0.139 C 
ATOM     43  C   UNL     1       7.535  -2.604  23.722  0.00  0.00    +0.270 C 
ATOM     44  O   UNL     1       6.663  -2.847  24.814  0.00  0.00    -0.343 OA
BRANCH  42  45
ATOM     45  N   UNL     1       6.359  -3.928  21.911  0.00  0.00    -0.321 NA
ATOM     46  H   UNL     1       6.628  -4.405  21.049  0.00  0.00    +0.119 HD
ATOM     47  H   UNL     1       5.698  -4.572  22.355  0.00  0.00    +0.119 HD
ENDBRANCH  42  45
BRANCH  41  48
ATOM     48  O   UNL     1       9.050  -5.377  24.038  0.00  0.00    -0.387 OA
ATOM     49  H   UNL     1       9.544  -5.886  23.372  0.00  0.00    +0.210 HD
ENDBRANCH  41  48
BRANCH  40  50
ATOM     50  O   UNL     1       5.334  -5.350  24.665  0.00  0.00    -0.340 OA
BRANCH  50  51
ATOM     51  C   UNL     1       4.747  -6.634  24.942  0.00  0.00    +0.282 C 
ATOM     52  C   UNL     1       3.359  -6.804  24.257  0.00  0.00    +0.201 C 
ATOM     53  C   UNL     1       2.199  -6.147  25.014  0.00  0.00    +0.179 C 
ATOM     54  C   UNL     1       2.260  -6.381  26.522  0.00  0.00    +0.177 C 
ATOM     55  C   UNL     1       3.678  -6.224  27.082  0.00  0.00    +0.178 C 
ATOM     56  O   UNL     1       4.682  -6.929  26.341  0.00  0.00    -0.341 OA
BRANCH  54  57
ATOM     57  O   UNL     1       1.346  -5.466  27.158  0.00  0.00    -0.386 OA
ATOM     58  H   UNL     1       0.451  -5.626  26.810  0.00  0.00    +0.210 HD
ENDBRANCH  54  57
BRANCH  53  59
ATOM     59  O   UNL     1       0.956  -6.698  24.506  0.00  0.00    -0.386 OA
ATOM     60  H   UNL     1       0.801  -6.283  23.634  0.00  0.00    +0.210 HD
ENDBRANCH  53  59
BRANCH  52  61
ATOM     61  O   UNL     1       3.052  -8.209  24.128  0.00  0.00    -0.384 OA
ATOM     62  H   UNL     1       2.309  -8.361  24.751  0.00  0.00    +0.210 HD
ENDBRANCH  52  61
BRANCH  55  63
ATOM     63  C   UNL     1       3.707  -6.801  28.509  0.00  0.00    +0.190 C 
BRANCH  63  64
ATOM     64  O   UNL     1       2.667  -7.765  28.659  0.00  0.00    -0.392 OA
ATOM     65  H   UNL     1       2.902  -8.267  29.464  0.00  0.00    +0.210 HD
ENDBRANCH  63  64
ENDBRANCH  55  63
ENDBRANCH  50  51
ENDBRANCH  40  50
BRANCH  39  66
ATOM     66  C   UNL     1       6.479  -3.715  27.009  0.00  0.00    +0.112 C 
BRANCH  66  67
ATOM     67  N   UNL     1       6.766  -4.894  27.876  0.00  0.00    -0.328 NA
ATOM     68  H   UNL     1       6.741  -4.542  28.834  0.00  0.00    +0.118 HD
ATOM     69  H   UNL     1       7.733  -5.183  27.723  0.00  0.00    +0.118 HD
ENDBRANCH  66  67
ENDBRANCH  39  66
ENDBRANCH  38  43
ENDBRANCH   1  38
BRANCH   5  70
ATOM     70  C   UNL     1      10.397  -0.001  23.955  0.00  0.00    +0.190 C 
BRANCH  70  71
ATOM     71  O   UNL     1      10.811   0.761  25.074  0.00  0.00    -0.392 OA
ATOM     72  H   UNL     1      10.031   0.896  25.636  0.00  0.00    +0.210 HD
ENDBRANCH  70  71
ENDBRANCH   5  70
TORSDOF 27
ENDMDL
MODEL 7
REMARK VINA RESULT:      -6.2      2.330      3.376
REMARK  Name = 
REMARK  27 active torsions:
REMARK  status: ('A' for Active; 'I' for Inactive)
REMARK    1  A    between atoms: N_1  and  C_2
REMARK    2  A    between atoms: C_2  and  C_3
REMARK    3  A    between atoms: C_6  and  O_8
REMARK    4  A    between atoms: O_8  and  C_9
REMARK    5  A    between atoms: C_11  and  C_13
REMARK    6  A    between atoms: C_13  and  O_14
REMARK    7  A    between atoms: C_16  and  O_18
REMARK    8  A    between atoms: O_18  and  C_19
REMARK    9  A    between atoms: C_21  and  O_23
REMARK   10  A    between atoms: C_24  and  N_26
REMARK   11  A    between atoms: C_28  and  N_30
REMARK   12  A    between atoms: C_31  and  O_33
REMARK   13  A    between atoms: O_33  and  C_34
REMARK   14  A    between atoms: C_37  and  C_39
REMARK   15  A    between atoms: C_39  and  O_40
REMARK   16  A    between atoms: C_41  and  O_43
REMARK   17  A    between atoms: C_45  and  N_47
REMARK   18  A    between atoms: C_48  and  O_50
REMARK   19  A    between atoms: C_51  and  N_53
REMARK   20  A    between atoms: C_54  and  O_56
REMARK   21  A    between atoms: C_57  and  O_59
REMARK   22  A    between atoms: O_59  and  C_60
REMARK   23  A    between atoms: C_63  and  C_65
REMARK   24  A    between atoms: C_65  and  O_66
REMARK   25  A    between atoms: C_67  and  O_69
REMARK   26  A    between atoms: C_70  and  O_72
REMARK   27  A    between atoms: C_73  and  O_75
REMARK                            x       y       z     vdW  Elec       q    Type
REMARK                         _______ _______ _______ _____ _____    ______ ____
ROOT
ATOM      1  C   UNL     1       8.965  -0.408  24.198  0.00  0.00    +0.186 C 
ATOM      2  C   UNL     1       8.403   0.987  24.409  0.00  0.00    +0.202 C 
ATOM      3  C   UNL     1       9.586   1.901  24.028  0.00  0.00    +0.282 C 
ATOM      4  O   UNL     1      10.405   1.191  23.107  0.00  0.00    -0.341 OA
ATOM      5  C   UNL     1       9.959  -0.171  23.058  0.00  0.00    +0.178 C 
ENDROOT
BRANCH   2   6
ATOM      6  O   UNL     1       7.839   1.191  25.703  0.00  0.00    -0.384 OA
ATOM      7  H   UNL     1       6.908   1.450  25.564  0.00  0.00    +0.210 HD
ENDBRANCH   2   6
BRANCH   3   8
ATOM      8  O   UNL     1       9.048   3.069  23.414  0.00  0.00    -0.340 OA
BRANCH   8   9
ATOM      9  C   UNL     1       9.487   4.370  23.849  0.00  0.00    +0.182 C 
ATOM     10  C   UNL     1       8.941   4.870  25.221  0.00  0.00    +0.169 C 
ATOM     11  C   UNL     1       9.446   6.334  25.488  0.00  0.00    +0.084 C 
ATOM     12  C   UNL     1      10.958   6.533  25.274  0.00  0.00    +0.042 C 
ATOM     13  C   UNL     1      11.428   5.981  23.931  0.00  0.00    +0.084 C 
ATOM     14  C   UNL     1      11.024   4.505  23.818  0.00  0.00    +0.163 C 
BRANCH  13  15
ATOM     15  N   UNL     1      12.883   6.163  23.786  0.00  0.00    -0.325 NA
ATOM     16  H   UNL     1      13.134   7.077  24.172  0.00  0.00    +0.119 HD
ATOM     17  H   UNL     1      13.335   5.525  24.448  0.00  0.00    +0.119 HD
ENDBRANCH  13  15
BRANCH  11  18
ATOM     18  N   UNL     1       9.106   6.791  26.850  0.00  0.00    -0.325 NA
ATOM     19  H   UNL     1       8.473   7.589  26.798  0.00  0.00    +0.119 HD
ATOM     20  H   UNL     1       8.576   6.057  27.326  0.00  0.00    +0.119 HD
ENDBRANCH  11  18
BRANCH  14  21
ATOM     21  O   UNL     1      11.556   3.958  22.609  0.00  0.00    -0.388 OA
ATOM     22  H   UNL     1      12.435   3.626  22.881  0.00  0.00    +0.210 HD
ENDBRANCH  14  21
BRANCH  10  23
ATOM     23  O   UNL     1       7.491   4.909  25.306  0.00  0.00    -0.342 OA
BRANCH  23  24
ATOM     24  C   UNL     1       6.803   4.502  24.127  0.00  0.00    +0.268 C 
ATOM     25  C   UNL     1       5.926   5.623  23.506  0.00  0.00    +0.110 C 
ATOM     26  C   UNL     1       4.677   5.866  24.354  0.00  0.00    +0.057 C 
ATOM     27  C   UNL     1       3.945   4.544  24.612  0.00  0.00    +0.147 C 
ATOM     28  C   UNL     1       4.908   3.509  25.208  0.00  0.00    +0.175 C 
ATOM     29  O   UNL     1       6.025   3.324  24.327  0.00  0.00    -0.342 OA
BRANCH  25  30
ATOM     30  N   UNL     1       6.684   6.855  23.268  0.00  0.00    -0.323 NA
ATOM     31  H   UNL     1       6.457   7.240  22.354  0.00  0.00    +0.119 HD
ATOM     32  H   UNL     1       6.395   7.551  23.960  0.00  0.00    +0.119 HD
ENDBRANCH  25  30
BRANCH  27  33
ATOM     33  O   UNL     1       2.828   4.776  25.461  0.00  0.00    -0.389 OA
ATOM     34  H   UNL     1       2.733   5.737  25.582  0.00  0.00    +0.210 HD
ENDBRANCH  27  33
BRANCH  28  35
ATOM     35  C   UNL     1       4.241   2.140  25.400  0.00  0.00    +0.190 C 
BRANCH  35  36
ATOM     36  O   UNL     1       4.910   1.157  24.602  0.00  0.00    -0.392 OA
ATOM     37  H   UNL     1       4.429   1.122  23.759  0.00  0.00    +0.210 HD
ENDBRANCH  35  36
ENDBRANCH  28  35
ENDBRANCH  23  24
ENDBRANCH  10  23
ENDBRANCH   8   9
ENDBRANCH   3   8
BRANCH   1  38
ATOM     38  O   UNL     1       9.657  -0.966  25.334  0.00  0.00    -0.341 OA
BRANCH  38  43
ATOM     39  C   UNL     1       6.711  -2.807  26.436  0.00  0.00    +0.166 C 
ATOM     40  C   UNL     1       6.875  -4.194  25.768  0.00  0.00    +0.181 C 
ATOM     41  C   UNL     1       8.385  -4.532  26.015  0.00  0.00    +0.167 C 
ATOM     42  C   UNL     1       9.387  -3.421  25.565  0.00  0.00    +0.139 C 
ATOM     43  C   UNL     1       8.894  -1.996  26.005  0.00  0.00    +0.270 C 
ATOM     44  O   UNL     1       7.513  -1.872  25.709  0.00  0.00    -0.343 OA
BRANCH  42  45
ATOM     45  N   UNL     1       9.622  -3.507  24.107  0.00  0.00    -0.321 NA
ATOM     46  H   UNL     1      10.528  -3.957  23.961  0.00  0.00    +0.119 HD
ATOM     47  H   UNL     1       8.947  -4.183  23.737  0.00  0.00    +0.119 HD
ENDBRANCH  42  45
BRANCH  41  48
ATOM     48  O   UNL     1       8.554  -4.817  27.425  0.00  0.00    -0.387 OA
ATOM     49  H   UNL     1       8.089  -5.637  27.666  0.00  0.00    +0.210 HD
ENDBRANCH  41  48
BRANCH  40  50
ATOM     50  O   UNL     1       6.431  -4.138  24.386  0.00  0.00    -0.340 OA
BRANCH  50  51
ATOM     51  C   UNL     1       5.831  -5.341  23.876  0.00  0.00    +0.282 C 
ATOM     52  C   UNL     1       4.584  -5.045  22.992  0.00  0.00    +0.201 C 
ATOM     53  C   UNL     1       3.299  -4.780  23.785  0.00  0.00    +0.179 C 
ATOM     54  C   UNL     1       3.107  -5.746  24.952  0.00  0.00    +0.177 C 
ATOM     55  C   UNL     1       4.405  -5.992  25.728  0.00  0.00    +0.178 C 
ATOM     56  O   UNL     1       5.534  -6.295  24.899  0.00  0.00    -0.341 OA
BRANCH  54  57
ATOM     57  O   UNL     1       2.079  -5.215  25.812  0.00  0.00    -0.386 OA
ATOM     58  H   UNL     1       1.708  -5.942  26.342  0.00  0.00    +0.210 HD
ENDBRANCH  54  57
BRANCH  53  59
ATOM     59  O   UNL     1       2.172  -4.911  22.880  0.00  0.00    -0.386 OA
ATOM     60  H   UNL     1       1.981  -5.868  22.807  0.00  0.00    +0.210 HD
ENDBRANCH  53  59
BRANCH  52  61
ATOM     61  O   UNL     1       4.331  -6.168  22.120  0.00  0.00    -0.384 OA
ATOM     62  H   UNL     1       4.653  -6.950  22.619  0.00  0.00    +0.210 HD
ENDBRANCH  52  61
BRANCH  55  63
ATOM     63  C   UNL     1       4.202  -7.210  26.647  0.00  0.00    +0.190 C 
BRANCH  63  64
ATOM     64  O   UNL     1       5.258  -7.272  27.604  0.00  0.00    -0.392 OA
ATOM     65  H   UNL     1       4.828  -7.548  28.438  0.00  0.00    +0.210 HD
ENDBRANCH  63  64
ENDBRANCH  55  63
ENDBRANCH  50  51
ENDBRANCH  40  50
BRANCH  39  66
ATOM     66  C   UNL     1       5.308  -2.205  26.504  0.00  0.00    +0.112 C 
BRANCH  66  67
ATOM     67  N   UNL     1       4.912  -1.722  25.150  0.00  0.00    -0.328 NA
ATOM     68  H   UNL     1       5.461  -0.875  24.990  0.00  0.00    +0.118 HD
ATOM     69  H   UNL     1       3.941  -1.407  25.187  0.00  0.00    +0.118 HD
ENDBRANCH  66  67
ENDBRANCH  39  66
ENDBRANCH  38  43
ENDBRANCH   1  38
BRANCH   5  70
ATOM     70  C   UNL     1       9.315  -0.395  21.688  0.00  0.00    +0.190 C 
BRANCH  70  71
ATOM     71  O   UNL     1       9.473  -1.748  21.304  0.00  0.00    -0.392 OA
ATOM     72  H   UNL     1       9.536  -1.768  20.335  0.00  0.00    +0.210 HD
ENDBRANCH  70  71
ENDBRANCH   5  70
TORSDOF 27
ENDMDL
MODEL 8
REMARK VINA RESULT:      -6.2      2.725      9.371
REMARK  Name = 
REMARK  27 active torsions:
REMARK  status: ('A' for Active; 'I' for Inactive)
REMARK    1  A    between atoms: N_1  and  C_2
REMARK    2  A    between atoms: C_2  and  C_3
REMARK    3  A    between atoms: C_6  and  O_8
REMARK    4  A    between atoms: O_8  and  C_9
REMARK    5  A    between atoms: C_11  and  C_13
REMARK    6  A    between atoms: C_13  and  O_14
REMARK    7  A    between atoms: C_16  and  O_18
REMARK    8  A    between atoms: O_18  and  C_19
REMARK    9  A    between atoms: C_21  and  O_23
REMARK   10  A    between atoms: C_24  and  N_26
REMARK   11  A    between atoms: C_28  and  N_30
REMARK   12  A    between atoms: C_31  and  O_33
REMARK   13  A    between atoms: O_33  and  C_34
REMARK   14  A    between atoms: C_37  and  C_39
REMARK   15  A    between atoms: C_39  and  O_40
REMARK   16  A    between atoms: C_41  and  O_43
REMARK   17  A    between atoms: C_45  and  N_47
REMARK   18  A    between atoms: C_48  and  O_50
REMARK   19  A    between atoms: C_51  and  N_53
REMARK   20  A    between atoms: C_54  and  O_56
REMARK   21  A    between atoms: C_57  and  O_59
REMARK   22  A    between atoms: O_59  and  C_60
REMARK   23  A    between atoms: C_63  and  C_65
REMARK   24  A    between atoms: C_65  and  O_66
REMARK   25  A    between atoms: C_67  and  O_69
REMARK   26  A    between atoms: C_70  and  O_72
REMARK   27  A    between atoms: C_73  and  O_75
REMARK                            x       y       z     vdW  Elec       q    Type
REMARK                         _______ _______ _______ _____ _____    ______ ____
ROOT
ATOM      1  C   UNL     1       8.172  -2.398  23.980  0.00  0.00    +0.186 C 
ATOM      2  C   UNL     1       7.860  -3.475  25.004  0.00  0.00    +0.202 C 
ATOM      3  C   UNL     1       6.420  -3.133  25.440  0.00  0.00    +0.282 C 
ATOM      4  O   UNL     1       5.791  -2.445  24.367  0.00  0.00    -0.341 OA
ATOM      5  C   UNL     1       6.787  -2.125  23.386  0.00  0.00    +0.178 C 
ENDROOT
BRANCH   2   6
ATOM      6  O   UNL     1       8.828  -3.577  26.045  0.00  0.00    -0.384 OA
ATOM      7  H   UNL     1       9.534  -4.165  25.714  0.00  0.00    +0.210 HD
ENDBRANCH   2   6
BRANCH   3   8
ATOM      8  O   UNL     1       5.746  -4.361  25.704  0.00  0.00    -0.340 OA
BRANCH   8   9
ATOM      9  C   UNL     1       5.421  -4.720  27.060  0.00  0.00    +0.182 C 
ATOM     10  C   UNL     1       3.910  -4.714  27.442  0.00  0.00    +0.169 C 
ATOM     11  C   UNL     1       3.752  -5.037  28.972  0.00  0.00    +0.084 C 
ATOM     12  C   UNL     1       4.541  -6.272  29.446  0.00  0.00    +0.042 C 
ATOM     13  C   UNL     1       6.000  -6.230  28.998  0.00  0.00    +0.084 C 
ATOM     14  C   UNL     1       6.060  -6.063  27.474  0.00  0.00    +0.163 C 
BRANCH  13  15
ATOM     15  N   UNL     1       6.706  -7.444  29.445  0.00  0.00    -0.325 NA
ATOM     16  H   UNL     1       6.341  -8.242  28.918  0.00  0.00    +0.119 HD
ATOM     17  H   UNL     1       7.666  -7.381  29.092  0.00  0.00    +0.119 HD
ENDBRANCH  13  15
BRANCH  11  18
ATOM     18  N   UNL     1       2.335  -5.219  29.350  0.00  0.00    -0.325 NA
ATOM     19  H   UNL     1       2.133  -4.686  30.196  0.00  0.00    +0.119 HD
ATOM     20  H   UNL     1       1.741  -4.811  28.625  0.00  0.00    +0.119 HD
ENDBRANCH  11  18
BRANCH  14  21
ATOM     21  O   UNL     1       7.421  -6.131  27.042  0.00  0.00    -0.388 OA
ATOM     22  H   UNL     1       7.839  -5.375  27.501  0.00  0.00    +0.210 HD
ENDBRANCH  14  21
BRANCH  10  23
ATOM     23  O   UNL     1       3.243  -3.444  27.215  0.00  0.00    -0.342 OA
BRANCH  23  24
ATOM     24  C   UNL     1       3.214  -2.566  28.336  0.00  0.00    +0.268 C 
ATOM     25  C   UNL     1       1.926  -1.701  28.409  0.00  0.00    +0.110 C 
ATOM     26  C   UNL     1       1.946  -0.608  27.339  0.00  0.00    +0.057 C 
ATOM     27  C   UNL     1       3.258   0.182  27.414  0.00  0.00    +0.147 C 
ATOM     28  C   UNL     1       4.458  -0.770  27.350  0.00  0.00    +0.175 C 
ATOM     29  O   UNL     1       4.369  -1.733  28.410  0.00  0.00    -0.342 OA
BRANCH  25  30
ATOM     30  N   UNL     1       0.706  -2.512  28.349  0.00  0.00    -0.323 NA
ATOM     31  H   UNL     1       0.924  -3.493  28.508  0.00  0.00    +0.119 HD
ATOM     32  H   UNL     1       0.086  -2.221  29.109  0.00  0.00    +0.119 HD
ENDBRANCH  25  30
BRANCH  27  33
ATOM     33  O   UNL     1       3.292   1.146  26.368  0.00  0.00    -0.389 OA
ATOM     34  H   UNL     1       2.725   0.830  25.643  0.00  0.00    +0.210 HD
ENDBRANCH  27  33
BRANCH  28  35
ATOM     35  C   UNL     1       5.794  -0.031  27.511  0.00  0.00    +0.190 C 
BRANCH  35  36
ATOM     36  O   UNL     1       6.434   0.099  26.237  0.00  0.00    -0.392 OA
ATOM     37  H   UNL     1       7.295   0.516  26.411  0.00  0.00    +0.210 HD
ENDBRANCH  35  36
ENDBRANCH  28  35
ENDBRANCH  23  24
ENDBRANCH  10  23
ENDBRANCH   8   9
ENDBRANCH   3   8
BRANCH   1  38
ATOM     38  O   UNL     1       8.713  -1.176  24.523  0.00  0.00    -0.341 OA
BRANCH  38  43
ATOM     39  C   UNL     1       7.458   1.863  22.950  0.00  0.00    +0.166 C 
ATOM     40  C   UNL     1       8.590   2.891  23.185  0.00  0.00    +0.181 C 
ATOM     41  C   UNL     1       9.887   2.080  22.843  0.00  0.00    +0.167 C 
ATOM     42  C   UNL     1      10.020   0.714  23.591  0.00  0.00    +0.139 C 
ATOM     43  C   UNL     1       8.663  -0.074  23.586  0.00  0.00    +0.270 C 
ATOM     44  O   UNL     1       7.609   0.816  23.913  0.00  0.00    -0.343 OA
BRANCH  42  45
ATOM     45  N   UNL     1      10.538   0.933  24.960  0.00  0.00    -0.321 NA
ATOM     46  H   UNL     1      11.446   1.394  24.882  0.00  0.00    +0.119 HD
ATOM     47  H   UNL     1       9.937   1.639  25.394  0.00  0.00    +0.119 HD
ENDBRANCH  42  45
BRANCH  41  48
ATOM     48  O   UNL     1       9.916   1.870  21.409  0.00  0.00    -0.387 OA
ATOM     49  H   UNL     1       9.924   0.919  21.204  0.00  0.00    +0.210 HD
ENDBRANCH  41  48
BRANCH  40  50
ATOM     50  O   UNL     1       8.494   3.442  24.526  0.00  0.00    -0.340 OA
BRANCH  50  51
ATOM     51  C   UNL     1       8.860   4.826  24.658  0.00  0.00    +0.282 C 
ATOM     52  C   UNL     1       8.389   5.430  26.014  0.00  0.00    +0.201 C 
ATOM     53  C   UNL     1       6.915   5.850  26.038  0.00  0.00    +0.179 C 
ATOM     54  C   UNL     1       6.481   6.580  24.768  0.00  0.00    +0.177 C 
ATOM     55  C   UNL     1       7.031   5.921  23.498  0.00  0.00    +0.178 C 
ATOM     56  O   UNL     1       8.433   5.626  23.552  0.00  0.00    -0.341 OA
BRANCH  54  57
ATOM     57  O   UNL     1       5.041   6.629  24.746  0.00  0.00    -0.386 OA
ATOM     58  H   UNL     1       4.695   5.746  24.964  0.00  0.00    +0.210 HD
ENDBRANCH  54  57
BRANCH  53  59
ATOM     59  O   UNL     1       6.713   6.731  27.174  0.00  0.00    -0.386 OA
ATOM     60  H   UNL     1       5.752   6.908  27.224  0.00  0.00    +0.210 HD
ENDBRANCH  53  59
BRANCH  52  61
ATOM     61  O   UNL     1       9.179   6.599  26.324  0.00  0.00    -0.384 OA
ATOM     62  H   UNL     1       8.555   7.352  26.236  0.00  0.00    +0.210 HD
ENDBRANCH  52  61
BRANCH  55  63
ATOM     63  C   UNL     1       6.838   6.893  22.320  0.00  0.00    +0.190 C 
BRANCH  63  64
ATOM     64  O   UNL     1       7.452   6.357  21.149  0.00  0.00    -0.392 OA
ATOM     65  H   UNL     1       8.408   6.520  21.268  0.00  0.00    +0.210 HD
ENDBRANCH  63  64
ENDBRANCH  55  63
ENDBRANCH  50  51
ENDBRANCH  40  50
BRANCH  39  66
ATOM     66  C   UNL     1       6.013   2.347  23.067  0.00  0.00    +0.112 C 
BRANCH  66  67
ATOM     67  N   UNL     1       5.272   1.465  24.014  0.00  0.00    -0.328 NA
ATOM     68  H   UNL     1       5.987   1.023  24.593  0.00  0.00    +0.118 HD
ATOM     69  H   UNL     1       4.848   0.702  23.485  0.00  0.00    +0.118 HD
ENDBRANCH  66  67
ENDBRANCH  39  66
ENDBRANCH  38  43
ENDBRANCH   1  38
BRANCH   5  70
ATOM     70  C   UNL     1       6.516  -2.995  22.156  0.00  0.00    +0.190 C 
BRANCH  70  71
ATOM     71  O   UNL     1       5.193  -3.494  22.209  0.00  0.00    -0.392 OA
ATOM     72  H   UNL     1       4.650  -2.825  22.657  0.00  0.00    +0.210 HD
ENDBRANCH  70  71
ENDBRANCH   5  70
TORSDOF 27
ENDMDL
MODEL 9
REMARK VINA RESULT:      -6.2      2.021      2.877
REMARK  Name = 
REMARK  27 active torsions:
REMARK  status: ('A' for Active; 'I' for Inactive)
REMARK    1  A    between atoms: N_1  and  C_2
REMARK    2  A    between atoms: C_2  and  C_3
REMARK    3  A    between atoms: C_6  and  O_8
REMARK    4  A    between atoms: O_8  and  C_9
REMARK    5  A    between atoms: C_11  and  C_13
REMARK    6  A    between atoms: C_13  and  O_14
REMARK    7  A    between atoms: C_16  and  O_18
REMARK    8  A    between atoms: O_18  and  C_19
REMARK    9  A    between atoms: C_21  and  O_23
REMARK   10  A    between atoms: C_24  and  N_26
REMARK   11  A    between atoms: C_28  and  N_30
REMARK   12  A    between atoms: C_31  and  O_33
REMARK   13  A    between atoms: O_33  and  C_34
REMARK   14  A    between atoms: C_37  and  C_39
REMARK   15  A    between atoms: C_39  and  O_40
REMARK   16  A    between atoms: C_41  and  O_43
REMARK   17  A    between atoms: C_45  and  N_47
REMARK   18  A    between atoms: C_48  and  O_50
REMARK   19  A    between atoms: C_51  and  N_53
REMARK   20  A    between atoms: C_54  and  O_56
REMARK   21  A    between atoms: C_57  and  O_59
REMARK   22  A    between atoms: O_59  and  C_60
REMARK   23  A    between atoms: C_63  and  C_65
REMARK   24  A    between atoms: C_65  and  O_66
REMARK   25  A    between atoms: C_67  and  O_69
REMARK   26  A    between atoms: C_70  and  O_72
REMARK   27  A    between atoms: C_73  and  O_75
REMARK                            x       y       z     vdW  Elec       q    Type
REMARK                         _______ _______ _______ _____ _____    ______ ____
ROOT
ATOM      1  C   UNL     1       9.070  -1.428  23.596  0.00  0.00    +0.186 C 
ATOM      2  C   UNL     1       9.491   0.031  23.587  0.00  0.00    +0.202 C 
ATOM      3  C   UNL     1       8.201   0.767  24.006  0.00  0.00    +0.282 C 
ATOM      4  O   UNL     1       7.420  -0.130  24.785  0.00  0.00    -0.341 OA
ATOM      5  C   UNL     1       8.004  -1.436  24.695  0.00  0.00    +0.178 C 
ENDROOT
BRANCH   2   6
ATOM      6  O   UNL     1      10.089   0.450  22.363  0.00  0.00    -0.384 OA
ATOM      7  H   UNL     1      10.050   1.426  22.353  0.00  0.00    +0.210 HD
ENDBRANCH   2   6
BRANCH   3   8
ATOM      8  O   UNL     1       8.583   1.897  24.786  0.00  0.00    -0.340 OA
BRANCH   8   9
ATOM      9  C   UNL     1       8.071   3.201  24.453  0.00  0.00    +0.182 C 
ATOM     10  C   UNL     1       7.039   3.821  25.443  0.00  0.00    +0.169 C 
ATOM     11  C   UNL     1       6.523   5.193  24.876  0.00  0.00    +0.084 C 
ATOM     12  C   UNL     1       7.639   6.148  24.411  0.00  0.00    +0.042 C 
ATOM     13  C   UNL     1       8.636   5.461  23.482  0.00  0.00    +0.084 C 
ATOM     14  C   UNL     1       9.202   4.214  24.175  0.00  0.00    +0.163 C 
BRANCH  13  15
ATOM     15  N   UNL     1       9.700   6.402  23.091  0.00  0.00    -0.325 NA
ATOM     16  H   UNL     1       9.281   7.152  22.536  0.00  0.00    +0.119 HD
ATOM     17  H   UNL     1       9.985   6.903  23.938  0.00  0.00    +0.119 HD
ENDBRANCH  13  15
BRANCH  11  18
ATOM     18  N   UNL     1       5.678   5.907  25.854  0.00  0.00    -0.325 NA
ATOM     19  H   UNL     1       5.502   6.858  25.529  0.00  0.00    +0.119 HD
ATOM     20  H   UNL     1       4.760   5.460  25.892  0.00  0.00    +0.119 HD
ENDBRANCH  11  18
BRANCH  14  21
ATOM     21  O   UNL     1      10.213   3.631  23.350  0.00  0.00    -0.388 OA
ATOM     22  H   UNL     1      11.043   3.879  23.804  0.00  0.00    +0.210 HD
ENDBRANCH  14  21
BRANCH  10  23
ATOM     23  O   UNL     1       5.864   2.998  25.670  0.00  0.00    -0.342 OA
BRANCH  23  24
ATOM     24  C   UNL     1       5.482   2.849  27.034  0.00  0.00    +0.268 C 
ATOM     25  C   UNL     1       5.973   1.520  27.670  0.00  0.00    +0.110 C 
ATOM     26  C   UNL     1       5.167   0.334  27.140  0.00  0.00    +0.057 C 
ATOM     27  C   UNL     1       3.665   0.605  27.290  0.00  0.00    +0.147 C 
ATOM     28  C   UNL     1       3.297   1.945  26.642  0.00  0.00    +0.175 C 
ATOM     29  O   UNL     1       4.077   2.997  27.228  0.00  0.00    -0.342 OA
BRANCH  25  30
ATOM     30  N   UNL     1       7.417   1.325  27.509  0.00  0.00    -0.323 NA
ATOM     31  H   UNL     1       7.932   1.995  28.077  0.00  0.00    +0.119 HD
ATOM     32  H   UNL     1       7.660   0.395  27.858  0.00  0.00    +0.119 HD
ENDBRANCH  25  30
BRANCH  27  33
ATOM     33  O   UNL     1       2.929  -0.474  26.727  0.00  0.00    -0.389 OA
ATOM     34  H   UNL     1       2.017  -0.430  27.064  0.00  0.00    +0.210 HD
ENDBRANCH  27  33
BRANCH  28  35
ATOM     35  C   UNL     1       1.818   2.301  26.846  0.00  0.00    +0.190 C 
BRANCH  35  36
ATOM     36  O   UNL     1       1.009   1.571  25.917  0.00  0.00    -0.392 OA
ATOM     37  H   UNL     1       0.285   2.167  25.664  0.00  0.00    +0.210 HD
ENDBRANCH  35  36
ENDBRANCH  28  35
ENDBRANCH  23  24
ENDBRANCH  10  23
ENDBRANCH   8   9
ENDBRANCH   3   8
BRANCH   1  38
ATOM     38  O   UNL     1       8.493  -1.905  22.362  0.00  0.00    -0.341 OA
BRANCH  38  43
ATOM     39  C   UNL     1       8.038  -5.224  23.797  0.00  0.00    +0.166 C 
ATOM     40  C   UNL     1       6.522  -5.491  23.629  0.00  0.00    +0.181 C 
ATOM     41  C   UNL     1       6.236  -5.014  22.164  0.00  0.00    +0.167 C 
ATOM     42  C   UNL     1       6.729  -3.567  21.839  0.00  0.00    +0.139 C 
ATOM     43  C   UNL     1       8.172  -3.316  22.401  0.00  0.00    +0.270 C 
ATOM     44  O   UNL     1       8.245  -3.811  23.728  0.00  0.00    -0.343 OA
BRANCH  42  45
ATOM     45  N   UNL     1       5.752  -2.573  22.336  0.00  0.00    -0.321 NA
ATOM     46  H   UNL     1       5.771  -2.598  23.358  0.00  0.00    +0.119 HD
ATOM     47  H   UNL     1       6.125  -1.649  22.104  0.00  0.00    +0.119 HD
ENDBRANCH  42  45
BRANCH  41  48
ATOM     48  O   UNL     1       6.846  -5.965  21.258  0.00  0.00    -0.387 OA
ATOM     49  H   UNL     1       6.271  -6.122  20.489  0.00  0.00    +0.210 HD
ENDBRANCH  41  48
BRANCH  40  50
ATOM     50  O   UNL     1       5.780  -4.834  24.691  0.00  0.00    -0.340 OA
BRANCH  50  51
ATOM     51  C   UNL     1       4.859  -5.669  25.415  0.00  0.00    +0.282 C 
ATOM     52  C   UNL     1       4.308  -6.832  24.537  0.00  0.00    +0.201 C 
ATOM     53  C   UNL     1       3.161  -6.427  23.605  0.00  0.00    +0.179 C 
ATOM     54  C   UNL     1       2.131  -5.524  24.282  0.00  0.00    +0.177 C 
ATOM     55  C   UNL     1       2.783  -4.441  25.148  0.00  0.00    +0.178 C 
ATOM     56  O   UNL     1       3.800  -4.931  26.031  0.00  0.00    -0.341 OA
BRANCH  54  57
ATOM     57  O   UNL     1       1.301  -4.941  23.258  0.00  0.00    -0.386 OA
ATOM     58  H   UNL     1       0.376  -5.194  23.424  0.00  0.00    +0.210 HD
ENDBRANCH  54  57
BRANCH  53  59
ATOM     59  O   UNL     1       2.495  -7.636  23.154  0.00  0.00    -0.386 OA
ATOM     60  H   UNL     1       1.935  -7.941  23.896  0.00  0.00    +0.210 HD
ENDBRANCH  53  59
BRANCH  52  61
ATOM     61  O   UNL     1       3.823  -7.893  25.388  0.00  0.00    -0.384 OA
ATOM     62  H   UNL     1       2.856  -7.738  25.453  0.00  0.00    +0.210 HD
ENDBRANCH  52  61
BRANCH  55  63
ATOM     63  C   UNL     1       1.699  -3.812  26.042  0.00  0.00    +0.190 C 
BRANCH  63  64
ATOM     64  O   UNL     1       1.219  -2.610  25.442  0.00  0.00    -0.392 OA
ATOM     65  H   UNL     1       1.660  -1.889  25.932  0.00  0.00    +0.210 HD
ENDBRANCH  63  64
ENDBRANCH  55  63
ENDBRANCH  50  51
ENDBRANCH  40  50
BRANCH  39  66
ATOM     66  C   UNL     1       8.710  -5.693  25.087  0.00  0.00    +0.112 C 
BRANCH  66  67
ATOM     67  N   UNL     1      10.132  -5.244  25.094  0.00  0.00    -0.328 NA
ATOM     68  H   UNL     1      10.195  -4.546  25.836  0.00  0.00    +0.118 HD
ATOM     69  H   UNL     1      10.317  -4.732  24.230  0.00  0.00    +0.118 HD
ENDBRANCH  66  67
ENDBRANCH  39  66
ENDBRANCH  38  43
ENDBRANCH   1  38
BRANCH   5  70
ATOM     70  C   UNL     1       8.605  -1.766  26.065  0.00  0.00    +0.190 C 
BRANCH  70  71
ATOM     71  O   UNL     1       7.859  -2.804  26.673  0.00  0.00    -0.392 OA
ATOM     72  H   UNL     1       8.460  -3.279  27.269  0.00  0.00    +0.210 HD
ENDBRANCH  70  71
ENDBRANCH   5  70
TORSDOF 27
ENDMDL
