MODEL 1
REMARK VINA RESULT:      -4.5      0.000      0.000
REMARK  Name = 
REMARK  4 active torsions:
REMARK  status: ('A' for Active; 'I' for Inactive)
REMARK    1  A    between atoms: C_1  and  C_2
REMARK    2  A    between atoms: C_5  and  O_7
REMARK    3  A    between atoms: C_8  and  O_10
REMARK    4  A    between atoms: C_12  and  O_14
REMARK                            x       y       z     vdW  Elec       q    Type
REMARK                         _______ _______ _______ _____ _____    ______ ____
ROOT
ATOM      1  C   UNL     1       7.949  -2.765  22.867  0.00  0.00    +0.040 C 
ATOM      2  C   UNL     1       8.331  -1.288  22.833  0.00  0.00    +0.147 C 
ATOM      3  C   UNL     1       9.342  -1.002  21.706  0.00  0.00    +0.146 C 
ATOM      4  C   UNL     1       9.616   0.498  21.607  0.00  0.00    +0.070 C 
ATOM      5  C   UNL     1       8.330   1.307  21.561  0.00  0.00    +0.173 C 
ATOM      6  C   UNL     1       7.380   0.871  22.700  0.00  0.00    +0.276 C 
ATOM      7  O   UNL     1       7.129  -0.525  22.664  0.00  0.00    -0.343 OA
ENDROOT
BRANCH   3   8
ATOM      8  O   UNL     1      10.564  -1.688  21.918  0.00  0.00    -0.389 OA
ATOM      9  H   UNL     1      10.483  -2.236  22.716  0.00  0.00    +0.210 HD
ENDBRANCH   3   8
BRANCH   5  10
ATOM     10  O   UNL     1       8.708   2.687  21.666  0.00  0.00    -0.387 OA
ATOM     11  H   UNL     1       7.977   3.156  22.100  0.00  0.00    +0.210 HD
ENDBRANCH   5  10
BRANCH   6  12
ATOM     12  O   UNL     1       6.139   1.547  22.565  0.00  0.00    -0.365 OA
ATOM     13  H   UNL     1       5.474   0.855  22.714  0.00  0.00    +0.213 HD
ENDBRANCH   6  12
TORSDOF 3
ENDMDL
MODEL 2
REMARK VINA RESULT:      -4.5      5.685      6.752
REMARK  Name = 
REMARK  4 active torsions:
REMARK  status: ('A' for Active; 'I' for Inactive)
REMARK    1  A    between atoms: C_1  and  C_2
REMARK    2  A    between atoms: C_5  and  O_7
REMARK    3  A    between atoms: C_8  and  O_10
REMARK    4  A    between atoms: C_12  and  O_14
REMARK                            x       y       z     vdW  Elec       q    Type
REMARK                         _______ _______ _______ _____ _____    ______ ____
ROOT
ATOM      1  C   UNL     1       7.151  -5.687  21.755  0.00  0.00    +0.040 C 
ATOM      2  C   UNL     1       7.387  -5.093  23.141  0.00  0.00    +0.147 C 
ATOM      3  C   UNL     1       6.195  -5.375  24.076  0.00  0.00    +0.146 C 
ATOM      4  C   UNL     1       6.504  -4.884  25.489  0.00  0.00    +0.070 C 
ATOM      5  C   UNL     1       7.857  -5.376  25.978  0.00  0.00    +0.173 C 
ATOM      6  C   UNL     1       8.945  -5.095  24.917  0.00  0.00    +0.276 C 
ATOM      7  O   UNL     1       8.602  -5.652  23.658  0.00  0.00    -0.343 OA
ENDROOT
BRANCH   3   8
ATOM      8  O   UNL     1       5.011  -4.750  23.611  0.00  0.00    -0.389 OA
ATOM      9  H   UNL     1       4.627  -4.226  24.335  0.00  0.00    +0.210 HD
ENDBRANCH   3   8
BRANCH   5  10
ATOM     10  O   UNL     1       8.116  -4.701  27.217  0.00  0.00    -0.387 OA
ATOM     11  H   UNL     1       7.271  -4.342  27.534  0.00  0.00    +0.210 HD
ENDBRANCH   5  10
BRANCH   6  12
ATOM     12  O   UNL     1      10.173  -5.672  25.337  0.00  0.00    -0.365 OA
ATOM     13  H   UNL     1      10.369  -5.228  26.178  0.00  0.00    +0.213 HD
ENDBRANCH   6  12
TORSDOF 3
ENDMDL
MODEL 3
REMARK VINA RESULT:      -4.4      3.829      6.405
REMARK  Name = 
REMARK  4 active torsions:
REMARK  status: ('A' for Active; 'I' for Inactive)
REMARK    1  A    between atoms: C_1  and  C_2
REMARK    2  A    between atoms: C_5  and  O_7
REMARK    3  A    between atoms: C_8  and  O_10
REMARK    4  A    between atoms: C_12  and  O_14
REMARK                            x       y       z     vdW  Elec       q    Type
REMARK                         _______ _______ _______ _____ _____    ______ ____
ROOT
ATOM      1  C   UNL     1       8.287  -2.572  22.645  0.00  0.00    +0.040 C 
ATOM      2  C   UNL     1       8.264  -3.130  24.065  0.00  0.00    +0.147 C 
ATOM      3  C   UNL     1       6.880  -3.713  24.409  0.00  0.00    +0.146 C 
ATOM      4  C   UNL     1       6.913  -4.380  25.783  0.00  0.00    +0.070 C 
ATOM      5  C   UNL     1       8.086  -5.337  25.922  0.00  0.00    +0.173 C 
ATOM      6  C   UNL     1       9.396  -4.648  25.478  0.00  0.00    +0.276 C 
ATOM      7  O   UNL     1       9.291  -4.127  24.162  0.00  0.00    -0.343 OA
ENDROOT
BRANCH   3   8
ATOM      8  O   UNL     1       5.877  -2.712  24.398  0.00  0.00    -0.389 OA
ATOM      9  H   UNL     1       5.319  -2.835  23.612  0.00  0.00    +0.210 HD
ENDBRANCH   3   8
BRANCH   5  10
ATOM     10  O   UNL     1       8.123  -5.745  27.297  0.00  0.00    -0.387 OA
ATOM     11  H   UNL     1       7.960  -6.702  27.320  0.00  0.00    +0.210 HD
ENDBRANCH   5  10
BRANCH   6  12
ATOM     12  O   UNL     1      10.455  -5.594  25.495  0.00  0.00    -0.365 OA
ATOM     13  H   UNL     1      10.477  -5.910  26.413  0.00  0.00    +0.213 HD
ENDBRANCH   6  12
TORSDOF 3
ENDMDL
MODEL 4
REMARK VINA RESULT:      -4.3      2.055      2.114
REMARK  Name = 
REMARK  4 active torsions:
REMARK  status: ('A' for Active; 'I' for Inactive)
REMARK    1  A    between atoms: C_1  and  C_2
REMARK    2  A    between atoms: C_5  and  O_7
REMARK    3  A    between atoms: C_8  and  O_10
REMARK    4  A    between atoms: C_12  and  O_14
REMARK                            x       y       z     vdW  Elec       q    Type
REMARK                         _______ _______ _______ _____ _____    ______ ____
ROOT
ATOM      1  C   UNL     1       9.481  -2.320  24.202  0.00  0.00    +0.040 C 
ATOM      2  C   UNL     1       9.878  -0.919  23.748  0.00  0.00    +0.147 C 
ATOM      3  C   UNL     1       9.506  -0.688  22.271  0.00  0.00    +0.146 C 
ATOM      4  C   UNL     1       9.795   0.758  21.871  0.00  0.00    +0.070 C 
ATOM      5  C   UNL     1       9.207   1.749  22.863  0.00  0.00    +0.173 C 
ATOM      6  C   UNL     1       9.598   1.360  24.306  0.00  0.00    +0.276 C 
ATOM      7  O   UNL     1       9.223   0.025  24.607  0.00  0.00    -0.343 OA
ENDROOT
BRANCH   3   8
ATOM      8  O   UNL     1      10.219  -1.562  21.413  0.00  0.00    -0.389 OA
ATOM      9  H   UNL     1      10.038  -2.480  21.678  0.00  0.00    +0.210 HD
ENDBRANCH   3   8
BRANCH   5  10
ATOM     10  O   UNL     1       9.703   3.043  22.493  0.00  0.00    -0.387 OA
ATOM     11  H   UNL     1      10.294   2.921  21.733  0.00  0.00    +0.210 HD
ENDBRANCH   5  10
BRANCH   6  12
ATOM     12  O   UNL     1       8.937   2.221  25.222  0.00  0.00    -0.365 OA
ATOM     13  H   UNL     1       8.256   2.659  24.687  0.00  0.00    +0.213 HD
ENDBRANCH   6  12
TORSDOF 3
ENDMDL
MODEL 5
REMARK VINA RESULT:      -4.3      1.863      3.860
REMARK  Name = 
REMARK  4 active torsions:
REMARK  status: ('A' for Active; 'I' for Inactive)
REMARK    1  A    between atoms: C_1  and  C_2
REMARK    2  A    between atoms: C_5  and  O_7
REMARK    3  A    between atoms: C_8  and  O_10
REMARK    4  A    between atoms: C_12  and  O_14
REMARK                            x       y       z     vdW  Elec       q    Type
REMARK                         _______ _______ _______ _____ _____    ______ ____
ROOT
ATOM      1  C   UNL     1       8.785   2.744  24.654  0.00  0.00    +0.040 C 
ATOM      2  C   UNL     1       8.747   1.523  23.739  0.00  0.00    +0.147 C 
ATOM      3  C   UNL     1       9.486   1.799  22.415  0.00  0.00    +0.146 C 
ATOM      4  C   UNL     1       9.547   0.529  21.568  0.00  0.00    +0.070 C 
ATOM      5  C   UNL     1      10.048  -0.663  22.368  0.00  0.00    +0.173 C 
ATOM      6  C   UNL     1       9.272  -0.780  23.699  0.00  0.00    +0.276 C 
ATOM      7  O   UNL     1       9.335   0.424  24.448  0.00  0.00    -0.343 OA
ENDROOT
BRANCH   3   8
ATOM      8  O   UNL     1       8.855   2.828  21.673  0.00  0.00    -0.389 OA
ATOM      9  H   UNL     1       9.177   2.797  20.756  0.00  0.00    +0.210 HD
ENDBRANCH   3   8
BRANCH   5  10
ATOM     10  O   UNL     1       9.878  -1.818  21.534  0.00  0.00    -0.387 OA
ATOM     11  H   UNL     1      10.113  -1.559  20.628  0.00  0.00    +0.210 HD
ENDBRANCH   5  10
BRANCH   6  12
ATOM     12  O   UNL     1       9.837  -1.819  24.485  0.00  0.00    -0.365 OA
ATOM     13  H   UNL     1      10.621  -1.412  24.889  0.00  0.00    +0.213 HD
ENDBRANCH   6  12
TORSDOF 3
ENDMDL
MODEL 6
REMARK VINA RESULT:      -4.1      4.324      6.229
REMARK  Name = 
REMARK  4 active torsions:
REMARK  status: ('A' for Active; 'I' for Inactive)
REMARK    1  A    between atoms: C_1  and  C_2
REMARK    2  A    between atoms: C_5  and  O_7
REMARK    3  A    between atoms: C_8  and  O_10
REMARK    4  A    between atoms: C_12  and  O_14
REMARK                            x       y       z     vdW  Elec       q    Type
REMARK                         _______ _______ _______ _____ _____    ______ ____
ROOT
ATOM      1  C   UNL     1       6.592  -1.616  26.398  0.00  0.00    +0.040 C 
ATOM      2  C   UNL     1       7.270  -2.851  25.814  0.00  0.00    +0.147 C 
ATOM      3  C   UNL     1       8.638  -2.495  25.201  0.00  0.00    +0.146 C 
ATOM      4  C   UNL     1       9.356  -3.761  24.736  0.00  0.00    +0.070 C 
ATOM      5  C   UNL     1       9.374  -4.832  25.815  0.00  0.00    +0.173 C 
ATOM      6  C   UNL     1       7.955  -5.037  26.391  0.00  0.00    +0.276 C 
ATOM      7  O   UNL     1       7.402  -3.819  26.864  0.00  0.00    -0.343 OA
ENDROOT
BRANCH   3   8
ATOM      8  O   UNL     1       8.501  -1.605  24.107  0.00  0.00    -0.389 OA
ATOM      9  H   UNL     1       8.926  -2.000  23.326  0.00  0.00    +0.210 HD
ENDBRANCH   3   8
BRANCH   5  10
ATOM     10  O   UNL     1       9.893  -6.022  25.205  0.00  0.00    -0.387 OA
ATOM     11  H   UNL     1       9.166  -6.664  25.159  0.00  0.00    +0.210 HD
ENDBRANCH   5  10
BRANCH   6  12
ATOM     12  O   UNL     1       8.015  -5.947  27.481  0.00  0.00    -0.365 OA
ATOM     13  H   UNL     1       8.456  -5.445  28.185  0.00  0.00    +0.213 HD
ENDBRANCH   6  12
TORSDOF 3
ENDMDL
MODEL 7
REMARK VINA RESULT:      -4.1      2.238      3.094
REMARK  Name = 
REMARK  4 active torsions:
REMARK  status: ('A' for Active; 'I' for Inactive)
REMARK    1  A    between atoms: C_1  and  C_2
REMARK    2  A    between atoms: C_5  and  O_7
REMARK    3  A    between atoms: C_8  and  O_10
REMARK    4  A    between atoms: C_12  and  O_14
REMARK                            x       y       z     vdW  Elec       q    Type
REMARK                         _______ _______ _______ _____ _____    ______ ____
ROOT
ATOM      1  C   UNL     1       8.007  -1.392  25.363  0.00  0.00    +0.040 C 
ATOM      2  C   UNL     1       8.248  -0.325  24.299  0.00  0.00    +0.147 C 
ATOM      3  C   UNL     1       9.089   0.838  24.860  0.00  0.00    +0.146 C 
ATOM      4  C   UNL     1       9.426   1.831  23.749  0.00  0.00    +0.070 C 
ATOM      5  C   UNL     1       9.992   1.139  22.520  0.00  0.00    +0.173 C 
ATOM      6  C   UNL     1       9.091  -0.047  22.110  0.00  0.00    +0.276 C 
ATOM      7  O   UNL     1       8.898  -0.953  23.185  0.00  0.00    -0.343 OA
ENDROOT
BRANCH   3   8
ATOM      8  O   UNL     1       8.410   1.514  25.904  0.00  0.00    -0.389 OA
ATOM      9  H   UNL     1       7.888   2.239  25.521  0.00  0.00    +0.210 HD
ENDBRANCH   3   8
BRANCH   5  10
ATOM     10  O   UNL     1      10.084   2.135  21.492  0.00  0.00    -0.387 OA
ATOM     11  H   UNL     1       9.923   2.997  21.909  0.00  0.00    +0.210 HD
ENDBRANCH   5  10
BRANCH   6  12
ATOM     12  O   UNL     1       9.702  -0.756  21.041  0.00  0.00    -0.365 OA
ATOM     13  H   UNL     1      10.445  -1.221  21.458  0.00  0.00    +0.213 HD
ENDBRANCH   6  12
TORSDOF 3
ENDMDL
MODEL 8
REMARK VINA RESULT:      -4.1      4.178      6.099
REMARK  Name = 
REMARK  4 active torsions:
REMARK  status: ('A' for Active; 'I' for Inactive)
REMARK    1  A    between atoms: C_1  and  C_2
REMARK    2  A    between atoms: C_5  and  O_7
REMARK    3  A    between atoms: C_8  and  O_10
REMARK    4  A    between atoms: C_12  and  O_14
REMARK                            x       y       z     vdW  Elec       q    Type
REMARK                         _______ _______ _______ _____ _____    ______ ____
ROOT
ATOM      1  C   UNL     1       7.626  -3.066  22.622  0.00  0.00    +0.040 C 
ATOM      2  C   UNL     1       7.859  -4.068  23.749  0.00  0.00    +0.147 C 
ATOM      3  C   UNL     1       8.933  -3.560  24.730  0.00  0.00    +0.146 C 
ATOM      4  C   UNL     1       9.062  -4.514  25.916  0.00  0.00    +0.070 C 
ATOM      5  C   UNL     1       7.711  -4.843  26.529  0.00  0.00    +0.173 C 
ATOM      6  C   UNL     1       6.712  -5.269  25.430  0.00  0.00    +0.276 C 
ATOM      7  O   UNL     1       6.606  -4.286  24.412  0.00  0.00    -0.343 OA
ENDROOT
BRANCH   3   8
ATOM      8  O   UNL     1      10.194  -3.427  24.096  0.00  0.00    -0.389 OA
ATOM      9  H   UNL     1      10.806  -2.980  24.705  0.00  0.00    +0.210 HD
ENDBRANCH   3   8
BRANCH   5  10
ATOM     10  O   UNL     1       7.938  -5.882  27.492  0.00  0.00    -0.387 OA
ATOM     11  H   UNL     1       7.628  -6.715  27.098  0.00  0.00    +0.210 HD
ENDBRANCH   5  10
BRANCH   6  12
ATOM     12  O   UNL     1       5.426  -5.449  26.005  0.00  0.00    -0.365 OA
ATOM     13  H   UNL     1       4.813  -5.308  25.265  0.00  0.00    +0.213 HD
ENDBRANCH   6  12
TORSDOF 3
ENDMDL
MODEL 9
REMARK VINA RESULT:      -4.0      5.426      6.237
REMARK  Name = 
REMARK  4 active torsions:
REMARK  status: ('A' for Active; 'I' for Inactive)
REMARK    1  A    between atoms: C_1  and  C_2
REMARK    2  A    between atoms: C_5  and  O_7
REMARK    3  A    between atoms: C_8  and  O_10
REMARK    4  A    between atoms: C_12  and  O_14
REMARK                            x       y       z     vdW  Elec       q    Type
REMARK                         _______ _______ _______ _____ _____    ______ ____
ROOT
ATOM      1  C   UNL     1       6.775  -5.222  25.983  0.00  0.00    +0.040 C 
ATOM      2  C   UNL     1       6.523  -4.952  24.502  0.00  0.00    +0.147 C 
ATOM      3  C   UNL     1       7.772  -5.276  23.660  0.00  0.00    +0.146 C 
ATOM      4  C   UNL     1       7.462  -5.121  22.172  0.00  0.00    +0.070 C 
ATOM      5  C   UNL     1       6.190  -5.854  21.777  0.00  0.00    +0.173 C 
ATOM      6  C   UNL     1       5.041  -5.493  22.744  0.00  0.00    +0.276 C 
ATOM      7  O   UNL     1       5.397  -5.741  24.095  0.00  0.00    -0.343 OA
ENDROOT
BRANCH   3   8
ATOM      8  O   UNL     1       8.862  -4.437  24.001  0.00  0.00    -0.389 OA
ATOM      9  H   UNL     1       8.991  -4.466  24.964  0.00  0.00    +0.210 HD
ENDBRANCH   3   8
BRANCH   5  10
ATOM     10  O   UNL     1       5.902  -5.479  20.423  0.00  0.00    -0.387 OA
ATOM     11  H   UNL     1       5.292  -4.724  20.455  0.00  0.00    +0.210 HD
ENDBRANCH   5  10
BRANCH   6  12
ATOM     12  O   UNL     1       3.900  -6.282  22.437  0.00  0.00    -0.365 OA
ATOM     13  H   UNL     1       3.153  -5.756  22.765  0.00  0.00    +0.213 HD
ENDBRANCH   6  12
TORSDOF 3
ENDMDL
