MODEL 1
REMARK VINA RESULT:      -6.1      0.000      0.000
REMARK  Name = 
REMARK  9 active torsions:
REMARK  status: ('A' for Active; 'I' for Inactive)
REMARK    1  A    between atoms: C_1  and  C_2
REMARK    2  A    between atoms: C_2  and  C_3
REMARK    3  A    between atoms: C_3  and  N_4
REMARK    4  A    between atoms: N_4  and  C_5
REMARK    5  A    between atoms: N_4  and  C_8
REMARK    6  A    between atoms: C_5  and  C_6
REMARK    7  A    between atoms: C_6  and  C_7
REMARK    8  A    between atoms: C_8  and  C_9
REMARK    9  A    between atoms: C_9  and  C_10
REMARK                            x       y       z     vdW  Elec       q    Type
REMARK                         _______ _______ _______ _____ _____    ______ ____
ROOT
ATOM      1  C   UNL     1       7.543  -4.915  24.718  0.00  0.00    -0.041 A 
ATOM      2  C   UNL     1       6.918  -5.289  25.922  0.00  0.00    +0.004 A 
ATOM      3  C   UNL     1       5.682  -5.965  25.927  0.00  0.00    +0.002 A 
ATOM      4  C   UNL     1       5.037  -6.280  24.731  0.00  0.00    +0.023 A 
ATOM      5  C   UNL     1       5.662  -5.905  23.563  0.00  0.00    +0.037 A 
ATOM      6  N   UNL     1       5.212  -6.105  22.268  0.00  0.00    -0.285 N 
ATOM      7  H   UNL     1       4.351  -6.561  22.005  0.00  0.00    +0.155 HD
ATOM      8  C   UNL     1       6.104  -5.592  21.338  0.00  0.00    +0.222 C 
ATOM      9  O   UNL     1       5.968  -5.622  20.127  0.00  0.00    -0.275 OA
ATOM     10  C   UNL     1       7.279  -4.985  22.111  0.00  0.00    +0.133 C 
ATOM     11  C   UNL     1       6.887  -5.239  23.539  0.00  0.00    -0.014 A 
ENDROOT
BRANCH   1  12
ATOM     12  C   UNL     1       8.846  -4.153  24.735  0.00  0.00    +0.051 C 
BRANCH  12  13
ATOM     13  C   UNL     1       8.600  -2.632  24.739  0.00  0.00    +0.089 C 
BRANCH  13  14
ATOM     14  N   UNL     1       9.788  -1.785  24.477  0.00  0.00    -0.302 NA
BRANCH  14  15
ATOM     15  C   UNL     1      10.150  -1.906  23.048  0.00  0.00    +0.084 C 
BRANCH  15  17
ATOM     16  C   UNL     1       9.355  -0.223  21.291  0.00  0.00    +0.005 C 
ATOM     17  C   UNL     1       9.072  -1.526  22.023  0.00  0.00    +0.012 C 
ENDBRANCH  15  17
ENDBRANCH  14  15
BRANCH  14  18
ATOM     18  C   UNL     1       9.627  -0.393  24.931  0.00  0.00    +0.084 C 
BRANCH  18  19
ATOM     19  C   UNL     1      10.838   0.528  24.729  0.00  0.00    +0.012 C 
ATOM     20  C   UNL     1      10.434   1.845  24.084  0.00  0.00    +0.005 C 
ENDBRANCH  18  19
ENDBRANCH  14  18
ENDBRANCH  13  14
ENDBRANCH  12  13
ENDBRANCH   1  12
TORSDOF 7
ENDMDL
MODEL 2
REMARK VINA RESULT:      -6.0      1.213      2.081
REMARK  Name = 
REMARK  9 active torsions:
REMARK  status: ('A' for Active; 'I' for Inactive)
REMARK    1  A    between atoms: C_1  and  C_2
REMARK    2  A    between atoms: C_2  and  C_3
REMARK    3  A    between atoms: C_3  and  N_4
REMARK    4  A    between atoms: N_4  and  C_5
REMARK    5  A    between atoms: N_4  and  C_8
REMARK    6  A    between atoms: C_5  and  C_6
REMARK    7  A    between atoms: C_6  and  C_7
REMARK    8  A    between atoms: C_8  and  C_9
REMARK    9  A    between atoms: C_9  and  C_10
REMARK                            x       y       z     vdW  Elec       q    Type
REMARK                         _______ _______ _______ _____ _____    ______ ____
ROOT
ATOM      1  C   UNL     1       7.697  -5.095  24.756  0.00  0.00    -0.041 A 
ATOM      2  C   UNL     1       7.063  -5.345  25.988  0.00  0.00    +0.004 A 
ATOM      3  C   UNL     1       5.755  -5.865  26.047  0.00  0.00    +0.002 A 
ATOM      4  C   UNL     1       5.045  -6.142  24.879  0.00  0.00    +0.023 A 
ATOM      5  C   UNL     1       5.679  -5.890  23.683  0.00  0.00    +0.037 A 
ATOM      6  N   UNL     1       5.173  -6.081  22.408  0.00  0.00    -0.285 N 
ATOM      7  H   UNL     1       4.256  -6.438  22.182  0.00  0.00    +0.155 HD
ATOM      8  C   UNL     1       6.096  -5.714  21.439  0.00  0.00    +0.222 C 
ATOM      9  O   UNL     1       5.925  -5.772  20.233  0.00  0.00    -0.275 OA
ATOM     10  C   UNL     1       7.356  -5.227  22.160  0.00  0.00    +0.133 C 
ATOM     11  C   UNL     1       6.975  -5.379  23.606  0.00  0.00    -0.014 A 
ENDROOT
BRANCH   1  12
ATOM     12  C   UNL     1       9.082  -4.497  24.713  0.00  0.00    +0.051 C 
BRANCH  12  13
ATOM     13  C   UNL     1       9.035  -2.970  24.914  0.00  0.00    +0.089 C 
BRANCH  13  14
ATOM     14  N   UNL     1       8.640  -2.175  23.727  0.00  0.00    -0.302 NA
BRANCH  14  15
ATOM     15  C   UNL     1       7.469  -1.344  24.082  0.00  0.00    +0.084 C 
BRANCH  15  17
ATOM     16  C   UNL     1       5.205  -2.279  24.825  0.00  0.00    +0.005 C 
ATOM     17  C   UNL     1       6.089  -1.869  23.658  0.00  0.00    +0.012 C 
ENDBRANCH  15  17
ENDBRANCH  14  15
BRANCH  14  18
ATOM     18  C   UNL     1       9.753  -1.409  23.138  0.00  0.00    +0.084 C 
BRANCH  18  19
ATOM     19  C   UNL     1       9.533  -0.890  21.710  0.00  0.00    +0.012 C 
ATOM     20  C   UNL     1       9.550   0.630  21.662  0.00  0.00    +0.005 C 
ENDBRANCH  18  19
ENDBRANCH  14  18
ENDBRANCH  13  14
ENDBRANCH  12  13
ENDBRANCH   1  12
TORSDOF 7
ENDMDL
MODEL 3
REMARK VINA RESULT:      -5.9      1.231      2.029
REMARK  Name = 
REMARK  9 active torsions:
REMARK  status: ('A' for Active; 'I' for Inactive)
REMARK    1  A    between atoms: C_1  and  C_2
REMARK    2  A    between atoms: C_2  and  C_3
REMARK    3  A    between atoms: C_3  and  N_4
REMARK    4  A    between atoms: N_4  and  C_5
REMARK    5  A    between atoms: N_4  and  C_8
REMARK    6  A    between atoms: C_5  and  C_6
REMARK    7  A    between atoms: C_6  and  C_7
REMARK    8  A    between atoms: C_8  and  C_9
REMARK    9  A    between atoms: C_9  and  C_10
REMARK                            x       y       z     vdW  Elec       q    Type
REMARK                         _______ _______ _______ _____ _____    ______ ____
ROOT
ATOM      1  C   UNL     1       7.367  -5.172  24.794  0.00  0.00    -0.041 A 
ATOM      2  C   UNL     1       6.646  -5.494  25.959  0.00  0.00    +0.004 A 
ATOM      3  C   UNL     1       5.351  -6.044  25.892  0.00  0.00    +0.002 A 
ATOM      4  C   UNL     1       4.741  -6.281  24.660  0.00  0.00    +0.023 A 
ATOM      5  C   UNL     1       5.459  -5.959  23.531  0.00  0.00    +0.037 A 
ATOM      6  N   UNL     1       5.059  -6.101  22.212  0.00  0.00    -0.285 N 
ATOM      7  H   UNL     1       4.171  -6.466  21.899  0.00  0.00    +0.155 HD
ATOM      8  C   UNL     1       6.044  -5.669  21.336  0.00  0.00    +0.222 C 
ATOM      9  O   UNL     1       5.969  -5.674  20.120  0.00  0.00    -0.275 OA
ATOM     10  C   UNL     1       7.232  -5.189  22.176  0.00  0.00    +0.133 C 
ATOM     11  C   UNL     1       6.743  -5.418  23.579  0.00  0.00    -0.014 A 
ENDROOT
BRANCH   1  12
ATOM     12  C   UNL     1       8.735  -4.543  24.888  0.00  0.00    +0.051 C 
BRANCH  12  13
ATOM     13  C   UNL     1       8.685  -3.216  25.667  0.00  0.00    +0.089 C 
BRANCH  13  14
ATOM     14  N   UNL     1       8.830  -1.984  24.855  0.00  0.00    -0.302 NA
BRANCH  14  15
ATOM     15  C   UNL     1       9.356  -2.353  23.524  0.00  0.00    +0.084 C 
BRANCH  15  17
ATOM     16  C   UNL     1       9.503  -0.664  21.606  0.00  0.00    +0.005 C 
ATOM     17  C   UNL     1      10.205  -1.300  22.795  0.00  0.00    +0.012 C 
ENDBRANCH  15  17
ENDBRANCH  14  15
BRANCH  14  18
ATOM     18  C   UNL     1       7.602  -1.170  24.803  0.00  0.00    +0.084 C 
BRANCH  18  19
ATOM     19  C   UNL     1       6.510  -1.658  23.840  0.00  0.00    +0.012 C 
ATOM     20  C   UNL     1       5.289  -2.162  24.594  0.00  0.00    +0.005 C 
ENDBRANCH  18  19
ENDBRANCH  14  18
ENDBRANCH  13  14
ENDBRANCH  12  13
ENDBRANCH   1  12
TORSDOF 7
ENDMDL
MODEL 4
REMARK VINA RESULT:      -5.9      2.560      3.782
REMARK  Name = 
REMARK  9 active torsions:
REMARK  status: ('A' for Active; 'I' for Inactive)
REMARK    1  A    between atoms: C_1  and  C_2
REMARK    2  A    between atoms: C_2  and  C_3
REMARK    3  A    between atoms: C_3  and  N_4
REMARK    4  A    between atoms: N_4  and  C_5
REMARK    5  A    between atoms: N_4  and  C_8
REMARK    6  A    between atoms: C_5  and  C_6
REMARK    7  A    between atoms: C_6  and  C_7
REMARK    8  A    between atoms: C_8  and  C_9
REMARK    9  A    between atoms: C_9  and  C_10
REMARK                            x       y       z     vdW  Elec       q    Type
REMARK                         _______ _______ _______ _____ _____    ______ ____
ROOT
ATOM      1  C   UNL     1       8.519  -3.139  23.793  0.00  0.00    -0.041 A 
ATOM      2  C   UNL     1       7.822  -3.069  22.573  0.00  0.00    +0.004 A 
ATOM      3  C   UNL     1       6.647  -3.816  22.356  0.00  0.00    +0.002 A 
ATOM      4  C   UNL     1       6.143  -4.656  23.349  0.00  0.00    +0.023 A 
ATOM      5  C   UNL     1       6.839  -4.714  24.536  0.00  0.00    +0.037 A 
ATOM      6  N   UNL     1       6.533  -5.475  25.652  0.00  0.00    -0.285 N 
ATOM      7  H   UNL     1       5.745  -6.099  25.745  0.00  0.00    +0.155 HD
ATOM      8  C   UNL     1       7.461  -5.282  26.664  0.00  0.00    +0.222 C 
ATOM      9  O   UNL     1       7.447  -5.821  27.757  0.00  0.00    -0.275 OA
ATOM     10  C   UNL     1       8.498  -4.275  26.156  0.00  0.00    +0.133 C 
ATOM     11  C   UNL     1       8.000  -3.978  24.769  0.00  0.00    -0.014 A 
ENDROOT
BRANCH   1  12
ATOM     12  C   UNL     1       9.799  -2.365  23.991  0.00  0.00    +0.051 C 
BRANCH  12  13
ATOM     13  C   UNL     1       9.542  -1.049  24.750  0.00  0.00    +0.089 C 
BRANCH  13  14
ATOM     14  N   UNL     1       8.855   0.016  23.982  0.00  0.00    -0.302 NA
BRANCH  14  15
ATOM     15  C   UNL     1       7.652   0.439  24.729  0.00  0.00    +0.084 C 
BRANCH  15  17
ATOM     16  C   UNL     1       5.696  -1.157  25.152  0.00  0.00    +0.005 C 
ATOM     17  C   UNL     1       6.301  -0.104  24.238  0.00  0.00    +0.012 C 
ENDBRANCH  15  17
ENDBRANCH  14  15
BRANCH  14  18
ATOM     18  C   UNL     1       9.742   1.132  23.607  0.00  0.00    +0.084 C 
BRANCH  18  19
ATOM     19  C   UNL     1       9.943   1.358  22.101  0.00  0.00    +0.012 C 
ATOM     20  C   UNL     1       9.264   0.272  21.281  0.00  0.00    +0.005 C 
ENDBRANCH  18  19
ENDBRANCH  14  18
ENDBRANCH  13  14
ENDBRANCH  12  13
ENDBRANCH   1  12
TORSDOF 7
ENDMDL
MODEL 5
REMARK VINA RESULT:      -5.9      2.500      3.566
REMARK  Name = 
REMARK  9 active torsions:
REMARK  status: ('A' for Active; 'I' for Inactive)
REMARK    1  A    between atoms: C_1  and  C_2
REMARK    2  A    between atoms: C_2  and  C_3
REMARK    3  A    between atoms: C_3  and  N_4
REMARK    4  A    between atoms: N_4  and  C_5
REMARK    5  A    between atoms: N_4  and  C_8
REMARK    6  A    between atoms: C_5  and  C_6
REMARK    7  A    between atoms: C_6  and  C_7
REMARK    8  A    between atoms: C_8  and  C_9
REMARK    9  A    between atoms: C_9  and  C_10
REMARK                            x       y       z     vdW  Elec       q    Type
REMARK                         _______ _______ _______ _____ _____    ______ ____
ROOT
ATOM      1  C   UNL     1       8.610  -2.935  23.635  0.00  0.00    -0.041 A 
ATOM      2  C   UNL     1       7.776  -2.615  22.548  0.00  0.00    +0.004 A 
ATOM      3  C   UNL     1       6.451  -3.086  22.477  0.00  0.00    +0.002 A 
ATOM      4  C   UNL     1       5.927  -3.894  23.487  0.00  0.00    +0.023 A 
ATOM      5  C   UNL     1       6.757  -4.199  24.542  0.00  0.00    +0.037 A 
ATOM      6  N   UNL     1       6.459  -4.981  25.646  0.00  0.00    -0.285 N 
ATOM      7  H   UNL     1       5.578  -5.438  25.826  0.00  0.00    +0.155 HD
ATOM      8  C   UNL     1       7.543  -5.072  26.507  0.00  0.00    +0.222 C 
ATOM      9  O   UNL     1       7.570  -5.694  27.555  0.00  0.00    -0.275 OA
ATOM     10  C   UNL     1       8.686  -4.253  25.900  0.00  0.00    +0.133 C 
ATOM     11  C   UNL     1       8.070  -3.738  24.630  0.00  0.00    -0.014 A 
ENDROOT
BRANCH   1  12
ATOM     12  C   UNL     1      10.041  -2.457  23.672  0.00  0.00    +0.051 C 
BRANCH  12  13
ATOM     13  C   UNL     1      10.240  -1.228  22.765  0.00  0.00    +0.089 C 
BRANCH  13  14
ATOM     14  N   UNL     1      10.640   0.024  23.451  0.00  0.00    -0.302 NA
BRANCH  14  15
ATOM     15  C   UNL     1      10.157   1.174  22.658  0.00  0.00    +0.084 C 
BRANCH  15  17
ATOM     16  C   UNL     1       7.904   1.711  21.569  0.00  0.00    +0.005 C 
ATOM     17  C   UNL     1       9.170   0.871  21.521  0.00  0.00    +0.012 C 
ENDBRANCH  15  17
ENDBRANCH  14  15
BRANCH  14  18
ATOM     18  C   UNL     1      10.237   0.070  24.868  0.00  0.00    +0.084 C 
BRANCH  18  19
ATOM     19  C   UNL     1       8.847   0.656  25.155  0.00  0.00    +0.012 C 
ATOM     20  C   UNL     1       8.037  -0.255  26.066  0.00  0.00    +0.005 C 
ENDBRANCH  18  19
ENDBRANCH  14  18
ENDBRANCH  13  14
ENDBRANCH  12  13
ENDBRANCH   1  12
TORSDOF 7
ENDMDL
MODEL 6
REMARK VINA RESULT:      -5.7      1.914      3.058
REMARK  Name = 
REMARK  9 active torsions:
REMARK  status: ('A' for Active; 'I' for Inactive)
REMARK    1  A    between atoms: C_1  and  C_2
REMARK    2  A    between atoms: C_2  and  C_3
REMARK    3  A    between atoms: C_3  and  N_4
REMARK    4  A    between atoms: N_4  and  C_5
REMARK    5  A    between atoms: N_4  and  C_8
REMARK    6  A    between atoms: C_5  and  C_6
REMARK    7  A    between atoms: C_6  and  C_7
REMARK    8  A    between atoms: C_8  and  C_9
REMARK    9  A    between atoms: C_9  and  C_10
REMARK                            x       y       z     vdW  Elec       q    Type
REMARK                         _______ _______ _______ _____ _____    ______ ____
ROOT
ATOM      1  C   UNL     1       8.582  -2.672  23.054  0.00  0.00    -0.041 A 
ATOM      2  C   UNL     1       9.576  -2.990  23.999  0.00  0.00    +0.004 A 
ATOM      3  C   UNL     1       9.363  -3.974  24.984  0.00  0.00    +0.002 A 
ATOM      4  C   UNL     1       8.151  -4.661  25.054  0.00  0.00    +0.023 A 
ATOM      5  C   UNL     1       7.189  -4.336  24.124  0.00  0.00    +0.037 A 
ATOM      6  N   UNL     1       5.920  -4.877  24.004  0.00  0.00    -0.285 N 
ATOM      7  H   UNL     1       5.525  -5.594  24.594  0.00  0.00    +0.155 HD
ATOM      8  C   UNL     1       5.224  -4.304  22.950  0.00  0.00    +0.222 C 
ATOM      9  O   UNL     1       4.087  -4.582  22.611  0.00  0.00    -0.275 OA
ATOM     10  C   UNL     1       6.144  -3.266  22.299  0.00  0.00    +0.133 C 
ATOM     11  C   UNL     1       7.385  -3.367  23.140  0.00  0.00    -0.014 A 
ENDROOT
BRANCH   1  12
ATOM     12  C   UNL     1       8.814  -1.584  22.034  0.00  0.00    +0.051 C 
BRANCH  12  13
ATOM     13  C   UNL     1      10.140  -0.847  22.298  0.00  0.00    +0.089 C 
BRANCH  13  14
ATOM     14  N   UNL     1      10.110   0.624  22.111  0.00  0.00    -0.302 NA
BRANCH  14  15
ATOM     15  C   UNL     1       8.910   0.977  21.324  0.00  0.00    +0.084 C 
BRANCH  15  17
ATOM     16  C   UNL     1       6.719   1.621  22.481  0.00  0.00    +0.005 C 
ATOM     17  C   UNL     1       8.025   2.107  21.874  0.00  0.00    +0.012 C 
ENDBRANCH  15  17
ENDBRANCH  14  15
BRANCH  14  18
ATOM     18  C   UNL     1      10.236   1.377  23.372  0.00  0.00    +0.084 C 
BRANCH  18  19
ATOM     19  C   UNL     1      10.285   0.538  24.657  0.00  0.00    +0.012 C 
ATOM     20  C   UNL     1       8.925   0.485  25.338  0.00  0.00    +0.005 C 
ENDBRANCH  18  19
ENDBRANCH  14  18
ENDBRANCH  13  14
ENDBRANCH  12  13
ENDBRANCH   1  12
TORSDOF 7
ENDMDL
MODEL 7
REMARK VINA RESULT:      -5.7      3.488      6.653
REMARK  Name = 
REMARK  9 active torsions:
REMARK  status: ('A' for Active; 'I' for Inactive)
REMARK    1  A    between atoms: C_1  and  C_2
REMARK    2  A    between atoms: C_2  and  C_3
REMARK    3  A    between atoms: C_3  and  N_4
REMARK    4  A    between atoms: N_4  and  C_5
REMARK    5  A    between atoms: N_4  and  C_8
REMARK    6  A    between atoms: C_5  and  C_6
REMARK    7  A    between atoms: C_6  and  C_7
REMARK    8  A    between atoms: C_8  and  C_9
REMARK    9  A    between atoms: C_9  and  C_10
REMARK                            x       y       z     vdW  Elec       q    Type
REMARK                         _______ _______ _______ _____ _____    ______ ____
ROOT
ATOM      1  C   UNL     1       9.326  -0.681  24.081  0.00  0.00    -0.041 A 
ATOM      2  C   UNL     1       9.002  -1.660  23.123  0.00  0.00    +0.004 A 
ATOM      3  C   UNL     1       9.084  -1.391  21.743  0.00  0.00    +0.002 A 
ATOM      4  C   UNL     1       9.486  -0.136  21.284  0.00  0.00    +0.023 A 
ATOM      5  C   UNL     1       9.798   0.810  22.234  0.00  0.00    +0.037 A 
ATOM      6  N   UNL     1      10.212   2.114  22.017  0.00  0.00    -0.285 N 
ATOM      7  H   UNL     1      10.343   2.550  21.117  0.00  0.00    +0.155 HD
ATOM      8  C   UNL     1      10.434   2.779  23.214  0.00  0.00    +0.222 C 
ATOM      9  O   UNL     1      10.802   3.936  23.329  0.00  0.00    -0.275 OA
ATOM     10  C   UNL     1      10.132   1.799  24.351  0.00  0.00    +0.133 C 
ATOM     11  C   UNL     1       9.726   0.560  23.605  0.00  0.00    -0.014 A 
ENDROOT
BRANCH   1  12
ATOM     12  C   UNL     1       9.190  -0.975  25.555  0.00  0.00    +0.051 C 
BRANCH  12  13
ATOM     13  C   UNL     1       7.709  -1.051  25.972  0.00  0.00    +0.089 C 
BRANCH  13  14
ATOM     14  N   UNL     1       7.250  -2.363  26.487  0.00  0.00    -0.302 NA
BRANCH  14  15
ATOM     15  C   UNL     1       5.970  -2.708  25.832  0.00  0.00    +0.084 C 
BRANCH  15  17
ATOM     16  C   UNL     1       5.524  -2.940  23.322  0.00  0.00    +0.005 C 
ATOM     17  C   UNL     1       5.653  -1.997  24.508  0.00  0.00    +0.012 C 
ENDBRANCH  15  17
ENDBRANCH  14  15
BRANCH  14  18
ATOM     18  C   UNL     1       8.271  -3.422  26.386  0.00  0.00    +0.084 C 
BRANCH  18  19
ATOM     19  C   UNL     1       7.800  -4.760  25.799  0.00  0.00    +0.012 C 
ATOM     20  C   UNL     1       8.515  -5.076  24.494  0.00  0.00    +0.005 C 
ENDBRANCH  18  19
ENDBRANCH  14  18
ENDBRANCH  13  14
ENDBRANCH  12  13
ENDBRANCH   1  12
TORSDOF 7
ENDMDL
MODEL 8
REMARK VINA RESULT:      -5.5      1.443      2.437
REMARK  Name = 
REMARK  9 active torsions:
REMARK  status: ('A' for Active; 'I' for Inactive)
REMARK    1  A    between atoms: C_1  and  C_2
REMARK    2  A    between atoms: C_2  and  C_3
REMARK    3  A    between atoms: C_3  and  N_4
REMARK    4  A    between atoms: N_4  and  C_5
REMARK    5  A    between atoms: N_4  and  C_8
REMARK    6  A    between atoms: C_5  and  C_6
REMARK    7  A    between atoms: C_6  and  C_7
REMARK    8  A    between atoms: C_8  and  C_9
REMARK    9  A    between atoms: C_9  and  C_10
REMARK                            x       y       z     vdW  Elec       q    Type
REMARK                         _______ _______ _______ _____ _____    ______ ____
ROOT
ATOM      1  C   UNL     1       8.666  -3.807  24.709  0.00  0.00    -0.041 A 
ATOM      2  C   UNL     1       8.559  -3.925  26.108  0.00  0.00    +0.004 A 
ATOM      3  C   UNL     1       7.488  -4.617  26.705  0.00  0.00    +0.002 A 
ATOM      4  C   UNL     1       6.493  -5.204  25.922  0.00  0.00    +0.023 A 
ATOM      5  C   UNL     1       6.613  -5.078  24.556  0.00  0.00    +0.037 A 
ATOM      6  N   UNL     1       5.752  -5.569  23.589  0.00  0.00    -0.285 N 
ATOM      7  H   UNL     1       4.907  -6.095  23.761  0.00  0.00    +0.155 HD
ATOM      8  C   UNL     1       6.190  -5.248  22.313  0.00  0.00    +0.222 C 
ATOM      9  O   UNL     1       5.632  -5.547  21.271  0.00  0.00    -0.275 OA
ATOM     10  C   UNL     1       7.492  -4.454  22.457  0.00  0.00    +0.133 C 
ATOM     11  C   UNL     1       7.669  -4.400  23.948  0.00  0.00    -0.014 A 
ENDROOT
BRANCH   1  12
ATOM     12  C   UNL     1       9.798  -3.025  24.090  0.00  0.00    +0.051 C 
BRANCH  12  13
ATOM     13  C   UNL     1       9.333  -1.621  23.659  0.00  0.00    +0.089 C 
BRANCH  13  14
ATOM     14  N   UNL     1       9.334  -0.586  24.721  0.00  0.00    -0.302 NA
BRANCH  14  15
ATOM     15  C   UNL     1      10.402   0.393  24.429  0.00  0.00    +0.084 C 
BRANCH  15  17
ATOM     16  C   UNL     1      10.064   1.769  22.297  0.00  0.00    +0.005 C 
ATOM     17  C   UNL     1       9.969   1.732  23.814  0.00  0.00    +0.012 C 
ENDBRANCH  15  17
ENDBRANCH  14  15
BRANCH  14  18
ATOM     18  C   UNL     1       8.012   0.027  24.941  0.00  0.00    +0.084 C 
BRANCH  18  19
ATOM     19  C   UNL     1       6.861  -0.526  24.089  0.00  0.00    +0.012 C 
ATOM     20  C   UNL     1       5.863  -1.299  24.938  0.00  0.00    +0.005 C 
ENDBRANCH  18  19
ENDBRANCH  14  18
ENDBRANCH  13  14
ENDBRANCH  12  13
ENDBRANCH   1  12
TORSDOF 7
ENDMDL
MODEL 9
REMARK VINA RESULT:      -5.5      3.100      6.385
REMARK  Name = 
REMARK  9 active torsions:
REMARK  status: ('A' for Active; 'I' for Inactive)
REMARK    1  A    between atoms: C_1  and  C_2
REMARK    2  A    between atoms: C_2  and  C_3
REMARK    3  A    between atoms: C_3  and  N_4
REMARK    4  A    between atoms: N_4  and  C_5
REMARK    5  A    between atoms: N_4  and  C_8
REMARK    6  A    between atoms: C_5  and  C_6
REMARK    7  A    between atoms: C_6  and  C_7
REMARK    8  A    between atoms: C_8  and  C_9
REMARK    9  A    between atoms: C_9  and  C_10
REMARK                            x       y       z     vdW  Elec       q    Type
REMARK                         _______ _______ _______ _____ _____    ______ ____
ROOT
ATOM      1  C   UNL     1       7.689  -0.955  22.980  0.00  0.00    -0.041 A 
ATOM      2  C   UNL     1       8.823  -1.761  22.769  0.00  0.00    +0.004 A 
ATOM      3  C   UNL     1       9.993  -1.241  22.183  0.00  0.00    +0.002 A 
ATOM      4  C   UNL     1      10.059   0.095  21.788  0.00  0.00    +0.023 A 
ATOM      5  C   UNL     1       8.941   0.869  22.000  0.00  0.00    +0.037 A 
ATOM      6  N   UNL     1       8.775   2.209  21.687  0.00  0.00    -0.285 N 
ATOM      7  H   UNL     1       9.465   2.805  21.255  0.00  0.00    +0.155 HD
ATOM      8  C   UNL     1       7.511   2.657  22.044  0.00  0.00    +0.222 C 
ATOM      9  O   UNL     1       7.086   3.789  21.886  0.00  0.00    -0.275 OA
ATOM     10  C   UNL     1       6.760   1.476  22.665  0.00  0.00    +0.133 C 
ATOM     11  C   UNL     1       7.775   0.372  22.582  0.00  0.00    -0.014 A 
ENDROOT
BRANCH   1  12
ATOM     12  C   UNL     1       6.429  -1.541  23.569  0.00  0.00    +0.051 C 
BRANCH  12  13
ATOM     13  C   UNL     1       6.748  -2.452  24.769  0.00  0.00    +0.089 C 
BRANCH  13  14
ATOM     14  N   UNL     1       6.269  -3.851  24.663  0.00  0.00    -0.302 NA
BRANCH  14  15
ATOM     15  C   UNL     1       6.028  -4.163  23.238  0.00  0.00    +0.084 C 
BRANCH  15  17
ATOM     16  C   UNL     1       6.436  -6.064  21.573  0.00  0.00    +0.005 C 
ATOM     17  C   UNL     1       7.055  -5.069  22.541  0.00  0.00    +0.012 C 
ENDBRANCH  15  17
ENDBRANCH  14  15
BRANCH  14  18
ATOM     18  C   UNL     1       7.144  -4.823  25.343  0.00  0.00    +0.084 C 
BRANCH  18  19
ATOM     19  C   UNL     1       8.445  -4.261  25.934  0.00  0.00    +0.012 C 
ATOM     20  C   UNL     1       9.666  -4.949  25.343  0.00  0.00    +0.005 C 
ENDBRANCH  18  19
ENDBRANCH  14  18
ENDBRANCH  13  14
ENDBRANCH  12  13
ENDBRANCH   1  12
TORSDOF 7
ENDMDL
