MODEL 1
REMARK VINA RESULT:      -6.0      0.000      0.000
REMARK  Name = 
REMARK  6 active torsions:
REMARK  status: ('A' for Active; 'I' for Inactive)
REMARK    1  A    between atoms: N_1  and  CA_2
REMARK    2  A    between atoms: CA_2  and  C_4
REMARK    3  A    between atoms: CA_2  and  C_14
REMARK    4  A    between atoms: C_4  and  N_5
REMARK    5  A    between atoms: C_6  and  C_8
REMARK    6  A    between atoms: C_14  and  O_15
REMARK                            x       y       z     vdW  Elec       q    Type
REMARK                         _______ _______ _______ _____ _____    ______ ____
ROOT
ATOM      1  N   UNL     1       8.530  -2.578  23.891  0.00  0.00    -0.309 N 
ATOM      2  H   UNL     1       7.748  -1.931  23.865  0.00  0.00    +0.149 HD
ATOM      3  C   UNL     1       9.791  -2.139  23.559  0.00  0.00    +0.244 C 
ATOM      4  O   UNL     1      10.724  -2.903  23.342  0.00  0.00    -0.270 OA
ENDROOT
BRANCH   3   5
ATOM      5  C   UNL     1       9.951  -0.668  23.395  0.00  0.00    +0.037 A 
ATOM      6  C   UNL     1       9.779  -0.118  22.119  0.00  0.00    +0.013 A 
ATOM      7  C   UNL     1       9.897   1.260  21.931  0.00  0.00    +0.001 A 
ATOM      8  C   UNL     1      10.199   2.089  23.011  0.00  0.00    +0.000 A 
ATOM      9  C   UNL     1      10.395   1.543  24.279  0.00  0.00    +0.001 A 
ATOM     10  C   UNL     1      10.276   0.165  24.474  0.00  0.00    +0.013 A 
ENDBRANCH   3   5
BRANCH   1  11
ATOM     11  C   UNL     1       8.219  -3.982  24.112  0.00  0.00    +0.134 C 
BRANCH  11  12
ATOM     12  CA  UNL     1       8.779  -4.550  25.428  0.00  0.00    +0.178 C 
BRANCH  12  13
ATOM     13  N   UNL     1       9.989  -5.416  25.263  0.00  0.00    -0.317 NA
ATOM     14  H1  UNL     1      10.606  -4.938  24.591  0.00  0.00    +0.119 HD
ATOM     15  H2  UNL     1      10.542  -5.322  26.124  0.00  0.00    +0.119 HD
ENDBRANCH  12  13
BRANCH  12  16
ATOM     16  C   UNL     1       7.705  -5.363  26.162  0.00  0.00    +0.323 C 
ATOM     17  OXT UNL     1       6.583  -5.603  25.746  0.00  0.00    -0.249 OA
BRANCH  16  18
ATOM     18  O   UNL     1       8.160  -5.784  27.373  0.00  0.00    -0.479 OA
ATOM     19  H   UNL     1       9.128  -5.958  27.250  0.00  0.00    +0.295 HD
ENDBRANCH  16  18
ENDBRANCH  12  16
ENDBRANCH  11  12
ENDBRANCH   1  11
TORSDOF 6
ENDMDL
MODEL 2
REMARK VINA RESULT:      -5.7      1.935      2.175
REMARK  Name = 
REMARK  6 active torsions:
REMARK  status: ('A' for Active; 'I' for Inactive)
REMARK    1  A    between atoms: N_1  and  CA_2
REMARK    2  A    between atoms: CA_2  and  C_4
REMARK    3  A    between atoms: CA_2  and  C_14
REMARK    4  A    between atoms: C_4  and  N_5
REMARK    5  A    between atoms: C_6  and  C_8
REMARK    6  A    between atoms: C_14  and  O_15
REMARK                            x       y       z     vdW  Elec       q    Type
REMARK                         _______ _______ _______ _____ _____    ______ ____
ROOT
ATOM      1  N   UNL     1       8.759  -2.432  25.339  0.00  0.00    -0.309 N 
ATOM      2  H   UNL     1       8.960  -2.882  24.452  0.00  0.00    +0.149 HD
ATOM      3  C   UNL     1       9.006  -1.087  25.495  0.00  0.00    +0.244 C 
ATOM      4  O   UNL     1       9.012  -0.535  26.588  0.00  0.00    -0.270 OA
ENDROOT
BRANCH   3   5
ATOM      5  C   UNL     1       9.351  -0.337  24.256  0.00  0.00    +0.037 A 
ATOM      6  C   UNL     1       9.178  -0.974  23.021  0.00  0.00    +0.013 A 
ATOM      7  C   UNL     1       9.469  -0.294  21.838  0.00  0.00    +0.001 A 
ATOM      8  C   UNL     1       9.941   1.017  21.884  0.00  0.00    +0.000 A 
ATOM      9  C   UNL     1      10.137   1.648  23.112  0.00  0.00    +0.001 A 
ATOM     10  C   UNL     1       9.847   0.973  24.299  0.00  0.00    +0.013 A 
ENDBRANCH   3   5
BRANCH   1  11
ATOM     11  C   UNL     1       8.384  -3.296  26.449  0.00  0.00    +0.134 C 
BRANCH  11  12
ATOM     12  CA  UNL     1       8.048  -4.739  26.036  0.00  0.00    +0.178 C 
BRANCH  12  13
ATOM     13  N   UNL     1       8.248  -5.754  27.118  0.00  0.00    -0.317 NA
ATOM     14  H1  UNL     1       9.084  -5.465  27.645  0.00  0.00    +0.119 HD
ATOM     15  H2  UNL     1       7.516  -5.588  27.821  0.00  0.00    +0.119 HD
ENDBRANCH  12  13
BRANCH  12  16
ATOM     16  C   UNL     1       8.888  -5.160  24.824  0.00  0.00    +0.323 C 
ATOM     17  OXT UNL     1       8.470  -5.332  23.690  0.00  0.00    -0.249 OA
BRANCH  16  18
ATOM     18  O   UNL     1      10.189  -5.342  25.176  0.00  0.00    -0.479 OA
ATOM     19  H   UNL     1      10.505  -4.459  25.497  0.00  0.00    +0.295 HD
ENDBRANCH  16  18
ENDBRANCH  12  16
ENDBRANCH  11  12
ENDBRANCH   1  11
TORSDOF 6
ENDMDL
MODEL 3
REMARK VINA RESULT:      -5.7      1.201      1.919
REMARK  Name = 
REMARK  6 active torsions:
REMARK  status: ('A' for Active; 'I' for Inactive)
REMARK    1  A    between atoms: N_1  and  CA_2
REMARK    2  A    between atoms: CA_2  and  C_4
REMARK    3  A    between atoms: CA_2  and  C_14
REMARK    4  A    between atoms: C_4  and  N_5
REMARK    5  A    between atoms: C_6  and  C_8
REMARK    6  A    between atoms: C_14  and  O_15
REMARK                            x       y       z     vdW  Elec       q    Type
REMARK                         _______ _______ _______ _____ _____    ______ ____
ROOT
ATOM      1  N   UNL     1       8.292  -2.688  23.113  0.00  0.00    -0.309 N 
ATOM      2  H   UNL     1       7.640  -2.055  22.661  0.00  0.00    +0.149 HD
ATOM      3  C   UNL     1       9.557  -2.252  23.434  0.00  0.00    +0.244 C 
ATOM      4  O   UNL     1      10.460  -3.013  23.758  0.00  0.00    -0.270 OA
ENDROOT
BRANCH   3   5
ATOM      5  C   UNL     1       9.803  -0.790  23.288  0.00  0.00    +0.037 A 
ATOM      6  C   UNL     1      10.198  -0.065  24.419  0.00  0.00    +0.013 A 
ATOM      7  C   UNL     1      10.460   1.302  24.315  0.00  0.00    +0.001 A 
ATOM      8  C   UNL     1      10.318   1.949  23.088  0.00  0.00    +0.000 A 
ATOM      9  C   UNL     1       9.902   1.235  21.964  0.00  0.00    +0.001 A 
ATOM     10  C   UNL     1       9.641  -0.133  22.061  0.00  0.00    +0.013 A 
ENDBRANCH   3   5
BRANCH   1  11
ATOM     11  C   UNL     1       7.889  -4.082  23.229  0.00  0.00    +0.134 C 
BRANCH  11  12
ATOM     12  CA  UNL     1       7.302  -4.454  24.601  0.00  0.00    +0.178 C 
BRANCH  12  13
ATOM     13  N   UNL     1       6.918  -3.281  25.448  0.00  0.00    -0.317 NA
ATOM     14  H1  UNL     1       6.693  -3.651  26.383  0.00  0.00    +0.119 HD
ATOM     15  H2  UNL     1       7.784  -2.766  25.654  0.00  0.00    +0.119 HD
ENDBRANCH  12  13
BRANCH  12  16
ATOM     16  C   UNL     1       8.295  -5.311  25.395  0.00  0.00    +0.323 C 
ATOM     17  OXT UNL     1       8.121  -5.748  26.522  0.00  0.00    -0.249 OA
BRANCH  16  18
ATOM     18  O   UNL     1       9.435  -5.519  24.681  0.00  0.00    -0.479 OA
ATOM     19  H   UNL     1       9.744  -4.619  24.404  0.00  0.00    +0.295 HD
ENDBRANCH  16  18
ENDBRANCH  12  16
ENDBRANCH  11  12
ENDBRANCH   1  11
TORSDOF 6
ENDMDL
MODEL 4
REMARK VINA RESULT:      -5.5      2.356      2.891
REMARK  Name = 
REMARK  6 active torsions:
REMARK  status: ('A' for Active; 'I' for Inactive)
REMARK    1  A    between atoms: N_1  and  CA_2
REMARK    2  A    between atoms: CA_2  and  C_4
REMARK    3  A    between atoms: CA_2  and  C_14
REMARK    4  A    between atoms: C_4  and  N_5
REMARK    5  A    between atoms: C_6  and  C_8
REMARK    6  A    between atoms: C_14  and  O_15
REMARK                            x       y       z     vdW  Elec       q    Type
REMARK                         _______ _______ _______ _____ _____    ______ ____
ROOT
ATOM      1  N   UNL     1       7.513  -2.927  23.750  0.00  0.00    -0.309 N 
ATOM      2  H   UNL     1       6.892  -2.261  23.301  0.00  0.00    +0.149 HD
ATOM      3  C   UNL     1       8.871  -2.708  23.743  0.00  0.00    +0.244 C 
ATOM      4  O   UNL     1       9.685  -3.570  24.051  0.00  0.00    -0.270 OA
ENDROOT
BRANCH   3   5
ATOM      5  C   UNL     1       9.317  -1.373  23.257  0.00  0.00    +0.037 A 
ATOM      6  C   UNL     1       9.036  -1.018  21.932  0.00  0.00    +0.013 A 
ATOM      7  C   UNL     1       9.418   0.234  21.448  0.00  0.00    +0.001 A 
ATOM      8  C   UNL     1      10.089   1.129  22.280  0.00  0.00    +0.000 A 
ATOM      9  C   UNL     1      10.392   0.771  23.594  0.00  0.00    +0.001 A 
ATOM     10  C   UNL     1      10.011  -0.479  24.084  0.00  0.00    +0.013 A 
ENDBRANCH   3   5
BRANCH   1  11
ATOM     11  C   UNL     1       6.920  -4.170  24.221  0.00  0.00    +0.134 C 
BRANCH  11  12
ATOM     12  CA  UNL     1       6.645  -5.196  23.108  0.00  0.00    +0.178 C 
BRANCH  12  13
ATOM     13  N   UNL     1       7.873  -5.844  22.548  0.00  0.00    -0.317 NA
ATOM     14  H1  UNL     1       8.680  -5.343  22.946  0.00  0.00    +0.119 HD
ATOM     15  H2  UNL     1       7.968  -6.755  23.015  0.00  0.00    +0.119 HD
ENDBRANCH  12  13
BRANCH  12  16
ATOM     16  C   UNL     1       5.881  -4.540  21.950  0.00  0.00    +0.323 C 
ATOM     17  OXT UNL     1       5.217  -3.518  22.021  0.00  0.00    -0.249 OA
BRANCH  16  18
ATOM     18  O   UNL     1       6.020  -5.264  20.807  0.00  0.00    -0.479 OA
ATOM     19  H   UNL     1       6.908  -5.700  20.873  0.00  0.00    +0.295 HD
ENDBRANCH  16  18
ENDBRANCH  12  16
ENDBRANCH  11  12
ENDBRANCH   1  11
TORSDOF 6
ENDMDL
MODEL 5
REMARK VINA RESULT:      -5.5      2.066      3.105
REMARK  Name = 
REMARK  6 active torsions:
REMARK  status: ('A' for Active; 'I' for Inactive)
REMARK    1  A    between atoms: N_1  and  CA_2
REMARK    2  A    between atoms: CA_2  and  C_4
REMARK    3  A    between atoms: CA_2  and  C_14
REMARK    4  A    between atoms: C_4  and  N_5
REMARK    5  A    between atoms: C_6  and  C_8
REMARK    6  A    between atoms: C_14  and  O_15
REMARK                            x       y       z     vdW  Elec       q    Type
REMARK                         _______ _______ _______ _____ _____    ______ ____
ROOT
ATOM      1  N   UNL     1       8.122  -2.547  23.052  0.00  0.00    -0.309 N 
ATOM      2  H   UNL     1       7.530  -1.889  22.555  0.00  0.00    +0.149 HD
ATOM      3  C   UNL     1       9.394  -2.177  23.424  0.00  0.00    +0.244 C 
ATOM      4  O   UNL     1      10.235  -2.981  23.808  0.00  0.00    -0.270 OA
ENDROOT
BRANCH   3   5
ATOM      5  C   UNL     1       9.732  -0.736  23.258  0.00  0.00    +0.037 A 
ATOM      6  C   UNL     1      10.205  -0.030  24.370  0.00  0.00    +0.013 A 
ATOM      7  C   UNL     1      10.554   1.315  24.247  0.00  0.00    +0.001 A 
ATOM      8  C   UNL     1      10.422   1.961  23.018  0.00  0.00    +0.000 A 
ATOM      9  C   UNL     1       9.929   1.268  21.913  0.00  0.00    +0.001 A 
ATOM     10  C   UNL     1       9.580  -0.079  22.030  0.00  0.00    +0.013 A 
ENDBRANCH   3   5
BRANCH   1  11
ATOM     11  C   UNL     1       7.633  -3.912  23.179  0.00  0.00    +0.134 C 
BRANCH  11  12
ATOM     12  CA  UNL     1       6.691  -4.349  22.044  0.00  0.00    +0.178 C 
BRANCH  12  13
ATOM     13  N   UNL     1       5.637  -3.346  21.694  0.00  0.00    -0.317 NA
ATOM     14  H1  UNL     1       5.682  -2.607  22.410  0.00  0.00    +0.119 HD
ATOM     15  H2  UNL     1       5.977  -2.831  20.872  0.00  0.00    +0.119 HD
ENDBRANCH  12  13
BRANCH  12  16
ATOM     16  C   UNL     1       5.996  -5.669  22.401  0.00  0.00    +0.323 C 
ATOM     17  OXT UNL     1       5.736  -6.056  23.530  0.00  0.00    -0.249 OA
BRANCH  16  18
ATOM     18  O   UNL     1       5.711  -6.386  21.281  0.00  0.00    -0.479 OA
ATOM     19  H   UNL     1       4.831  -6.810  21.452  0.00  0.00    +0.295 HD
ENDBRANCH  16  18
ENDBRANCH  12  16
ENDBRANCH  11  12
ENDBRANCH   1  11
TORSDOF 6
ENDMDL
MODEL 6
REMARK VINA RESULT:      -5.4      3.423      5.951
REMARK  Name = 
REMARK  6 active torsions:
REMARK  status: ('A' for Active; 'I' for Inactive)
REMARK    1  A    between atoms: N_1  and  CA_2
REMARK    2  A    between atoms: CA_2  and  C_4
REMARK    3  A    between atoms: CA_2  and  C_14
REMARK    4  A    between atoms: C_4  and  N_5
REMARK    5  A    between atoms: C_6  and  C_8
REMARK    6  A    between atoms: C_14  and  O_15
REMARK                            x       y       z     vdW  Elec       q    Type
REMARK                         _______ _______ _______ _____ _____    ______ ____
ROOT
ATOM      1  N   UNL     1       8.022  -0.213  23.012  0.00  0.00    -0.309 N 
ATOM      2  H   UNL     1       7.708  -0.313  23.973  0.00  0.00    +0.149 HD
ATOM      3  C   UNL     1       8.621  -1.276  22.375  0.00  0.00    +0.244 C 
ATOM      4  O   UNL     1       9.228  -1.160  21.317  0.00  0.00    -0.270 OA
ENDROOT
BRANCH   3   5
ATOM      5  C   UNL     1       8.566  -2.582  23.087  0.00  0.00    +0.037 A 
ATOM      6  C   UNL     1       9.470  -2.811  24.132  0.00  0.00    +0.013 A 
ATOM      7  C   UNL     1       9.432  -4.014  24.837  0.00  0.00    +0.001 A 
ATOM      8  C   UNL     1       8.502  -4.995  24.495  0.00  0.00    +0.000 A 
ATOM      9  C   UNL     1       7.616  -4.782  23.440  0.00  0.00    +0.001 A 
ATOM     10  C   UNL     1       7.647  -3.579  22.732  0.00  0.00    +0.013 A 
ENDBRANCH   3   5
BRANCH   1  11
ATOM     11  C   UNL     1       7.969   1.121  22.434  0.00  0.00    +0.134 C 
BRANCH  11  12
ATOM     12  CA  UNL     1       9.142   2.029  22.841  0.00  0.00    +0.178 C 
BRANCH  12  13
ATOM     13  N   UNL     1      10.178   2.216  21.775  0.00  0.00    -0.317 NA
ATOM     14  H1  UNL     1      10.691   1.326  21.702  0.00  0.00    +0.119 HD
ATOM     15  H2  UNL     1       9.681   2.220  20.875  0.00  0.00    +0.119 HD
ENDBRANCH  12  13
BRANCH  12  16
ATOM     16  C   UNL     1       9.838   1.478  24.092  0.00  0.00    +0.323 C 
ATOM     17  OXT UNL     1      10.889   0.857  24.110  0.00  0.00    -0.249 OA
BRANCH  16  18
ATOM     18  O   UNL     1       9.116   1.757  25.210  0.00  0.00    -0.479 OA
ATOM     19  H   UNL     1       9.744   1.645  25.969  0.00  0.00    +0.295 HD
ENDBRANCH  16  18
ENDBRANCH  12  16
ENDBRANCH  11  12
ENDBRANCH   1  11
TORSDOF 6
ENDMDL
MODEL 7
REMARK VINA RESULT:      -5.4      2.950      6.114
REMARK  Name = 
REMARK  6 active torsions:
REMARK  status: ('A' for Active; 'I' for Inactive)
REMARK    1  A    between atoms: N_1  and  CA_2
REMARK    2  A    between atoms: CA_2  and  C_4
REMARK    3  A    between atoms: CA_2  and  C_14
REMARK    4  A    between atoms: C_4  and  N_5
REMARK    5  A    between atoms: C_6  and  C_8
REMARK    6  A    between atoms: C_14  and  O_15
REMARK                            x       y       z     vdW  Elec       q    Type
REMARK                         _______ _______ _______ _____ _____    ______ ____
ROOT
ATOM      1  N   UNL     1       9.716  -0.760  24.189  0.00  0.00    -0.309 N 
ATOM      2  H   UNL     1       9.036  -0.819  24.940  0.00  0.00    +0.149 HD
ATOM      3  C   UNL     1       9.801  -1.775  23.262  0.00  0.00    +0.244 C 
ATOM      4  O   UNL     1      10.738  -1.884  22.482  0.00  0.00    -0.270 OA
ENDROOT
BRANCH   3   5
ATOM      5  C   UNL     1       8.719  -2.797  23.309  0.00  0.00    +0.037 A 
ATOM      6  C   UNL     1       8.818  -3.829  24.250  0.00  0.00    +0.013 A 
ATOM      7  C   UNL     1       7.812  -4.792  24.339  0.00  0.00    +0.001 A 
ATOM      8  C   UNL     1       6.712  -4.733  23.484  0.00  0.00    +0.000 A 
ATOM      9  C   UNL     1       6.620  -3.721  22.529  0.00  0.00    +0.001 A 
ATOM     10  C   UNL     1       7.623  -2.753  22.437  0.00  0.00    +0.013 A 
ENDBRANCH   3   5
BRANCH   1  11
ATOM     11  C   UNL     1      10.681   0.327  24.254  0.00  0.00    +0.134 C 
BRANCH  11  12
ATOM     12  CA  UNL     1      10.082   1.716  23.973  0.00  0.00    +0.178 C 
BRANCH  12  13
ATOM     13  N   UNL     1       9.056   2.160  24.968  0.00  0.00    -0.317 NA
ATOM     14  H1  UNL     1       9.481   2.050  25.900  0.00  0.00    +0.119 HD
ATOM     15  H2  UNL     1       9.004   3.185  24.905  0.00  0.00    +0.119 HD
ENDBRANCH  12  13
BRANCH  12  16
ATOM     16  C   UNL     1       9.443   1.752  22.579  0.00  0.00    +0.323 C 
ATOM     17  OXT UNL     1       8.341   1.316  22.287  0.00  0.00    -0.249 OA
BRANCH  16  18
ATOM     18  O   UNL     1      10.281   2.329  21.676  0.00  0.00    -0.479 OA
ATOM     19  H   UNL     1      11.198   2.123  21.993  0.00  0.00    +0.295 HD
ENDBRANCH  16  18
ENDBRANCH  12  16
ENDBRANCH  11  12
ENDBRANCH   1  11
TORSDOF 6
ENDMDL
MODEL 8
REMARK VINA RESULT:      -5.3      2.454      5.977
REMARK  Name = 
REMARK  6 active torsions:
REMARK  status: ('A' for Active; 'I' for Inactive)
REMARK    1  A    between atoms: N_1  and  CA_2
REMARK    2  A    between atoms: CA_2  and  C_4
REMARK    3  A    between atoms: CA_2  and  C_14
REMARK    4  A    between atoms: C_4  and  N_5
REMARK    5  A    between atoms: C_6  and  C_8
REMARK    6  A    between atoms: C_14  and  O_15
REMARK                            x       y       z     vdW  Elec       q    Type
REMARK                         _______ _______ _______ _____ _____    ______ ____
ROOT
ATOM      1  N   UNL     1       8.761  -1.926  23.905  0.00  0.00    -0.309 N 
ATOM      2  H   UNL     1       7.912  -1.420  23.675  0.00  0.00    +0.149 HD
ATOM      3  C   UNL     1       8.753  -3.302  23.926  0.00  0.00    +0.244 C 
ATOM      4  O   UNL     1       9.659  -3.964  24.417  0.00  0.00    -0.270 OA
ENDROOT
BRANCH   3   5
ATOM      5  C   UNL     1       7.530  -3.958  23.386  0.00  0.00    +0.037 A 
ATOM      6  C   UNL     1       7.618  -5.293  22.973  0.00  0.00    +0.013 A 
ATOM      7  C   UNL     1       6.487  -5.948  22.483  0.00  0.00    +0.001 A 
ATOM      8  C   UNL     1       5.271  -5.271  22.395  0.00  0.00    +0.000 A 
ATOM      9  C   UNL     1       5.184  -3.935  22.783  0.00  0.00    +0.001 A 
ATOM     10  C   UNL     1       6.312  -3.275  23.276  0.00  0.00    +0.013 A 
ENDBRANCH   3   5
BRANCH   1  11
ATOM     11  C   UNL     1       9.893  -1.140  24.373  0.00  0.00    +0.134 C 
BRANCH  11  12
ATOM     12  CA  UNL     1      10.425  -0.130  23.342  0.00  0.00    +0.178 C 
BRANCH  12  13
ATOM     13  N   UNL     1      10.192   1.304  23.704  0.00  0.00    -0.317 NA
ATOM     14  H1  UNL     1      10.810   1.866  23.101  0.00  0.00    +0.119 HD
ATOM     15  H2  UNL     1       9.273   1.562  23.321  0.00  0.00    +0.119 HD
ENDBRANCH  12  13
BRANCH  12  16
ATOM     16  C   UNL     1       9.794  -0.384  21.967  0.00  0.00    +0.323 C 
ATOM     17  OXT UNL     1       8.972   0.330  21.415  0.00  0.00    -0.249 OA
BRANCH  16  18
ATOM     18  O   UNL     1      10.260  -1.543  21.427  0.00  0.00    -0.479 OA
ATOM     19  H   UNL     1      11.047  -1.286  20.882  0.00  0.00    +0.295 HD
ENDBRANCH  16  18
ENDBRANCH  12  16
ENDBRANCH  11  12
ENDBRANCH   1  11
TORSDOF 6
ENDMDL
MODEL 9
REMARK VINA RESULT:      -5.3      2.779      6.163
REMARK  Name = 
REMARK  6 active torsions:
REMARK  status: ('A' for Active; 'I' for Inactive)
REMARK    1  A    between atoms: N_1  and  CA_2
REMARK    2  A    between atoms: CA_2  and  C_4
REMARK    3  A    between atoms: CA_2  and  C_14
REMARK    4  A    between atoms: C_4  and  N_5
REMARK    5  A    between atoms: C_6  and  C_8
REMARK    6  A    between atoms: C_14  and  O_15
REMARK                            x       y       z     vdW  Elec       q    Type
REMARK                         _______ _______ _______ _____ _____    ______ ____
ROOT
ATOM      1  N   UNL     1       8.666  -1.452  21.988  0.00  0.00    -0.309 N 
ATOM      2  H   UNL     1       7.811  -1.238  21.485  0.00  0.00    +0.149 HD
ATOM      3  C   UNL     1       8.689  -2.498  22.883  0.00  0.00    +0.244 C 
ATOM      4  O   UNL     1       9.598  -2.664  23.686  0.00  0.00    -0.270 OA
ENDROOT
BRANCH   3   5
ATOM      5  C   UNL     1       7.496  -3.389  22.881  0.00  0.00    +0.037 A 
ATOM      6  C   UNL     1       6.228  -2.803  22.782  0.00  0.00    +0.013 A 
ATOM      7  C   UNL     1       5.088  -3.607  22.754  0.00  0.00    +0.001 A 
ATOM      8  C   UNL     1       5.210  -4.994  22.834  0.00  0.00    +0.000 A 
ATOM      9  C   UNL     1       6.469  -5.580  22.956  0.00  0.00    +0.001 A 
ATOM     10  C   UNL     1       7.614  -4.781  22.983  0.00  0.00    +0.013 A 
ENDBRANCH   3   5
BRANCH   1  11
ATOM     11  C   UNL     1       9.767  -0.510  21.851  0.00  0.00    +0.134 C 
BRANCH  11  12
ATOM     12  CA  UNL     1       9.475   0.886  22.428  0.00  0.00    +0.178 C 
BRANCH  12  13
ATOM     13  N   UNL     1       9.907   2.020  21.551  0.00  0.00    -0.317 NA
ATOM     14  H1  UNL     1      10.885   1.833  21.287  0.00  0.00    +0.119 HD
ATOM     15  H2  UNL     1       9.440   1.890  20.644  0.00  0.00    +0.119 HD
ENDBRANCH  12  13
BRANCH  12  16
ATOM     16  C   UNL     1      10.150   1.054  23.795  0.00  0.00    +0.323 C 
ATOM     17  OXT UNL     1      11.010   1.876  24.070  0.00  0.00    -0.249 OA
BRANCH  16  18
ATOM     18  O   UNL     1       9.677   0.141  24.685  0.00  0.00    -0.479 OA
ATOM     19  H   UNL     1      10.479  -0.251  25.117  0.00  0.00    +0.295 HD
ENDBRANCH  16  18
ENDBRANCH  12  16
ENDBRANCH  11  12
ENDBRANCH   1  11
TORSDOF 6
ENDMDL
