MODEL 1
REMARK VINA RESULT:      -6.1      0.000      0.000
REMARK  Name = 
REMARK  26 active torsions:
REMARK  status: ('A' for Active; 'I' for Inactive)
REMARK    1  A    between atoms: C_1  and  C_2
REMARK    2  A    between atoms: C_2  and  C_3
REMARK    3  A    between atoms: C_8  and  C_10
REMARK    4  A    between atoms: C_11  and  O_13
REMARK    5  A    between atoms: O_13  and  C_14
REMARK    6  A    between atoms: C_17  and  C_18
REMARK    7  A    between atoms: C_17  and  O_19
REMARK    8  A    between atoms: O_19  and  C_20
REMARK    9  A    between atoms: C_21  and  O_23
REMARK   10  A    between atoms: C_24  and  C_26
REMARK   11  A    between atoms: C_28  and  C_30
REMARK   12  A    between atoms: C_31  and  O_33
REMARK   13  A    between atoms: O_33  and  C_34
REMARK   14  A    between atoms: C_37  and  C_39
REMARK   15  A    between atoms: C_41  and  N_46
REMARK   16  A    between atoms: C_43  and  O_45
REMARK   17  A    between atoms: N_46  and  C_47
REMARK   18  A    between atoms: N_46  and  C_48
REMARK   19  A    between atoms: C_49  and  C_50
REMARK   20  A    between atoms: C_49  and  O_51
REMARK   21  A    between atoms: C_53  and  C_55
REMARK   22  A    between atoms: N_57  and  C_58
REMARK   23  A    between atoms: C_59  and  C_61
REMARK   24  A    between atoms: C_62  and  O_64
REMARK   25  A    between atoms: C_65  and  C_66
REMARK   26  A    between atoms: C_65  and  O_67
REMARK                            x       y       z     vdW  Elec       q    Type
REMARK                         _______ _______ _______ _____ _____    ______ ____
ROOT
ATOM      1  C   UNL     1       9.843   0.807  23.297  0.00  0.00    +0.210 C 
ATOM      2  C   UNL     1       9.508   2.101  22.403  0.00  0.00    +0.127 C 
ATOM      3  C   UNL     1      10.829   2.702  21.859  0.00  0.00    +0.048 C 
ATOM      4  C   UNL     1       8.719   3.272  23.096  0.00  0.00    +0.166 C 
ATOM      5  C   UNL     1       7.136   3.361  23.049  0.00  0.00    +0.085 C 
ATOM      6  C   UNL     1       6.448   2.008  22.977  0.00  0.00    +0.027 C 
ATOM      7  N   UNL     1       6.691   4.194  24.221  0.00  0.00    -0.300 NA
ATOM      8  C   UNL     1       6.921   5.626  23.960  0.00  0.00    +0.105 C 
ATOM      9  C   UNL     1       5.351   3.973  24.802  0.00  0.00    +0.087 C 
ATOM     10  C   UNL     1       5.337   3.175  26.161  0.00  0.00    +0.003 C 
ATOM     11  C   UNL     1       6.720   3.057  26.798  0.00  0.00    +0.009 C 
ATOM     12  C   UNL     1       4.525   1.853  26.070  0.00  0.00    +0.041 C 
ATOM     13  C   UNL     1       4.557   0.776  27.222  0.00  0.00    +0.090 C 
ATOM     14  C   UNL     1       5.005   1.242  28.597  0.00  0.00    +0.044 C 
ATOM     15  C   UNL     1       5.172  -0.635  26.814  0.00  0.00    +0.158 C 
ATOM     16  C   UNL     1       6.328  -0.734  25.774  0.00  0.00    +0.047 C 
ATOM     17  C   UNL     1       7.703  -0.650  26.397  0.00  0.00    +0.013 C 
ATOM     18  C   UNL     1       6.176  -1.733  24.518  0.00  0.00    +0.140 C 
ATOM     19  C   UNL     1       7.527  -2.152  23.793  0.00  0.00    +0.124 C 
ATOM     20  C   UNL     1       7.421  -2.568  22.313  0.00  0.00    +0.022 C 
ATOM     21  C   UNL     1       8.780  -1.283  23.764  0.00  0.00    +0.313 C 
ATOM     22  O   UNL     1       9.881  -1.836  23.828  0.00  0.00    -0.250 OA
ATOM     23  O   UNL     1       8.619   0.030  23.503  0.00  0.00    -0.458 OA
ENDROOT
BRANCH   1  25
ATOM     24  C   UNL     1      12.022   0.733  24.860  0.00  0.00    +0.007 C 
ATOM     25  C   UNL     1      10.561   1.127  24.644  0.00  0.00    +0.044 C 
ENDBRANCH   1  25
BRANCH   2  26
ATOM     26  O   UNL     1       8.816   1.714  21.198  0.00  0.00    -0.383 OA
ATOM     27  H   UNL     1       7.861   1.795  21.369  0.00  0.00    +0.210 HD
ENDBRANCH   2  26
BRANCH   4  28
ATOM     28  O   UNL     1       9.172   3.450  24.442  0.00  0.00    -0.387 OA
ATOM     29  H   UNL     1       8.524   2.948  24.975  0.00  0.00    +0.210 HD
ENDBRANCH   4  28
BRANCH  13  30
ATOM     30  O   UNL     1       3.129   0.496  27.434  0.00  0.00    -0.386 OA
ATOM     31  H   UNL     1       3.054   0.067  28.311  0.00  0.00    +0.210 HD
ENDBRANCH  13  30
BRANCH  15  32
ATOM     32  O   UNL     1       5.101  -1.618  27.887  0.00  0.00    -0.342 OA
BRANCH  32  33
ATOM     33  C   UNL     1       4.178  -2.740  27.893  0.00  0.00    +0.281 C 
ATOM     34  C   UNL     1       4.929  -4.023  28.435  0.00  0.00    +0.187 C 
ATOM     35  C   UNL     1       3.952  -5.207  28.794  0.00  0.00    +0.092 C 
ATOM     36  C   UNL     1       2.663  -4.703  29.461  0.00  0.00    +0.053 C 
ATOM     37  C   UNL     1       2.088  -3.531  28.700  0.00  0.00    +0.120 C 
ATOM     38  C   UNL     1       0.811  -3.046  29.382  0.00  0.00    +0.038 C 
ATOM     39  O   UNL     1       3.061  -2.483  28.729  0.00  0.00    -0.346 OA
BRANCH  35  40
ATOM     40  N   UNL     1       4.462  -6.370  29.575  0.00  0.00    -0.303 NA
ATOM     41  C   UNL     1       3.444  -7.142  30.291  0.00  0.00    +0.105 C 
ATOM     42  C   UNL     1       5.558  -6.041  30.485  0.00  0.00    +0.105 C 
ENDBRANCH  35  40
BRANCH  34  43
ATOM     43  O   UNL     1       5.887  -4.459  27.444  0.00  0.00    -0.385 OA
ATOM     44  H   UNL     1       5.852  -5.430  27.405  0.00  0.00    +0.210 HD
ENDBRANCH  34  43
ENDBRANCH  32  33
ENDBRANCH  15  32
BRANCH  18  45
ATOM     45  O   UNL     1       5.465  -2.989  24.749  0.00  0.00    -0.347 OA
BRANCH  45  46
ATOM     46  C   UNL     1       4.380  -3.432  23.923  0.00  0.00    +0.254 C 
ATOM     47  O   UNL     1       3.384  -4.155  24.645  0.00  0.00    -0.346 OA
ATOM     48  C   UNL     1       3.695  -5.501  24.951  0.00  0.00    +0.149 C 
ATOM     49  C   UNL     1       2.410  -6.077  25.556  0.00  0.00    +0.041 C 
ATOM     50  C   UNL     1       4.101  -6.315  23.707  0.00  0.00    +0.175 C 
ATOM     51  C   UNL     1       5.186  -5.604  22.856  0.00  0.00    +0.099 C 
ATOM     52  C   UNL     1       5.376  -6.391  21.541  0.00  0.00    +0.044 C 
ATOM     53  C   UNL     1       4.722  -4.161  22.610  0.00  0.00    +0.098 C 
BRANCH  50  54
ATOM     54  O   UNL     1       4.568  -7.607  24.110  0.00  0.00    -0.386 OA
ATOM     55  H   UNL     1       4.909  -7.477  25.017  0.00  0.00    +0.210 HD
ENDBRANCH  50  54
BRANCH  51  56
ATOM     56  O   UNL     1       6.418  -5.611  23.607  0.00  0.00    -0.374 OA
ATOM     57  C   UNL     1       7.573  -5.988  22.869  0.00  0.00    +0.194 C 
ENDBRANCH  51  56
ENDBRANCH  45  46
ENDBRANCH  18  45
TORSDOF 12
ENDMDL
MODEL 2
REMARK VINA RESULT:      -6.0      1.892      2.710
REMARK  Name = 
REMARK  26 active torsions:
REMARK  status: ('A' for Active; 'I' for Inactive)
REMARK    1  A    between atoms: C_1  and  C_2
REMARK    2  A    between atoms: C_2  and  C_3
REMARK    3  A    between atoms: C_8  and  C_10
REMARK    4  A    between atoms: C_11  and  O_13
REMARK    5  A    between atoms: O_13  and  C_14
REMARK    6  A    between atoms: C_17  and  C_18
REMARK    7  A    between atoms: C_17  and  O_19
REMARK    8  A    between atoms: O_19  and  C_20
REMARK    9  A    between atoms: C_21  and  O_23
REMARK   10  A    between atoms: C_24  and  C_26
REMARK   11  A    between atoms: C_28  and  C_30
REMARK   12  A    between atoms: C_31  and  O_33
REMARK   13  A    between atoms: O_33  and  C_34
REMARK   14  A    between atoms: C_37  and  C_39
REMARK   15  A    between atoms: C_41  and  N_46
REMARK   16  A    between atoms: C_43  and  O_45
REMARK   17  A    between atoms: N_46  and  C_47
REMARK   18  A    between atoms: N_46  and  C_48
REMARK   19  A    between atoms: C_49  and  C_50
REMARK   20  A    between atoms: C_49  and  O_51
REMARK   21  A    between atoms: C_53  and  C_55
REMARK   22  A    between atoms: N_57  and  C_58
REMARK   23  A    between atoms: C_59  and  C_61
REMARK   24  A    between atoms: C_62  and  O_64
REMARK   25  A    between atoms: C_65  and  C_66
REMARK   26  A    between atoms: C_65  and  O_67
REMARK                            x       y       z     vdW  Elec       q    Type
REMARK                         _______ _______ _______ _____ _____    ______ ____
ROOT
ATOM      1  C   UNL     1       8.228   4.269  23.881  0.00  0.00    +0.210 C 
ATOM      2  C   UNL     1       7.424   5.276  22.919  0.00  0.00    +0.127 C 
ATOM      3  C   UNL     1       8.314   6.507  22.610  0.00  0.00    +0.048 C 
ATOM      4  C   UNL     1       6.044   5.822  23.438  0.00  0.00    +0.166 C 
ATOM      5  C   UNL     1       4.673   5.095  23.106  0.00  0.00    +0.085 C 
ATOM      6  C   UNL     1       4.805   3.591  22.935  0.00  0.00    +0.027 C 
ATOM      7  N   UNL     1       3.679   5.491  24.164  0.00  0.00    -0.300 NA
ATOM      8  C   UNL     1       3.177   6.855  23.923  0.00  0.00    +0.105 C 
ATOM      9  C   UNL     1       2.571   4.573  24.498  0.00  0.00    +0.087 C 
ATOM     10  C   UNL     1       2.750   3.776  25.847  0.00  0.00    +0.003 C 
ATOM     11  C   UNL     1       3.870   4.331  26.723  0.00  0.00    +0.009 C 
ATOM     12  C   UNL     1       2.763   2.236  25.634  0.00  0.00    +0.041 C 
ATOM     13  C   UNL     1       3.157   1.241  26.792  0.00  0.00    +0.090 C 
ATOM     14  C   UNL     1       3.070   1.761  28.216  0.00  0.00    +0.044 C 
ATOM     15  C   UNL     1       4.468   0.377  26.526  0.00  0.00    +0.158 C 
ATOM     16  C   UNL     1       5.662   0.963  25.712  0.00  0.00    +0.047 C 
ATOM     17  C   UNL     1       6.673   1.688  26.570  0.00  0.00    +0.013 C 
ATOM     18  C   UNL     1       6.253   0.128  24.468  0.00  0.00    +0.140 C 
ATOM     19  C   UNL     1       7.724   0.514  24.004  0.00  0.00    +0.124 C 
ATOM     20  C   UNL     1       8.090   0.219  22.537  0.00  0.00    +0.022 C 
ATOM     21  C   UNL     1       8.334   1.899  24.186  0.00  0.00    +0.313 C 
ATOM     22  O   UNL     1       9.536   1.983  24.457  0.00  0.00    -0.250 OA
ATOM     23  O   UNL     1       7.565   2.962  23.877  0.00  0.00    -0.458 OA
ENDROOT
BRANCH   1  25
ATOM     24  C   UNL     1       9.443   5.931  25.600  0.00  0.00    +0.007 C 
ATOM     25  C   UNL     1       8.447   4.804  25.329  0.00  0.00    +0.044 C 
ENDBRANCH   1  25
BRANCH   2  26
ATOM     26  O   UNL     1       7.238   4.685  21.616  0.00  0.00    -0.383 OA
ATOM     27  H   UNL     1       6.831   3.811  21.746  0.00  0.00    +0.210 HD
ENDBRANCH   2  26
BRANCH   4  28
ATOM     28  O   UNL     1       6.113   6.102  24.840  0.00  0.00    -0.387 OA
ATOM     29  H   UNL     1       5.199   6.358  25.073  0.00  0.00    +0.210 HD
ENDBRANCH   4  28
BRANCH  13  30
ATOM     30  O   UNL     1       2.066   0.256  26.749  0.00  0.00    -0.386 OA
ATOM     31  H   UNL     1       1.705   0.276  25.839  0.00  0.00    +0.210 HD
ENDBRANCH  13  30
BRANCH  15  32
ATOM     32  O   UNL     1       4.741  -0.585  27.585  0.00  0.00    -0.342 OA
BRANCH  32  33
ATOM     33  C   UNL     1       4.263  -1.957  27.572  0.00  0.00    +0.281 C 
ATOM     34  C   UNL     1       5.381  -2.898  28.178  0.00  0.00    +0.187 C 
ATOM     35  C   UNL     1       4.854  -4.346  28.516  0.00  0.00    +0.092 C 
ATOM     36  C   UNL     1       3.437  -4.315  29.108  0.00  0.00    +0.053 C 
ATOM     37  C   UNL     1       2.534  -3.418  28.293  0.00  0.00    +0.120 C 
ATOM     38  C   UNL     1       1.134  -3.402  28.901  0.00  0.00    +0.038 C 
ATOM     39  O   UNL     1       3.082  -2.098  28.347  0.00  0.00    -0.346 OA
BRANCH  35  40
ATOM     40  N   UNL     1       5.692  -5.257  29.347  0.00  0.00    -0.303 NA
ATOM     41  C   UNL     1       6.395  -6.310  28.610  0.00  0.00    +0.105 C 
ATOM     42  C   UNL     1       4.986  -5.843  30.485  0.00  0.00    +0.105 C 
ENDBRANCH  35  40
BRANCH  34  43
ATOM     43  O   UNL     1       6.481  -2.981  27.246  0.00  0.00    -0.385 OA
ATOM     44  H   UNL     1       6.169  -3.460  26.460  0.00  0.00    +0.210 HD
ENDBRANCH  34  43
ENDBRANCH  32  33
ENDBRANCH  15  32
BRANCH  18  45
ATOM     45  O   UNL     1       6.265  -1.329  24.589  0.00  0.00    -0.347 OA
BRANCH  45  46
ATOM     46  C   UNL     1       5.775  -2.199  23.560  0.00  0.00    +0.254 C 
ATOM     47  O   UNL     1       4.568  -2.869  23.920  0.00  0.00    -0.346 OA
ATOM     48  C   UNL     1       4.709  -3.979  24.787  0.00  0.00    +0.149 C 
ATOM     49  C   UNL     1       3.311  -4.603  24.863  0.00  0.00    +0.041 C 
ATOM     50  C   UNL     1       5.720  -5.017  24.261  0.00  0.00    +0.175 C 
ATOM     51  C   UNL     1       7.071  -4.378  23.843  0.00  0.00    +0.099 C 
ATOM     52  C   UNL     1       7.932  -5.454  23.148  0.00  0.00    +0.044 C 
ATOM     53  C   UNL     1       6.764  -3.191  22.919  0.00  0.00    +0.098 C 
BRANCH  50  54
ATOM     54  O   UNL     1       5.943  -6.018  25.261  0.00  0.00    -0.386 OA
ATOM     55  H   UNL     1       5.216  -5.895  25.903  0.00  0.00    +0.210 HD
ENDBRANCH  50  54
BRANCH  51  56
ATOM     56  O   UNL     1       7.736  -3.921  25.039  0.00  0.00    -0.374 OA
ATOM     57  C   UNL     1       9.087  -3.515  24.859  0.00  0.00    +0.194 C 
ENDBRANCH  51  56
ENDBRANCH  45  46
ENDBRANCH  18  45
TORSDOF 12
ENDMDL
MODEL 3
REMARK VINA RESULT:      -6.0      2.112      9.406
REMARK  Name = 
REMARK  26 active torsions:
REMARK  status: ('A' for Active; 'I' for Inactive)
REMARK    1  A    between atoms: C_1  and  C_2
REMARK    2  A    between atoms: C_2  and  C_3
REMARK    3  A    between atoms: C_8  and  C_10
REMARK    4  A    between atoms: C_11  and  O_13
REMARK    5  A    between atoms: O_13  and  C_14
REMARK    6  A    between atoms: C_17  and  C_18
REMARK    7  A    between atoms: C_17  and  O_19
REMARK    8  A    between atoms: O_19  and  C_20
REMARK    9  A    between atoms: C_21  and  O_23
REMARK   10  A    between atoms: C_24  and  C_26
REMARK   11  A    between atoms: C_28  and  C_30
REMARK   12  A    between atoms: C_31  and  O_33
REMARK   13  A    between atoms: O_33  and  C_34
REMARK   14  A    between atoms: C_37  and  C_39
REMARK   15  A    between atoms: C_41  and  N_46
REMARK   16  A    between atoms: C_43  and  O_45
REMARK   17  A    between atoms: N_46  and  C_47
REMARK   18  A    between atoms: N_46  and  C_48
REMARK   19  A    between atoms: C_49  and  C_50
REMARK   20  A    between atoms: C_49  and  O_51
REMARK   21  A    between atoms: C_53  and  C_55
REMARK   22  A    between atoms: N_57  and  C_58
REMARK   23  A    between atoms: C_59  and  C_61
REMARK   24  A    between atoms: C_62  and  O_64
REMARK   25  A    between atoms: C_65  and  C_66
REMARK   26  A    between atoms: C_65  and  O_67
REMARK                            x       y       z     vdW  Elec       q    Type
REMARK                         _______ _______ _______ _____ _____    ______ ____
ROOT
ATOM      1  C   UNL     1       3.309  -5.805  28.756  0.00  0.00    +0.210 C 
ATOM      2  C   UNL     1       2.034  -6.549  28.119  0.00  0.00    +0.127 C 
ATOM      3  C   UNL     1       1.630  -7.738  29.029  0.00  0.00    +0.048 C 
ATOM      4  C   UNL     1       2.183  -7.115  26.660  0.00  0.00    +0.166 C 
ATOM      5  C   UNL     1       1.782  -6.263  25.383  0.00  0.00    +0.085 C 
ATOM      6  C   UNL     1       1.957  -4.765  25.568  0.00  0.00    +0.027 C 
ATOM      7  N   UNL     1       2.547  -6.812  24.209  0.00  0.00    -0.300 NA
ATOM      8  C   UNL     1       1.943  -8.069  23.735  0.00  0.00    +0.105 C 
ATOM      9  C   UNL     1       2.873  -5.923  23.076  0.00  0.00    +0.087 C 
ATOM     10  C   UNL     1       4.370  -5.429  23.024  0.00  0.00    +0.003 C 
ATOM     11  C   UNL     1       5.288  -6.211  23.961  0.00  0.00    +0.009 C 
ATOM     12  C   UNL     1       4.491  -3.881  23.101  0.00  0.00    +0.041 C 
ATOM     13  C   UNL     1       5.883  -3.166  23.300  0.00  0.00    +0.090 C 
ATOM     14  C   UNL     1       7.129  -3.961  22.951  0.00  0.00    +0.044 C 
ATOM     15  C   UNL     1       6.033  -2.338  24.652  0.00  0.00    +0.158 C 
ATOM     16  C   UNL     1       5.330  -2.809  25.961  0.00  0.00    +0.047 C 
ATOM     17  C   UNL     1       6.176  -3.747  26.791  0.00  0.00    +0.013 C 
ATOM     18  C   UNL     1       4.409  -1.770  26.779  0.00  0.00    +0.140 C 
ATOM     19  C   UNL     1       4.132  -2.133  28.303  0.00  0.00    +0.124 C 
ATOM     20  C   UNL     1       2.844  -1.564  28.929  0.00  0.00    +0.022 C 
ATOM     21  C   UNL     1       4.120  -3.557  28.847  0.00  0.00    +0.313 C 
ATOM     22  O   UNL     1       4.568  -3.759  29.979  0.00  0.00    -0.250 OA
ATOM     23  O   UNL     1       3.467  -4.491  28.126  0.00  0.00    -0.458 OA
ENDROOT
BRANCH   1  25
ATOM     24  C   UNL     1       5.514  -6.767  29.943  0.00  0.00    +0.007 C 
ATOM     25  C   UNL     1       4.628  -6.635  28.704  0.00  0.00    +0.044 C 
ENDBRANCH   1  25
BRANCH   2  26
ATOM     26  O   UNL     1       0.872  -5.696  28.178  0.00  0.00    -0.383 OA
ATOM     27  H   UNL     1       1.011  -5.062  28.904  0.00  0.00    +0.210 HD
ENDBRANCH   2  26
BRANCH   4  28
ATOM     28  O   UNL     1       3.486  -7.678  26.473  0.00  0.00    -0.387 OA
ATOM     29  H   UNL     1       3.896  -7.100  25.799  0.00  0.00    +0.210 HD
ENDBRANCH   4  28
BRANCH  13  30
ATOM     30  O   UNL     1       5.862  -2.136  22.251  0.00  0.00    -0.386 OA
ATOM     31  H   UNL     1       4.968  -2.156  21.854  0.00  0.00    +0.210 HD
ENDBRANCH  13  30
BRANCH  15  32
ATOM     32  O   UNL     1       7.301  -1.629  24.748  0.00  0.00    -0.342 OA
BRANCH  32  33
ATOM     33  C   UNL     1       7.432  -0.188  24.612  0.00  0.00    +0.281 C 
ATOM     34  C   UNL     1       8.942   0.217  24.861  0.00  0.00    +0.187 C 
ATOM     35  C   UNL     1       9.265   1.697  24.422  0.00  0.00    +0.092 C 
ATOM     36  C   UNL     1       8.548   2.076  23.117  0.00  0.00    +0.053 C 
ATOM     37  C   UNL     1       7.093   1.665  23.166  0.00  0.00    +0.120 C 
ATOM     38  C   UNL     1       6.403   2.049  21.860  0.00  0.00    +0.038 C 
ATOM     39  O   UNL     1       7.056   0.244  23.314  0.00  0.00    -0.346 OA
BRANCH  35  40
ATOM     40  N   UNL     1      10.685   2.140  24.324  0.00  0.00    -0.303 NA
ATOM     41  C   UNL     1      10.944   3.213  23.360  0.00  0.00    +0.105 C 
ATOM     42  C   UNL     1      11.636   1.050  24.110  0.00  0.00    +0.105 C 
ENDBRANCH  35  40
BRANCH  34  43
ATOM     43  O   UNL     1       9.250   0.043  26.262  0.00  0.00    -0.385 OA
ATOM     44  H   UNL     1       9.258   0.922  26.676  0.00  0.00    +0.210 HD
ENDBRANCH  34  43
ENDBRANCH  32  33
ENDBRANCH  15  32
BRANCH  18  45
ATOM     45  O   UNL     1       4.834  -0.372  26.794  0.00  0.00    -0.347 OA
BRANCH  45  46
ATOM     46  C   UNL     1       3.933   0.712  27.057  0.00  0.00    +0.254 C 
ATOM     47  O   UNL     1       3.584   1.447  25.885  0.00  0.00    -0.346 OA
ATOM     48  C   UNL     1       4.552   2.369  25.420  0.00  0.00    +0.149 C 
ATOM     49  C   UNL     1       3.861   3.130  24.283  0.00  0.00    +0.041 C 
ATOM     50  C   UNL     1       5.005   3.356  26.513  0.00  0.00    +0.175 C 
ATOM     51  C   UNL     1       5.407   2.644  27.832  0.00  0.00    +0.099 C 
ATOM     52  C   UNL     1       5.647   3.715  28.918  0.00  0.00    +0.044 C 
ATOM     53  C   UNL     1       4.276   1.676  28.208  0.00  0.00    +0.098 C 
BRANCH  50  54
ATOM     54  O   UNL     1       6.102   4.139  26.029  0.00  0.00    -0.386 OA
ATOM     55  H   UNL     1       6.524   4.500  26.833  0.00  0.00    +0.210 HD
ENDBRANCH  50  54
BRANCH  51  56
ATOM     56  O   UNL     1       6.629   1.915  27.591  0.00  0.00    -0.374 OA
ATOM     57  C   UNL     1       7.193   1.288  28.735  0.00  0.00    +0.194 C 
ENDBRANCH  51  56
ENDBRANCH  45  46
ENDBRANCH  18  45
TORSDOF 12
ENDMDL
MODEL 4
REMARK VINA RESULT:      -5.8      2.500      9.026
REMARK  Name = 
REMARK  26 active torsions:
REMARK  status: ('A' for Active; 'I' for Inactive)
REMARK    1  A    between atoms: C_1  and  C_2
REMARK    2  A    between atoms: C_2  and  C_3
REMARK    3  A    between atoms: C_8  and  C_10
REMARK    4  A    between atoms: C_11  and  O_13
REMARK    5  A    between atoms: O_13  and  C_14
REMARK    6  A    between atoms: C_17  and  C_18
REMARK    7  A    between atoms: C_17  and  O_19
REMARK    8  A    between atoms: O_19  and  C_20
REMARK    9  A    between atoms: C_21  and  O_23
REMARK   10  A    between atoms: C_24  and  C_26
REMARK   11  A    between atoms: C_28  and  C_30
REMARK   12  A    between atoms: C_31  and  O_33
REMARK   13  A    between atoms: O_33  and  C_34
REMARK   14  A    between atoms: C_37  and  C_39
REMARK   15  A    between atoms: C_41  and  N_46
REMARK   16  A    between atoms: C_43  and  O_45
REMARK   17  A    between atoms: N_46  and  C_47
REMARK   18  A    between atoms: N_46  and  C_48
REMARK   19  A    between atoms: C_49  and  C_50
REMARK   20  A    between atoms: C_49  and  O_51
REMARK   21  A    between atoms: C_53  and  C_55
REMARK   22  A    between atoms: N_57  and  C_58
REMARK   23  A    between atoms: C_59  and  C_61
REMARK   24  A    between atoms: C_62  and  O_64
REMARK   25  A    between atoms: C_65  and  C_66
REMARK   26  A    between atoms: C_65  and  O_67
REMARK                            x       y       z     vdW  Elec       q    Type
REMARK                         _______ _______ _______ _____ _____    ______ ____
ROOT
ATOM      1  C   UNL     1       4.864  -4.681  26.899  0.00  0.00    +0.210 C 
ATOM      2  C   UNL     1       4.528  -5.639  25.652  0.00  0.00    +0.127 C 
ATOM      3  C   UNL     1       4.332  -7.090  26.161  0.00  0.00    +0.048 C 
ATOM      4  C   UNL     1       5.578  -5.697  24.483  0.00  0.00    +0.166 C 
ATOM      5  C   UNL     1       5.486  -4.741  23.221  0.00  0.00    +0.085 C 
ATOM      6  C   UNL     1       4.857  -3.391  23.522  0.00  0.00    +0.027 C 
ATOM      7  N   UNL     1       6.864  -4.637  22.625  0.00  0.00    -0.300 NA
ATOM      8  C   UNL     1       7.193  -5.851  21.858  0.00  0.00    +0.105 C 
ATOM      9  C   UNL     1       7.240  -3.422  21.875  0.00  0.00    +0.087 C 
ATOM     10  C   UNL     1       8.180  -2.422  22.653  0.00  0.00    +0.003 C 
ATOM     11  C   UNL     1       8.793  -3.036  23.910  0.00  0.00    +0.009 C 
ATOM     12  C   UNL     1       7.538  -1.018  22.836  0.00  0.00    +0.041 C 
ATOM     13  C   UNL     1       8.180   0.073  23.776  0.00  0.00    +0.090 C 
ATOM     14  C   UNL     1       9.650  -0.088  24.125  0.00  0.00    +0.044 C 
ATOM     15  C   UNL     1       7.289   0.504  25.023  0.00  0.00    +0.158 C 
ATOM     16  C   UNL     1       6.355  -0.524  25.732  0.00  0.00    +0.047 C 
ATOM     17  C   UNL     1       7.034  -1.275  26.855  0.00  0.00    +0.013 C 
ATOM     18  C   UNL     1       4.804  -0.152  25.961  0.00  0.00    +0.140 C 
ATOM     19  C   UNL     1       4.046  -0.985  27.084  0.00  0.00    +0.124 C 
ATOM     20  C   UNL     1       2.517  -1.115  26.938  0.00  0.00    +0.022 C 
ATOM     21  C   UNL     1       4.425  -2.405  27.487  0.00  0.00    +0.313 C 
ATOM     22  O   UNL     1       4.327  -2.726  28.675  0.00  0.00    -0.250 OA
ATOM     23  O   UNL     1       4.687  -3.283  26.498  0.00  0.00    -0.458 OA
ENDROOT
BRANCH   1  25
ATOM     24  C   UNL     1       6.445  -5.963  28.647  0.00  0.00    +0.007 C 
ATOM     25  C   UNL     1       6.266  -4.927  27.537  0.00  0.00    +0.044 C 
ENDBRANCH   1  25
BRANCH   2  26
ATOM     26  O   UNL     1       3.232  -5.317  25.106  0.00  0.00    -0.383 OA
ATOM     27  H   UNL     1       3.343  -4.544  24.524  0.00  0.00    +0.210 HD
ENDBRANCH   2  26
BRANCH   4  28
ATOM     28  O   UNL     1       6.911  -5.675  25.008  0.00  0.00    -0.387 OA
ATOM     29  H   UNL     1       7.445  -6.095  24.305  0.00  0.00    +0.210 HD
ENDBRANCH   4  28
BRANCH  13  30
ATOM     30  O   UNL     1       8.190   1.266  22.916  0.00  0.00    -0.386 OA
ATOM     31  H   UNL     1       7.407   1.199  22.333  0.00  0.00    +0.210 HD
ENDBRANCH  13  30
BRANCH  15  32
ATOM     32  O   UNL     1       7.889   1.573  25.810  0.00  0.00    -0.342 OA
BRANCH  32  33
ATOM     33  C   UNL     1       7.528   2.973  25.675  0.00  0.00    +0.281 C 
ATOM     34  C   UNL     1       7.459   3.628  27.114  0.00  0.00    +0.187 C 
ATOM     35  C   UNL     1       7.401   5.203  27.075  0.00  0.00    +0.092 C 
ATOM     36  C   UNL     1       8.314   5.783  25.985  0.00  0.00    +0.053 C 
ATOM     37  C   UNL     1       8.124   5.045  24.678  0.00  0.00    +0.120 C 
ATOM     38  C   UNL     1       9.043   5.636  23.612  0.00  0.00    +0.038 C 
ATOM     39  O   UNL     1       8.485   3.680  24.902  0.00  0.00    -0.346 OA
BRANCH  35  40
ATOM     40  N   UNL     1       7.617   5.978  28.331  0.00  0.00    -0.303 NA
ATOM     41  C   UNL     1       6.399   6.420  29.015  0.00  0.00    +0.105 C 
ATOM     42  C   UNL     1       8.533   7.108  28.182  0.00  0.00    +0.105 C 
ENDBRANCH  35  40
BRANCH  34  43
ATOM     43  O   UNL     1       6.303   3.111  27.810  0.00  0.00    -0.385 OA
ATOM     44  H   UNL     1       5.723   3.862  28.023  0.00  0.00    +0.210 HD
ENDBRANCH  34  43
ENDBRANCH  32  33
ENDBRANCH  15  32
BRANCH  18  45
ATOM     45  O   UNL     1       4.490   1.246  26.250  0.00  0.00    -0.347 OA
BRANCH  45  46
ATOM     46  C   UNL     1       3.418   1.950  25.609  0.00  0.00    +0.254 C 
ATOM     47  O   UNL     1       3.865   3.037  24.800  0.00  0.00    -0.346 OA
ATOM     48  C   UNL     1       4.223   4.219  25.492  0.00  0.00    +0.149 C 
ATOM     49  C   UNL     1       4.488   5.255  24.395  0.00  0.00    +0.041 C 
ATOM     50  C   UNL     1       3.107   4.719  26.429  0.00  0.00    +0.175 C 
ATOM     51  C   UNL     1       2.555   3.600  27.353  0.00  0.00    +0.099 C 
ATOM     52  C   UNL     1       1.318   4.142  28.100  0.00  0.00    +0.044 C 
ATOM     53  C   UNL     1       2.220   2.387  26.474  0.00  0.00    +0.098 C 
BRANCH  50  54
ATOM     54  O   UNL     1       3.597   5.807  27.222  0.00  0.00    -0.386 OA
ATOM     55  H   UNL     1       4.375   5.443  27.688  0.00  0.00    +0.210 HD
ENDBRANCH  50  54
BRANCH  51  56
ATOM     56  O   UNL     1       3.586   3.258  28.303  0.00  0.00    -0.374 OA
ATOM     57  C   UNL     1       3.174   2.392  29.353  0.00  0.00    +0.194 C 
ENDBRANCH  51  56
ENDBRANCH  45  46
ENDBRANCH  18  45
TORSDOF 12
ENDMDL
MODEL 5
REMARK VINA RESULT:      -5.8      2.010      8.699
REMARK  Name = 
REMARK  26 active torsions:
REMARK  status: ('A' for Active; 'I' for Inactive)
REMARK    1  A    between atoms: C_1  and  C_2
REMARK    2  A    between atoms: C_2  and  C_3
REMARK    3  A    between atoms: C_8  and  C_10
REMARK    4  A    between atoms: C_11  and  O_13
REMARK    5  A    between atoms: O_13  and  C_14
REMARK    6  A    between atoms: C_17  and  C_18
REMARK    7  A    between atoms: C_17  and  O_19
REMARK    8  A    between atoms: O_19  and  C_20
REMARK    9  A    between atoms: C_21  and  O_23
REMARK   10  A    between atoms: C_24  and  C_26
REMARK   11  A    between atoms: C_28  and  C_30
REMARK   12  A    between atoms: C_31  and  O_33
REMARK   13  A    between atoms: O_33  and  C_34
REMARK   14  A    between atoms: C_37  and  C_39
REMARK   15  A    between atoms: C_41  and  N_46
REMARK   16  A    between atoms: C_43  and  O_45
REMARK   17  A    between atoms: N_46  and  C_47
REMARK   18  A    between atoms: N_46  and  C_48
REMARK   19  A    between atoms: C_49  and  C_50
REMARK   20  A    between atoms: C_49  and  O_51
REMARK   21  A    between atoms: C_53  and  C_55
REMARK   22  A    between atoms: N_57  and  C_58
REMARK   23  A    between atoms: C_59  and  C_61
REMARK   24  A    between atoms: C_62  and  O_64
REMARK   25  A    between atoms: C_65  and  C_66
REMARK   26  A    between atoms: C_65  and  O_67
REMARK                            x       y       z     vdW  Elec       q    Type
REMARK                         _______ _______ _______ _____ _____    ______ ____
ROOT
ATOM      1  C   UNL     1       2.343  -6.821  24.231  0.00  0.00    +0.210 C 
ATOM      2  C   UNL     1       2.142  -7.983  25.324  0.00  0.00    +0.127 C 
ATOM      3  C   UNL     1       1.264  -9.108  24.717  0.00  0.00    +0.048 C 
ATOM      4  C   UNL     1       1.491  -7.578  26.697  0.00  0.00    +0.166 C 
ATOM      5  C   UNL     1       2.367  -7.147  27.947  0.00  0.00    +0.085 C 
ATOM      6  C   UNL     1       3.676  -6.471  27.573  0.00  0.00    +0.027 C 
ATOM      7  N   UNL     1       1.498  -6.308  28.845  0.00  0.00    -0.300 NA
ATOM      8  C   UNL     1       0.567  -7.156  29.610  0.00  0.00    +0.105 C 
ATOM      9  C   UNL     1       2.122  -5.291  29.715  0.00  0.00    +0.087 C 
ATOM     10  C   UNL     1       1.970  -3.803  29.218  0.00  0.00    +0.003 C 
ATOM     11  C   UNL     1       0.934  -3.649  28.107  0.00  0.00    +0.009 C 
ATOM     12  C   UNL     1       3.341  -3.116  28.959  0.00  0.00    +0.041 C 
ATOM     13  C   UNL     1       3.446  -1.716  28.241  0.00  0.00    +0.090 C 
ATOM     14  C   UNL     1       2.201  -0.846  28.228  0.00  0.00    +0.044 C 
ATOM     15  C   UNL     1       4.211  -1.726  26.844  0.00  0.00    +0.158 C 
ATOM     16  C   UNL     1       4.129  -2.960  25.896  0.00  0.00    +0.047 C 
ATOM     17  C   UNL     1       2.973  -2.892  24.924  0.00  0.00    +0.013 C 
ATOM     18  C   UNL     1       5.490  -3.617  25.337  0.00  0.00    +0.140 C 
ATOM     19  C   UNL     1       5.346  -4.518  24.034  0.00  0.00    +0.124 C 
ATOM     20  C   UNL     1       6.415  -5.607  23.822  0.00  0.00    +0.022 C 
ATOM     21  C   UNL     1       4.077  -5.275  23.663  0.00  0.00    +0.313 C 
ATOM     22  O   UNL     1       3.770  -5.361  22.471  0.00  0.00    -0.250 OA
ATOM     23  O   UNL     1       3.448  -5.953  24.644  0.00  0.00    -0.458 OA
ENDROOT
BRANCH   1  25
ATOM     24  C   UNL     1       0.444  -6.016  22.515  0.00  0.00    +0.007 C 
ATOM     25  C   UNL     1       1.051  -6.005  23.918  0.00  0.00    +0.044 C 
ENDBRANCH   1  25
BRANCH   2  26
ATOM     26  O   UNL     1       3.392  -8.658  25.575  0.00  0.00    -0.383 OA
ATOM     27  H   UNL     1       3.590  -8.564  26.523  0.00  0.00    +0.210 HD
ENDBRANCH   2  26
BRANCH   4  28
ATOM     28  O   UNL     1       0.443  -6.625  26.490  0.00  0.00    -0.387 OA
ATOM     29  H   UNL     1       0.886  -5.761  26.611  0.00  0.00    +0.210 HD
ENDBRANCH   4  28
BRANCH  13  30
ATOM     30  O   UNL     1       4.343  -0.968  29.134  0.00  0.00    -0.386 OA
ATOM     31  H   UNL     1       3.827  -0.756  29.938  0.00  0.00    +0.210 HD
ENDBRANCH  13  30
BRANCH  15  32
ATOM     32  O   UNL     1       4.355  -0.397  26.265  0.00  0.00    -0.342 OA
BRANCH  32  33
ATOM     33  C   UNL     1       5.586   0.373  26.308  0.00  0.00    +0.281 C 
ATOM     34  C   UNL     1       5.754   1.152  24.941  0.00  0.00    +0.187 C 
ATOM     35  C   UNL     1       6.869   2.266  24.997  0.00  0.00    +0.092 C 
ATOM     36  C   UNL     1       6.865   3.012  26.340  0.00  0.00    +0.053 C 
ATOM     37  C   UNL     1       6.793   2.039  27.495  0.00  0.00    +0.120 C 
ATOM     38  C   UNL     1       6.788   2.803  28.816  0.00  0.00    +0.038 C 
ATOM     39  O   UNL     1       5.566   1.316  27.368  0.00  0.00    -0.346 OA
BRANCH  35  40
ATOM     40  N   UNL     1       6.960   3.271  23.900  0.00  0.00    -0.303 NA
ATOM     41  C   UNL     1       5.687   3.630  23.270  0.00  0.00    +0.105 C 
ATOM     42  C   UNL     1       7.941   2.939  22.868  0.00  0.00    +0.105 C 
ENDBRANCH  35  40
BRANCH  34  43
ATOM     43  O   UNL     1       6.059   0.204  23.895  0.00  0.00    -0.385 OA
ATOM     44  H   UNL     1       6.478  -0.570  24.308  0.00  0.00    +0.210 HD
ENDBRANCH  34  43
ENDBRANCH  32  33
ENDBRANCH  15  32
BRANCH  18  45
ATOM     45  O   UNL     1       6.598  -2.708  25.049  0.00  0.00    -0.347 OA
BRANCH  45  46
ATOM     46  C   UNL     1       7.941  -2.958  25.485  0.00  0.00    +0.254 C 
ATOM     47  O   UNL     1       8.354  -2.100  26.547  0.00  0.00    -0.346 OA
ATOM     48  C   UNL     1       8.724  -0.785  26.174  0.00  0.00    +0.149 C 
ATOM     49  C   UNL     1       9.281  -0.152  27.454  0.00  0.00    +0.041 C 
ATOM     50  C   UNL     1       9.794  -0.761  25.066  0.00  0.00    +0.175 C 
ATOM     51  C   UNL     1       9.429  -1.669  23.862  0.00  0.00    +0.099 C 
ATOM     52  C   UNL     1      10.642  -1.736  22.909  0.00  0.00    +0.044 C 
ATOM     53  C   UNL     1       9.045  -3.050  24.414  0.00  0.00    +0.098 C 
BRANCH  50  54
ATOM     54  O   UNL     1       9.991   0.585  24.618  0.00  0.00    -0.386 OA
ATOM     55  H   UNL     1       9.096   0.903  24.386  0.00  0.00    +0.210 HD
ENDBRANCH  50  54
BRANCH  51  56
ATOM     56  O   UNL     1       8.307  -1.074  23.179  0.00  0.00    -0.374 OA
ATOM     57  C   UNL     1       8.548  -0.712  21.825  0.00  0.00    +0.194 C 
ENDBRANCH  51  56
ENDBRANCH  45  46
ENDBRANCH  18  45
TORSDOF 12
ENDMDL
MODEL 6
REMARK VINA RESULT:      -5.7      2.535      8.779
REMARK  Name = 
REMARK  26 active torsions:
REMARK  status: ('A' for Active; 'I' for Inactive)
REMARK    1  A    between atoms: C_1  and  C_2
REMARK    2  A    between atoms: C_2  and  C_3
REMARK    3  A    between atoms: C_8  and  C_10
REMARK    4  A    between atoms: C_11  and  O_13
REMARK    5  A    between atoms: O_13  and  C_14
REMARK    6  A    between atoms: C_17  and  C_18
REMARK    7  A    between atoms: C_17  and  O_19
REMARK    8  A    between atoms: O_19  and  C_20
REMARK    9  A    between atoms: C_21  and  O_23
REMARK   10  A    between atoms: C_24  and  C_26
REMARK   11  A    between atoms: C_28  and  C_30
REMARK   12  A    between atoms: C_31  and  O_33
REMARK   13  A    between atoms: O_33  and  C_34
REMARK   14  A    between atoms: C_37  and  C_39
REMARK   15  A    between atoms: C_41  and  N_46
REMARK   16  A    between atoms: C_43  and  O_45
REMARK   17  A    between atoms: N_46  and  C_47
REMARK   18  A    between atoms: N_46  and  C_48
REMARK   19  A    between atoms: C_49  and  C_50
REMARK   20  A    between atoms: C_49  and  O_51
REMARK   21  A    between atoms: C_53  and  C_55
REMARK   22  A    between atoms: N_57  and  C_58
REMARK   23  A    between atoms: C_59  and  C_61
REMARK   24  A    between atoms: C_62  and  O_64
REMARK   25  A    between atoms: C_65  and  C_66
REMARK   26  A    between atoms: C_65  and  O_67
REMARK                            x       y       z     vdW  Elec       q    Type
REMARK                         _______ _______ _______ _____ _____    ______ ____
ROOT
ATOM      1  C   UNL     1       7.827  -3.515  22.817  0.00  0.00    +0.210 C 
ATOM      2  C   UNL     1       8.004  -4.750  23.832  0.00  0.00    +0.127 C 
ATOM      3  C   UNL     1       7.979  -6.077  23.030  0.00  0.00    +0.048 C 
ATOM      4  C   UNL     1       6.949  -4.890  24.989  0.00  0.00    +0.166 C 
ATOM      5  C   UNL     1       7.178  -4.241  26.419  0.00  0.00    +0.085 C 
ATOM      6  C   UNL     1       8.009  -2.969  26.386  0.00  0.00    +0.027 C 
ATOM      7  N   UNL     1       5.828  -4.056  27.058  0.00  0.00    -0.300 NA
ATOM      8  C   UNL     1       5.312  -5.339  27.566  0.00  0.00    +0.105 C 
ATOM      9  C   UNL     1       5.638  -2.980  28.051  0.00  0.00    +0.087 C 
ATOM     10  C   UNL     1       4.868  -1.710  27.519  0.00  0.00    +0.003 C 
ATOM     11  C   UNL     1       4.177  -1.951  26.179  0.00  0.00    +0.009 C 
ATOM     12  C   UNL     1       5.719  -0.413  27.613  0.00  0.00    +0.041 C 
ATOM     13  C   UNL     1       5.258   0.934  26.935  0.00  0.00    +0.090 C 
ATOM     14  C   UNL     1       3.783   1.074  26.597  0.00  0.00    +0.044 C 
ATOM     15  C   UNL     1       6.213   1.474  25.781  0.00  0.00    +0.158 C 
ATOM     16  C   UNL     1       6.983   0.486  24.852  0.00  0.00    +0.047 C 
ATOM     17  C   UNL     1       6.204   0.096  23.617  0.00  0.00    +0.013 C 
ATOM     18  C   UNL     1       8.574   0.658  24.666  0.00  0.00    +0.140 C 
ATOM     19  C   UNL     1       9.203  -0.029  23.377  0.00  0.00    +0.124 C 
ATOM     20  C   UNL     1      10.693  -0.416  23.454  0.00  0.00    +0.022 C 
ATOM     21  C   UNL     1       8.614  -1.260  22.699  0.00  0.00    +0.313 C 
ATOM     22  O   UNL     1       8.669  -1.339  21.469  0.00  0.00    -0.250 OA
ATOM     23  O   UNL     1       8.214  -2.274  23.493  0.00  0.00    -0.458 OA
ENDROOT
BRANCH   1  25
ATOM     24  C   UNL     1       6.072  -4.172  20.897  0.00  0.00    +0.007 C 
ATOM     25  C   UNL     1       6.408  -3.409  22.178  0.00  0.00    +0.044 C 
ENDBRANCH   1  25
BRANCH   2  26
ATOM     26  O   UNL     1       9.330  -4.748  24.399  0.00  0.00    -0.383 OA
ATOM     27  H   UNL     1       9.900  -4.222  23.811  0.00  0.00    +0.210 HD
ENDBRANCH   2  26
BRANCH   4  28
ATOM     28  O   UNL     1       5.639  -4.558  24.514  0.00  0.00    -0.387 OA
ATOM     29  H   UNL     1       5.045  -5.094  25.076  0.00  0.00    +0.210 HD
ENDBRANCH   4  28
BRANCH  13  30
ATOM     30  O   UNL     1       5.425   1.910  28.022  0.00  0.00    -0.386 OA
ATOM     31  H   UNL     1       6.255   1.677  28.484  0.00  0.00    +0.210 HD
ENDBRANCH  13  30
BRANCH  15  32
ATOM     32  O   UNL     1       5.789   2.761  25.246  0.00  0.00    -0.342 OA
BRANCH  32  33
ATOM     33  C   UNL     1       4.412   3.082  24.912  0.00  0.00    +0.281 C 
ATOM     34  C   UNL     1       4.050   4.496  25.523  0.00  0.00    +0.187 C 
ATOM     35  C   UNL     1       2.705   5.090  24.953  0.00  0.00    +0.092 C 
ATOM     36  C   UNL     1       2.549   4.813  23.450  0.00  0.00    +0.053 C 
ATOM     37  C   UNL     1       2.862   3.367  23.135  0.00  0.00    +0.120 C 
ATOM     38  C   UNL     1       2.703   3.117  21.638  0.00  0.00    +0.038 C 
ATOM     39  O   UNL     1       4.223   3.134  23.507  0.00  0.00    -0.346 OA
BRANCH  35  40
ATOM     40  N   UNL     1       2.368   6.520  25.205  0.00  0.00    -0.303 NA
ATOM     41  C   UNL     1       1.862   6.819  26.548  0.00  0.00    +0.105 C 
ATOM     42  C   UNL     1       1.478   7.107  24.205  0.00  0.00    +0.105 C 
ENDBRANCH  35  40
BRANCH  34  43
ATOM     43  O   UNL     1       3.964   4.377  26.961  0.00  0.00    -0.385 OA
ATOM     44  H   UNL     1       3.023   4.392  27.204  0.00  0.00    +0.210 HD
ENDBRANCH  34  43
ENDBRANCH  32  33
ENDBRANCH  15  32
BRANCH  18  45
ATOM     45  O   UNL     1       9.101   2.022  24.663  0.00  0.00    -0.347 OA
BRANCH  45  46
ATOM     46  C   UNL     1       9.167   2.827  23.478  0.00  0.00    +0.254 C 
ATOM     47  O   UNL     1      10.499   3.197  23.126  0.00  0.00    -0.346 OA
ATOM     48  C   UNL     1      11.067   4.257  23.873  0.00  0.00    +0.149 C 
ATOM     49  C   UNL     1      12.401   4.558  23.181  0.00  0.00    +0.041 C 
ATOM     50  C   UNL     1      10.182   5.518  23.880  0.00  0.00    +0.175 C 
ATOM     51  C   UNL     1       8.708   5.213  24.256  0.00  0.00    +0.099 C 
ATOM     52  C   UNL     1       7.868   6.490  24.040  0.00  0.00    +0.044 C 
ATOM     53  C   UNL     1       8.231   4.046  23.379  0.00  0.00    +0.098 C 
BRANCH  50  54
ATOM     54  O   UNL     1      10.727   6.481  24.790  0.00  0.00    -0.386 OA
ATOM     55  H   UNL     1      11.543   6.065  25.132  0.00  0.00    +0.210 HD
ENDBRANCH  50  54
BRANCH  51  56
ATOM     56  O   UNL     1       8.671   4.838  25.649  0.00  0.00    -0.374 OA
ATOM     57  C   UNL     1       7.658   5.472  26.418  0.00  0.00    +0.194 C 
ENDBRANCH  51  56
ENDBRANCH  45  46
ENDBRANCH  18  45
TORSDOF 12
ENDMDL
MODEL 7
REMARK VINA RESULT:      -5.6      2.156      5.892
REMARK  Name = 
REMARK  26 active torsions:
REMARK  status: ('A' for Active; 'I' for Inactive)
REMARK    1  A    between atoms: C_1  and  C_2
REMARK    2  A    between atoms: C_2  and  C_3
REMARK    3  A    between atoms: C_8  and  C_10
REMARK    4  A    between atoms: C_11  and  O_13
REMARK    5  A    between atoms: O_13  and  C_14
REMARK    6  A    between atoms: C_17  and  C_18
REMARK    7  A    between atoms: C_17  and  O_19
REMARK    8  A    between atoms: O_19  and  C_20
REMARK    9  A    between atoms: C_21  and  O_23
REMARK   10  A    between atoms: C_24  and  C_26
REMARK   11  A    between atoms: C_28  and  C_30
REMARK   12  A    between atoms: C_31  and  O_33
REMARK   13  A    between atoms: O_33  and  C_34
REMARK   14  A    between atoms: C_37  and  C_39
REMARK   15  A    between atoms: C_41  and  N_46
REMARK   16  A    between atoms: C_43  and  O_45
REMARK   17  A    between atoms: N_46  and  C_47
REMARK   18  A    between atoms: N_46  and  C_48
REMARK   19  A    between atoms: C_49  and  C_50
REMARK   20  A    between atoms: C_49  and  O_51
REMARK   21  A    between atoms: C_53  and  C_55
REMARK   22  A    between atoms: N_57  and  C_58
REMARK   23  A    between atoms: C_59  and  C_61
REMARK   24  A    between atoms: C_62  and  O_64
REMARK   25  A    between atoms: C_65  and  C_66
REMARK   26  A    between atoms: C_65  and  O_67
REMARK                            x       y       z     vdW  Elec       q    Type
REMARK                         _______ _______ _______ _____ _____    ______ ____
ROOT
ATOM      1  C   UNL     1       5.353   4.627  24.385  0.00  0.00    +0.210 C 
ATOM      2  C   UNL     1       6.460   5.660  24.927  0.00  0.00    +0.127 C 
ATOM      3  C   UNL     1       5.933   7.108  24.757  0.00  0.00    +0.048 C 
ATOM      4  C   UNL     1       7.884   5.605  24.262  0.00  0.00    +0.166 C 
ATOM      5  C   UNL     1       9.053   4.710  24.852  0.00  0.00    +0.085 C 
ATOM      6  C   UNL     1       8.566   3.453  25.555  0.00  0.00    +0.027 C 
ATOM      7  N   UNL     1      10.022   4.431  23.735  0.00  0.00    -0.300 NA
ATOM      8  C   UNL     1      10.866   5.609  23.471  0.00  0.00    +0.105 C 
ATOM      9  C   UNL     1      10.834   3.198  23.770  0.00  0.00    +0.087 C 
ATOM     10  C   UNL     1      10.350   2.053  22.800  0.00  0.00    +0.003 C 
ATOM     11  C   UNL     1       9.334   2.536  21.768  0.00  0.00    +0.009 C 
ATOM     12  C   UNL     1       9.972   0.748  23.556  0.00  0.00    +0.041 C 
ATOM     13  C   UNL     1       9.246  -0.451  22.833  0.00  0.00    +0.090 C 
ATOM     14  C   UNL     1       9.341  -0.509  21.318  0.00  0.00    +0.044 C 
ATOM     15  C   UNL     1       7.789  -0.788  23.378  0.00  0.00    +0.158 C 
ATOM     16  C   UNL     1       6.852   0.338  23.909  0.00  0.00    +0.047 C 
ATOM     17  C   UNL     1       5.984   0.952  22.834  0.00  0.00    +0.013 C 
ATOM     18  C   UNL     1       6.178   0.182  25.364  0.00  0.00    +0.140 C 
ATOM     19  C   UNL     1       4.893   1.079  25.637  0.00  0.00    +0.124 C 
ATOM     20  C   UNL     1       4.590   1.428  27.107  0.00  0.00    +0.022 C 
ATOM     21  C   UNL     1       4.634   2.419  24.958  0.00  0.00    +0.313 C 
ATOM     22  O   UNL     1       3.473   2.714  24.661  0.00  0.00    -0.250 OA
ATOM     23  O   UNL     1       5.668   3.281  24.870  0.00  0.00    -0.458 OA
ENDROOT
BRANCH   1  25
ATOM     24  C   UNL     1       3.852   5.180  22.231  0.00  0.00    +0.007 C 
ATOM     25  C   UNL     1       5.152   4.654  22.839  0.00  0.00    +0.044 C 
ENDBRANCH   1  25
BRANCH   2  26
ATOM     26  O   UNL     1       6.602   5.540  26.357  0.00  0.00    -0.383 OA
ATOM     27  H   UNL     1       5.880   4.970  26.677  0.00  0.00    +0.210 HD
ENDBRANCH   2  26
BRANCH   4  28
ATOM     28  O   UNL     1       7.769   5.380  22.853  0.00  0.00    -0.387 OA
ATOM     29  H   UNL     1       6.902   5.771  22.624  0.00  0.00    +0.210 HD
ENDBRANCH   4  28
BRANCH  13  30
ATOM     30  O   UNL     1      10.058  -1.606  23.244  0.00  0.00    -0.386 OA
ATOM     31  H   UNL     1      10.708  -1.762  22.529  0.00  0.00    +0.210 HD
ENDBRANCH  13  30
BRANCH  15  32
ATOM     32  O   UNL     1       7.197  -1.955  22.736  0.00  0.00    -0.342 OA
BRANCH  32  33
ATOM     33  C   UNL     1       6.927  -3.205  23.425  0.00  0.00    +0.281 C 
ATOM     34  C   UNL     1       5.414  -3.605  23.191  0.00  0.00    +0.187 C 
ATOM     35  C   UNL     1       5.095  -5.092  23.610  0.00  0.00    +0.092 C 
ATOM     36  C   UNL     1       6.236  -6.049  23.232  0.00  0.00    +0.053 C 
ATOM     37  C   UNL     1       7.574  -5.479  23.647  0.00  0.00    +0.120 C 
ATOM     38  C   UNL     1       8.691  -6.446  23.260  0.00  0.00    +0.038 C 
ATOM     39  O   UNL     1       7.753  -4.251  22.938  0.00  0.00    -0.346 OA
BRANCH  35  40
ATOM     40  N   UNL     1       3.804  -5.711  23.195  0.00  0.00    -0.303 NA
ATOM     41  C   UNL     1       2.612  -4.892  23.424  0.00  0.00    +0.105 C 
ATOM     42  C   UNL     1       3.588  -7.053  23.734  0.00  0.00    +0.105 C 
ENDBRANCH  35  40
BRANCH  34  43
ATOM     43  O   UNL     1       4.568  -2.695  23.928  0.00  0.00    -0.385 OA
ATOM     44  H   UNL     1       4.460  -3.051  24.826  0.00  0.00    +0.210 HD
ENDBRANCH  34  43
ENDBRANCH  32  33
ENDBRANCH  15  32
BRANCH  18  45
ATOM     45  O   UNL     1       5.793  -1.166  25.779  0.00  0.00    -0.347 OA
BRANCH  45  46
ATOM     46  C   UNL     1       6.032  -1.671  27.099  0.00  0.00    +0.254 C 
ATOM     47  O   UNL     1       6.829  -2.854  27.110  0.00  0.00    -0.346 OA
ATOM     48  C   UNL     1       6.160  -4.056  26.776  0.00  0.00    +0.149 C 
ATOM     49  C   UNL     1       7.184  -5.166  27.036  0.00  0.00    +0.041 C 
ATOM     50  C   UNL     1       4.901  -4.292  27.633  0.00  0.00    +0.175 C 
ATOM     51  C   UNL     1       3.968  -3.053  27.679  0.00  0.00    +0.099 C 
ATOM     52  C   UNL     1       2.852  -3.313  28.713  0.00  0.00    +0.044 C 
ATOM     53  C   UNL     1       4.826  -1.831  28.042  0.00  0.00    +0.098 C 
BRANCH  50  54
ATOM     54  O   UNL     1       4.182  -5.423  27.128  0.00  0.00    -0.386 OA
ATOM     55  H   UNL     1       4.865  -6.107  26.981  0.00  0.00    +0.210 HD
ENDBRANCH  50  54
BRANCH  51  56
ATOM     56  O   UNL     1       3.387  -2.882  26.369  0.00  0.00    -0.374 OA
ATOM     57  C   UNL     1       1.983  -2.655  26.357  0.00  0.00    +0.194 C 
ENDBRANCH  51  56
ENDBRANCH  45  46
ENDBRANCH  18  45
TORSDOF 12
ENDMDL
MODEL 8
REMARK VINA RESULT:      -5.4      2.108      9.633
REMARK  Name = 
REMARK  26 active torsions:
REMARK  status: ('A' for Active; 'I' for Inactive)
REMARK    1  A    between atoms: C_1  and  C_2
REMARK    2  A    between atoms: C_2  and  C_3
REMARK    3  A    between atoms: C_8  and  C_10
REMARK    4  A    between atoms: C_11  and  O_13
REMARK    5  A    between atoms: O_13  and  C_14
REMARK    6  A    between atoms: C_17  and  C_18
REMARK    7  A    between atoms: C_17  and  O_19
REMARK    8  A    between atoms: O_19  and  C_20
REMARK    9  A    between atoms: C_21  and  O_23
REMARK   10  A    between atoms: C_24  and  C_26
REMARK   11  A    between atoms: C_28  and  C_30
REMARK   12  A    between atoms: C_31  and  O_33
REMARK   13  A    between atoms: O_33  and  C_34
REMARK   14  A    between atoms: C_37  and  C_39
REMARK   15  A    between atoms: C_41  and  N_46
REMARK   16  A    between atoms: C_43  and  O_45
REMARK   17  A    between atoms: N_46  and  C_47
REMARK   18  A    between atoms: N_46  and  C_48
REMARK   19  A    between atoms: C_49  and  C_50
REMARK   20  A    between atoms: C_49  and  O_51
REMARK   21  A    between atoms: C_53  and  C_55
REMARK   22  A    between atoms: N_57  and  C_58
REMARK   23  A    between atoms: C_59  and  C_61
REMARK   24  A    between atoms: C_62  and  O_64
REMARK   25  A    between atoms: C_65  and  C_66
REMARK   26  A    between atoms: C_65  and  O_67
REMARK                            x       y       z     vdW  Elec       q    Type
REMARK                         _______ _______ _______ _____ _____    ______ ____
ROOT
ATOM      1  C   UNL     1       3.026  -5.392  29.007  0.00  0.00    +0.210 C 
ATOM      2  C   UNL     1       1.847  -6.325  28.437  0.00  0.00    +0.127 C 
ATOM      3  C   UNL     1       1.507  -7.415  29.486  0.00  0.00    +0.048 C 
ATOM      4  C   UNL     1       2.106  -7.062  27.072  0.00  0.00    +0.166 C 
ATOM      5  C   UNL     1       1.689  -6.424  25.681  0.00  0.00    +0.085 C 
ATOM      6  C   UNL     1       1.728  -4.905  25.668  0.00  0.00    +0.027 C 
ATOM      7  N   UNL     1       2.548  -7.052  24.616  0.00  0.00    -0.300 NA
ATOM      8  C   UNL     1       2.073  -8.409  24.297  0.00  0.00    +0.105 C 
ATOM      9  C   UNL     1       2.845  -6.294  23.384  0.00  0.00    +0.087 C 
ATOM     10  C   UNL     1       4.295  -5.678  23.313  0.00  0.00    +0.003 C 
ATOM     11  C   UNL     1       5.236  -6.245  24.374  0.00  0.00    +0.009 C 
ATOM     12  C   UNL     1       4.281  -4.129  23.185  0.00  0.00    +0.041 C 
ATOM     13  C   UNL     1       5.598  -3.272  23.328  0.00  0.00    +0.090 C 
ATOM     14  C   UNL     1       6.921  -3.990  23.128  0.00  0.00    +0.044 C 
ATOM     15  C   UNL     1       5.618  -2.263  24.561  0.00  0.00    +0.158 C 
ATOM     16  C   UNL     1       4.903  -2.620  25.899  0.00  0.00    +0.047 C 
ATOM     17  C   UNL     1       5.789  -3.361  26.873  0.00  0.00    +0.013 C 
ATOM     18  C   UNL     1       3.863  -1.570  26.540  0.00  0.00    +0.140 C 
ATOM     19  C   UNL     1       3.553  -1.753  28.090  0.00  0.00    +0.124 C 
ATOM     20  C   UNL     1       2.196  -1.225  28.593  0.00  0.00    +0.022 C 
ATOM     21  C   UNL     1       3.639  -3.088  28.820  0.00  0.00    +0.313 C 
ATOM     22  O   UNL     1       4.054  -3.098  29.982  0.00  0.00    -0.250 OA
ATOM     23  O   UNL     1       3.099  -4.164  28.212  0.00  0.00    -0.458 OA
ENDROOT
BRANCH   1  25
ATOM     24  C   UNL     1       5.080  -6.312  30.467  0.00  0.00    +0.007 C 
ATOM     25  C   UNL     1       4.412  -6.100  29.109  0.00  0.00    +0.044 C 
ENDBRANCH   1  25
BRANCH   2  26
ATOM     26  O   UNL     1       0.616  -5.579  28.345  0.00  0.00    -0.383 OA
ATOM     27  H   UNL     1       0.580  -5.181  27.457  0.00  0.00    +0.210 HD
ENDBRANCH   2  26
BRANCH   4  28
ATOM     28  O   UNL     1       3.459  -7.525  27.004  0.00  0.00    -0.387 OA
ATOM     29  H   UNL     1       3.947  -6.766  26.628  0.00  0.00    +0.210 HD
ENDBRANCH   4  28
BRANCH  13  30
ATOM     30  O   UNL     1       5.534  -2.394  22.150  0.00  0.00    -0.386 OA
ATOM     31  H   UNL     1       5.410  -2.975  21.373  0.00  0.00    +0.210 HD
ENDBRANCH  13  30
BRANCH  15  32
ATOM     32  O   UNL     1       6.817  -1.437  24.599  0.00  0.00    -0.342 OA
BRANCH  32  33
ATOM     33  C   UNL     1       7.480  -0.922  23.414  0.00  0.00    +0.281 C 
ATOM     34  C   UNL     1       7.289   0.648  23.357  0.00  0.00    +0.187 C 
ATOM     35  C   UNL     1       8.233   1.349  22.306  0.00  0.00    +0.092 C 
ATOM     36  C   UNL     1       9.635   0.720  22.287  0.00  0.00    +0.053 C 
ATOM     37  C   UNL     1       9.546  -0.789  22.248  0.00  0.00    +0.120 C 
ATOM     38  C   UNL     1      10.949  -1.390  22.232  0.00  0.00    +0.038 C 
ATOM     39  O   UNL     1       8.870  -1.208  23.436  0.00  0.00    -0.346 OA
BRANCH  35  40
ATOM     40  N   UNL     1       8.383   2.832  22.326  0.00  0.00    -0.303 NA
ATOM     41  C   UNL     1       9.078   3.377  23.495  0.00  0.00    +0.105 C 
ATOM     42  C   UNL     1       7.132   3.559  22.117  0.00  0.00    +0.105 C 
ENDBRANCH  35  40
BRANCH  34  43
ATOM     43  O   UNL     1       5.908   0.942  23.049  0.00  0.00    -0.385 OA
ATOM     44  H   UNL     1       5.808   0.920  22.083  0.00  0.00    +0.210 HD
ENDBRANCH  34  43
ENDBRANCH  32  33
ENDBRANCH  15  32
BRANCH  18  45
ATOM     45  O   UNL     1       4.167  -0.149  26.380  0.00  0.00    -0.347 OA
BRANCH  45  46
ATOM     46  C   UNL     1       5.232   0.502  27.086  0.00  0.00    +0.254 C 
ATOM     47  O   UNL     1       4.863   0.914  28.401  0.00  0.00    -0.346 OA
ATOM     48  C   UNL     1       4.089   2.096  28.487  0.00  0.00    +0.149 C 
ATOM     49  C   UNL     1       3.990   2.397  29.987  0.00  0.00    +0.041 C 
ATOM     50  C   UNL     1       4.739   3.285  27.754  0.00  0.00    +0.175 C 
ATOM     51  C   UNL     1       5.174   2.930  26.308  0.00  0.00    +0.099 C 
ATOM     52  C   UNL     1       5.988   4.110  25.734  0.00  0.00    +0.044 C 
ATOM     53  C   UNL     1       5.992   1.632  26.367  0.00  0.00    +0.098 C 
BRANCH  50  54
ATOM     54  O   UNL     1       3.828   4.390  27.731  0.00  0.00    -0.386 OA
ATOM     55  H   UNL     1       3.723   4.645  28.669  0.00  0.00    +0.210 HD
ENDBRANCH  50  54
BRANCH  51  56
ATOM     56  O   UNL     1       3.983   2.734  25.519  0.00  0.00    -0.374 OA
ATOM     57  C   UNL     1       3.920   3.496  24.320  0.00  0.00    +0.194 C 
ENDBRANCH  51  56
ENDBRANCH  45  46
ENDBRANCH  18  45
TORSDOF 12
ENDMDL
MODEL 9
REMARK VINA RESULT:      -4.6      1.991      8.662
REMARK  Name = 
REMARK  26 active torsions:
REMARK  status: ('A' for Active; 'I' for Inactive)
REMARK    1  A    between atoms: C_1  and  C_2
REMARK    2  A    between atoms: C_2  and  C_3
REMARK    3  A    between atoms: C_8  and  C_10
REMARK    4  A    between atoms: C_11  and  O_13
REMARK    5  A    between atoms: O_13  and  C_14
REMARK    6  A    between atoms: C_17  and  C_18
REMARK    7  A    between atoms: C_17  and  O_19
REMARK    8  A    between atoms: O_19  and  C_20
REMARK    9  A    between atoms: C_21  and  O_23
REMARK   10  A    between atoms: C_24  and  C_26
REMARK   11  A    between atoms: C_28  and  C_30
REMARK   12  A    between atoms: C_31  and  O_33
REMARK   13  A    between atoms: O_33  and  C_34
REMARK   14  A    between atoms: C_37  and  C_39
REMARK   15  A    between atoms: C_41  and  N_46
REMARK   16  A    between atoms: C_43  and  O_45
REMARK   17  A    between atoms: N_46  and  C_47
REMARK   18  A    between atoms: N_46  and  C_48
REMARK   19  A    between atoms: C_49  and  C_50
REMARK   20  A    between atoms: C_49  and  O_51
REMARK   21  A    between atoms: C_53  and  C_55
REMARK   22  A    between atoms: N_57  and  C_58
REMARK   23  A    between atoms: C_59  and  C_61
REMARK   24  A    between atoms: C_62  and  O_64
REMARK   25  A    between atoms: C_65  and  C_66
REMARK   26  A    between atoms: C_65  and  O_67
REMARK                            x       y       z     vdW  Elec       q    Type
REMARK                         _______ _______ _______ _____ _____    ______ ____
ROOT
ATOM      1  C   UNL     1       3.907  -5.377  24.938  0.00  0.00    +0.210 C 
ATOM      2  C   UNL     1       4.280  -6.535  25.989  0.00  0.00    +0.127 C 
ATOM      3  C   UNL     1       3.846  -7.907  25.412  0.00  0.00    +0.048 C 
ATOM      4  C   UNL     1       3.666  -6.425  27.432  0.00  0.00    +0.166 C 
ATOM      5  C   UNL     1       4.429  -5.698  28.617  0.00  0.00    +0.085 C 
ATOM      6  C   UNL     1       5.332  -4.565  28.159  0.00  0.00    +0.027 C 
ATOM      7  N   UNL     1       3.399  -5.268  29.627  0.00  0.00    -0.300 NA
ATOM      8  C   UNL     1       2.949  -6.417  30.433  0.00  0.00    +0.105 C 
ATOM      9  C   UNL     1       3.669  -4.096  30.485  0.00  0.00    +0.087 C 
ATOM     10  C   UNL     1       2.906  -2.779  30.072  0.00  0.00    +0.003 C 
ATOM     11  C   UNL     1       1.784  -3.030  29.067  0.00  0.00    +0.009 C 
ATOM     12  C   UNL     1       3.874  -1.613  29.723  0.00  0.00    +0.041 C 
ATOM     13  C   UNL     1       3.359  -0.276  29.064  0.00  0.00    +0.090 C 
ATOM     14  C   UNL     1       1.881   0.044  29.203  0.00  0.00    +0.044 C 
ATOM     15  C   UNL     1       3.924   0.023  27.606  0.00  0.00    +0.158 C 
ATOM     16  C   UNL     1       4.228  -1.139  26.612  0.00  0.00    +0.047 C 
ATOM     17  C   UNL     1       3.044  -1.516  25.752  0.00  0.00    +0.013 C 
ATOM     18  C   UNL     1       5.674  -1.213  25.904  0.00  0.00    +0.140 C 
ATOM     19  C   UNL     1       5.757  -2.089  24.579  0.00  0.00    +0.124 C 
ATOM     20  C   UNL     1       7.136  -2.677  24.222  0.00  0.00    +0.022 C 
ATOM     21  C   UNL     1       4.846  -3.276  24.288  0.00  0.00    +0.313 C 
ATOM     22  O   UNL     1       4.477  -3.464  23.126  0.00  0.00    -0.250 OA
ATOM     23  O   UNL     1       4.629  -4.152  25.290  0.00  0.00    -0.458 OA
ENDROOT
BRANCH   1  25
ATOM     24  C   UNL     1       1.655  -5.494  23.485  0.00  0.00    +0.007 C 
ATOM     25  C   UNL     1       2.376  -5.123  24.780  0.00  0.00    +0.044 C 
ENDBRANCH   1  25
BRANCH   2  26
ATOM     26  O   UNL     1       5.712  -6.675  26.095  0.00  0.00    -0.383 OA
ATOM     27  H   UNL     1       6.050  -6.910  25.213  0.00  0.00    +0.210 HD
ENDBRANCH   2  26
BRANCH   4  28
ATOM     28  O   UNL     1       2.316  -5.950  27.365  0.00  0.00    -0.387 OA
ATOM     29  H   UNL     1       1.807  -6.735  27.081  0.00  0.00    +0.210 HD
ENDBRANCH   4  28
BRANCH  13  30
ATOM     30  O   UNL     1       3.985   0.754  29.907  0.00  0.00    -0.386 OA
ATOM     31  H   UNL     1       4.053   0.377  30.808  0.00  0.00    +0.210 HD
ENDBRANCH  13  30
BRANCH  15  32
ATOM     32  O   UNL     1       3.487   1.308  27.078  0.00  0.00    -0.342 OA
BRANCH  32  33
ATOM     33  C   UNL     1       4.369   2.448  26.895  0.00  0.00    +0.281 C 
ATOM     34  C   UNL     1       4.025   3.150  25.520  0.00  0.00    +0.187 C 
ATOM     35  C   UNL     1       4.685   4.574  25.370  0.00  0.00    +0.092 C 
ATOM     36  C   UNL     1       4.655   5.360  26.690  0.00  0.00    +0.053 C 
ATOM     37  C   UNL     1       5.117   4.495  27.841  0.00  0.00    +0.120 C 
ATOM     38  C   UNL     1       5.077   5.295  29.140  0.00  0.00    +0.038 C 
ATOM     39  O   UNL     1       4.209   3.395  27.939  0.00  0.00    -0.346 OA
BRANCH  35  40
ATOM     40  N   UNL     1       4.239   5.480  24.273  0.00  0.00    -0.303 NA
ATOM     41  C   UNL     1       5.120   6.618  24.000  0.00  0.00    +0.105 C 
ATOM     42  C   UNL     1       2.861   5.949  24.413  0.00  0.00    +0.105 C 
ENDBRANCH  35  40
BRANCH  34  43
ATOM     43  O   UNL     1       4.453   2.295  24.437  0.00  0.00    -0.385 OA
ATOM     44  H   UNL     1       5.268   2.671  24.065  0.00  0.00    +0.210 HD
ENDBRANCH  34  43
ENDBRANCH  32  33
ENDBRANCH  15  32
BRANCH  18  45
ATOM     45  O   UNL     1       6.312   0.056  25.559  0.00  0.00    -0.347 OA
BRANCH  45  46
ATOM     46  C   UNL     1       7.510   0.521  26.195  0.00  0.00    +0.254 C 
ATOM     47  O   UNL     1       7.554   1.940  26.340  0.00  0.00    -0.346 OA
ATOM     48  C   UNL     1       7.891   2.672  25.176  0.00  0.00    +0.149 C 
ATOM     49  C   UNL     1       8.037   4.123  25.649  0.00  0.00    +0.041 C 
ATOM     50  C   UNL     1       9.208   2.194  24.535  0.00  0.00    +0.175 C 
ATOM     51  C   UNL     1       9.252   0.655  24.336  0.00  0.00    +0.099 C 
ATOM     52  C   UNL     1      10.673   0.257  23.882  0.00  0.00    +0.044 C 
ATOM     53  C   UNL     1       8.859  -0.003  25.667  0.00  0.00    +0.098 C 
BRANCH  50  54
ATOM     54  O   UNL     1       9.396   2.853  23.277  0.00  0.00    -0.386 OA
ATOM     55  H   UNL     1       8.736   3.573  23.273  0.00  0.00    +0.210 HD
ENDBRANCH  50  54
BRANCH  51  56
ATOM     56  O   UNL     1       8.300   0.311  23.308  0.00  0.00    -0.374 OA
ATOM     57  C   UNL     1       8.857  -0.296  22.149  0.00  0.00    +0.194 C 
ENDBRANCH  51  56
ENDBRANCH  45  46
ENDBRANCH  18  45
TORSDOF 12
ENDMDL
