MODEL 1
REMARK VINA RESULT:      -4.5      0.000      0.000
REMARK  Name = 
REMARK  8 active torsions:
REMARK  status: ('A' for Active; 'I' for Inactive)
REMARK    1  A    between atoms: N_1  and  C_2
REMARK    2  A    between atoms: C_2  and  C_4
REMARK    3  A    between atoms: C_2  and  C_10
REMARK    4  A    between atoms: C_4  and  O_5
REMARK    5  A    between atoms: O_5  and  P_6
REMARK    6  A    between atoms: P_6  and  O_7
REMARK    7  A    between atoms: P_6  and  O_8
REMARK    8  A    between atoms: C_10  and  O_11
REMARK                            x       y       z     vdW  Elec       q    Type
REMARK                         _______ _______ _______ _____ _____    ______ ____
ROOT
ATOM      1  C   UNK     1      11.790   4.840  23.511  0.00  0.00    +0.187 C 
ENDROOT
BRANCH   1   2
ATOM      2  N   UNK     1      10.713   5.823  23.152  0.00  0.00    -0.317 NA
ATOM      3  H   UNK     1      10.220   5.480  22.320  0.00  0.00    +0.119 HD
ATOM      4  H   UNK     1      10.010   5.799  23.895  0.00  0.00    +0.119 HD
ENDBRANCH   1   2
BRANCH   1   5
ATOM      5  C   UNK     1      13.031   5.187  22.670  0.00  0.00    +0.324 C 
ATOM      6  O   UNK     1      13.045   5.599  21.524  0.00  0.00    -0.249 OA
BRANCH   5   7
ATOM      7  O   UNK     1      14.173   4.963  23.384  0.00  0.00    -0.479 OA
ATOM      8  H   UNK     1      14.909   4.961  22.725  0.00  0.00    +0.295 HD
ENDBRANCH   5   7
ENDBRANCH   1   5
BRANCH   1   9
ATOM      9  C   UNK     1      11.366   3.390  23.272  0.00  0.00    +0.202 C 
BRANCH   9  10
ATOM     10  O   UNK     1      10.062   3.174  23.799  0.00  0.00    -0.285 OA
BRANCH  10  11
ATOM     11  P   UNK     1       8.999   2.361  22.703  0.00  0.00    +0.472 P 
ATOM     12  O   UNK     1       8.047   1.633  21.722  0.00  0.00    -0.228 OA
BRANCH  11  13
ATOM     13  O   UNK     1      10.270   2.355  21.671  0.00  0.00    -0.303 OA
ATOM     14  H   UNK     1       9.950   1.908  20.865  0.00  0.00    +0.222 HD
ENDBRANCH  11  13
BRANCH  11  15
ATOM     15  O   UNK     1       8.495   3.847  22.242  0.00  0.00    -0.303 OA
ATOM     16  H   UNK     1       8.991   4.511  22.758  0.00  0.00    +0.222 HD
ENDBRANCH  11  15
ENDBRANCH  10  11
ENDBRANCH   9  10
ENDBRANCH   1   9
TORSDOF 8
ENDMDL
MODEL 2
REMARK VINA RESULT:      -4.5      9.669     10.505
REMARK  Name = 
REMARK  8 active torsions:
REMARK  status: ('A' for Active; 'I' for Inactive)
REMARK    1  A    between atoms: N_1  and  C_2
REMARK    2  A    between atoms: C_2  and  C_4
REMARK    3  A    between atoms: C_2  and  C_10
REMARK    4  A    between atoms: C_4  and  O_5
REMARK    5  A    between atoms: O_5  and  P_6
REMARK    6  A    between atoms: P_6  and  O_7
REMARK    7  A    between atoms: P_6  and  O_8
REMARK    8  A    between atoms: C_10  and  O_11
REMARK                            x       y       z     vdW  Elec       q    Type
REMARK                         _______ _______ _______ _____ _____    ______ ____
ROOT
ATOM      1  C   UNK     1       8.758  -4.795  25.298  0.00  0.00    +0.187 C 
ENDROOT
BRANCH   1   2
ATOM      2  N   UNK     1       9.870  -5.804  25.251  0.00  0.00    -0.317 NA
ATOM      3  H   UNK     1      10.749  -5.334  25.495  0.00  0.00    +0.119 HD
ATOM      4  H   UNK     1       9.716  -6.472  26.011  0.00  0.00    +0.119 HD
ENDBRANCH   1   2
BRANCH   1   5
ATOM      5  C   UNK     1       7.653  -5.370  26.201  0.00  0.00    +0.324 C 
ATOM      6  O   UNK     1       7.748  -5.658  27.381  0.00  0.00    -0.249 OA
BRANCH   5   7
ATOM      7  O   UNK     1       6.497  -5.540  25.495  0.00  0.00    -0.479 OA
ATOM      8  H   UNK     1       5.776  -5.173  26.062  0.00  0.00    +0.295 HD
ENDBRANCH   5   7
ENDBRANCH   1   5
BRANCH   1   9
ATOM      9  C   UNK     1       8.204  -4.465  23.911  0.00  0.00    +0.202 C 
BRANCH   9  10
ATOM     10  O   UNK     1       8.063  -5.659  23.150  0.00  0.00    -0.285 OA
BRANCH  10  11
ATOM     11  P   UNK     1       6.948  -5.514  21.836  0.00  0.00    +0.472 P 
ATOM     12  O   UNK     1       5.949  -5.384  20.659  0.00  0.00    -0.228 OA
BRANCH  11  13
ATOM     13  O   UNK     1       6.314  -4.260  22.677  0.00  0.00    -0.303 OA
ATOM     14  H   UNK     1       5.347  -4.335  22.569  0.00  0.00    +0.222 HD
ENDBRANCH  11  13
BRANCH  11  15
ATOM     15  O   UNK     1       6.038  -6.631  22.611  0.00  0.00    -0.303 OA
ATOM     16  H   UNK     1       6.572  -7.443  22.709  0.00  0.00    +0.222 HD
ENDBRANCH  11  15
ENDBRANCH  10  11
ENDBRANCH   9  10
ENDBRANCH   1   9
TORSDOF 8
ENDMDL
MODEL 3
REMARK VINA RESULT:      -4.4      6.665      7.787
REMARK  Name = 
REMARK  8 active torsions:
REMARK  status: ('A' for Active; 'I' for Inactive)
REMARK    1  A    between atoms: N_1  and  C_2
REMARK    2  A    between atoms: C_2  and  C_4
REMARK    3  A    between atoms: C_2  and  C_10
REMARK    4  A    between atoms: C_4  and  O_5
REMARK    5  A    between atoms: O_5  and  P_6
REMARK    6  A    between atoms: P_6  and  O_7
REMARK    7  A    between atoms: P_6  and  O_8
REMARK    8  A    between atoms: C_10  and  O_11
REMARK                            x       y       z     vdW  Elec       q    Type
REMARK                         _______ _______ _______ _____ _____    ______ ____
ROOT
ATOM      1  C   UNK     1       8.583  -1.749  22.993  0.00  0.00    +0.187 C 
ENDROOT
BRANCH   1   2
ATOM      2  N   UNK     1       7.921  -2.891  22.276  0.00  0.00    -0.317 NA
ATOM      3  H   UNK     1       7.433  -2.523  21.453  0.00  0.00    +0.119 HD
ATOM      4  H   UNK     1       8.660  -3.487  21.891  0.00  0.00    +0.119 HD
ENDBRANCH   1   2
BRANCH   1   5
ATOM      5  C   UNK     1       9.578  -1.104  22.011  0.00  0.00    +0.324 C 
ATOM      6  O   UNK     1       9.381  -0.132  21.304  0.00  0.00    -0.249 OA
BRANCH   5   7
ATOM      7  O   UNK     1      10.763  -1.783  22.014  0.00  0.00    -0.479 OA
ATOM      8  H   UNK     1      11.448  -1.134  21.721  0.00  0.00    +0.295 HD
ENDBRANCH   5   7
ENDBRANCH   1   5
BRANCH   1   9
ATOM      9  C   UNK     1       9.297  -2.191  24.271  0.00  0.00    +0.202 C 
BRANCH   9  10
ATOM     10  O   UNK     1       9.789  -3.518  24.116  0.00  0.00    -0.285 OA
BRANCH  10  11
ATOM     11  P   UNK     1       9.044  -4.660  25.180  0.00  0.00    +0.472 P 
ATOM     12  O   UNK     1       8.377  -5.683  26.132  0.00  0.00    -0.228 OA
BRANCH  11  13
ATOM     13  O   UNK     1      10.494  -5.421  25.177  0.00  0.00    -0.303 OA
ATOM     14  H   UNK     1      10.416  -6.130  24.511  0.00  0.00    +0.222 HD
ENDBRANCH  11  13
BRANCH  11  15
ATOM     15  O   UNK     1       8.520  -5.427  23.833  0.00  0.00    -0.303 OA
ATOM     16  H   UNK     1       8.884  -6.333  23.838  0.00  0.00    +0.222 HD
ENDBRANCH  11  15
ENDBRANCH  10  11
ENDBRANCH   9  10
ENDBRANCH   1   9
TORSDOF 8
ENDMDL
MODEL 4
REMARK VINA RESULT:      -4.3      7.377      9.068
REMARK  Name = 
REMARK  8 active torsions:
REMARK  status: ('A' for Active; 'I' for Inactive)
REMARK    1  A    between atoms: N_1  and  C_2
REMARK    2  A    between atoms: C_2  and  C_4
REMARK    3  A    between atoms: C_2  and  C_10
REMARK    4  A    between atoms: C_4  and  O_5
REMARK    5  A    between atoms: O_5  and  P_6
REMARK    6  A    between atoms: P_6  and  O_7
REMARK    7  A    between atoms: P_6  and  O_8
REMARK    8  A    between atoms: C_10  and  O_11
REMARK                            x       y       z     vdW  Elec       q    Type
REMARK                         _______ _______ _______ _____ _____    ______ ____
ROOT
ATOM      1  C   UNK     1       9.185  -4.542  25.627  0.00  0.00    +0.187 C 
ENDROOT
BRANCH   1   2
ATOM      2  N   UNK     1      10.251  -5.567  25.368  0.00  0.00    -0.317 NA
ATOM      3  H   UNK     1      10.996  -5.448  26.063  0.00  0.00    +0.119 HD
ATOM      4  H   UNK     1       9.853  -6.488  25.574  0.00  0.00    +0.119 HD
ENDBRANCH   1   2
BRANCH   1   5
ATOM      5  C   UNK     1       7.927  -5.293  26.097  0.00  0.00    +0.324 C 
ATOM      6  O   UNK     1       6.896  -5.456  25.469  0.00  0.00    -0.249 OA
BRANCH   5   7
ATOM      7  O   UNK     1       8.100  -5.774  27.363  0.00  0.00    -0.479 OA
ATOM      8  H   UNK     1       7.467  -5.273  27.932  0.00  0.00    +0.295 HD
ENDBRANCH   5   7
ENDBRANCH   1   5
BRANCH   1   9
ATOM      9  C   UNK     1       8.876  -3.690  24.395  0.00  0.00    +0.202 C 
BRANCH   9  10
ATOM     10  O   UNK     1      10.069  -3.079  23.918  0.00  0.00    -0.285 OA
BRANCH  10  11
ATOM     11  P   UNK     1       9.860  -1.428  23.446  0.00  0.00    +0.472 P 
ATOM     12  O   UNK     1       9.672   0.050  23.023  0.00  0.00    -0.228 OA
BRANCH  11  13
ATOM     13  O   UNK     1       8.382  -1.897  22.918  0.00  0.00    -0.303 OA
ATOM     14  H   UNK     1       8.172  -1.306  22.171  0.00  0.00    +0.222 HD
ENDBRANCH  11  13
BRANCH  11  15
ATOM     15  O   UNK     1      10.605  -1.835  22.047  0.00  0.00    -0.303 OA
ATOM     16  H   UNK     1      10.263  -2.704  21.762  0.00  0.00    +0.222 HD
ENDBRANCH  11  15
ENDBRANCH  10  11
ENDBRANCH   9  10
ENDBRANCH   1   9
TORSDOF 8
ENDMDL
MODEL 5
REMARK VINA RESULT:      -4.3      4.416      5.900
REMARK  Name = 
REMARK  8 active torsions:
REMARK  status: ('A' for Active; 'I' for Inactive)
REMARK    1  A    between atoms: N_1  and  C_2
REMARK    2  A    between atoms: C_2  and  C_4
REMARK    3  A    between atoms: C_2  and  C_10
REMARK    4  A    between atoms: C_4  and  O_5
REMARK    5  A    between atoms: O_5  and  P_6
REMARK    6  A    between atoms: P_6  and  O_7
REMARK    7  A    between atoms: P_6  and  O_8
REMARK    8  A    between atoms: C_10  and  O_11
REMARK                            x       y       z     vdW  Elec       q    Type
REMARK                         _______ _______ _______ _____ _____    ______ ____
ROOT
ATOM      1  C   UNK     1       9.263  -1.200  24.255  0.00  0.00    +0.187 C 
ENDROOT
BRANCH   1   2
ATOM      2  N   UNK     1       8.626  -1.480  25.586  0.00  0.00    -0.317 NA
ATOM      3  H   UNK     1       7.746  -1.983  25.428  0.00  0.00    +0.119 HD
ATOM      4  H   UNK     1       9.220  -2.152  26.079  0.00  0.00    +0.119 HD
ENDBRANCH   1   2
BRANCH   1   5
ATOM      5  C   UNK     1       9.930  -2.503  23.779  0.00  0.00    +0.324 C 
ATOM      6  O   UNK     1       9.865  -3.595  24.316  0.00  0.00    -0.249 OA
BRANCH   5   7
ATOM      7  O   UNK     1      10.645  -2.286  22.637  0.00  0.00    -0.479 OA
ATOM      8  H   UNK     1      10.198  -2.814  21.932  0.00  0.00    +0.295 HD
ENDBRANCH   5   7
ENDBRANCH   1   5
BRANCH   1   9
ATOM      9  C   UNK     1      10.286  -0.064  24.321  0.00  0.00    +0.202 C 
BRANCH   9  10
ATOM     10  O   UNK     1      10.562   0.414  23.009  0.00  0.00    -0.285 OA
BRANCH  10  11
ATOM     11  P   UNK     1       9.173   1.046  22.196  0.00  0.00    +0.472 P 
ATOM     12  O   UNK     1       7.928   1.614  21.469  0.00  0.00    -0.228 OA
BRANCH  11  13
ATOM     13  O   UNK     1       9.489  -0.075  21.046  0.00  0.00    -0.303 OA
ATOM     14  H   UNK     1      10.203   0.306  20.500  0.00  0.00    +0.222 HD
ENDBRANCH  11  13
BRANCH  11  15
ATOM     15  O   UNK     1      10.180   2.157  21.542  0.00  0.00    -0.303 OA
ATOM     16  H   UNK     1       9.654   2.741  20.963  0.00  0.00    +0.222 HD
ENDBRANCH  11  15
ENDBRANCH  10  11
ENDBRANCH   9  10
ENDBRANCH   1   9
TORSDOF 8
ENDMDL
MODEL 6
REMARK VINA RESULT:      -4.2      3.175      4.271
REMARK  Name = 
REMARK  8 active torsions:
REMARK  status: ('A' for Active; 'I' for Inactive)
REMARK    1  A    between atoms: N_1  and  C_2
REMARK    2  A    between atoms: C_2  and  C_4
REMARK    3  A    between atoms: C_2  and  C_10
REMARK    4  A    between atoms: C_4  and  O_5
REMARK    5  A    between atoms: O_5  and  P_6
REMARK    6  A    between atoms: P_6  and  O_7
REMARK    7  A    between atoms: P_6  and  O_8
REMARK    8  A    between atoms: C_10  and  O_11
REMARK                            x       y       z     vdW  Elec       q    Type
REMARK                         _______ _______ _______ _____ _____    ______ ____
ROOT
ATOM      1  C   UNK     1       9.401   1.264  23.543  0.00  0.00    +0.187 C 
ENDROOT
BRANCH   1   2
ATOM      2  N   UNK     1      10.682   1.353  24.321  0.00  0.00    -0.317 NA
ATOM      3  H   UNK     1      11.445   1.575  23.672  0.00  0.00    +0.119 HD
ATOM      4  H   UNK     1      10.618   2.172  24.932  0.00  0.00    +0.119 HD
ENDBRANCH   1   2
BRANCH   1   5
ATOM      5  C   UNK     1       9.773   1.039  22.066  0.00  0.00    +0.324 C 
ATOM      6  O   UNK     1       9.829  -0.027  21.481  0.00  0.00    -0.249 OA
BRANCH   5   7
ATOM      7  O   UNK     1      10.057   2.228  21.457  0.00  0.00    -0.479 OA
ATOM      8  H   UNK     1      10.521   1.997  20.616  0.00  0.00    +0.295 HD
ENDBRANCH   5   7
ENDBRANCH   1   5
BRANCH   1   9
ATOM      9  C   UNK     1       8.532   2.513  23.695  0.00  0.00    +0.202 C 
BRANCH   9  10
ATOM     10  O   UNK     1       9.144   3.420  24.605  0.00  0.00    -0.285 OA
BRANCH  10  11
ATOM     11  P   UNK     1       9.417   4.991  23.936  0.00  0.00    +0.472 P 
ATOM     12  O   UNK     1       9.662   6.399  23.336  0.00  0.00    -0.228 OA
BRANCH  11  13
ATOM     13  O   UNK     1       8.494   4.482  22.683  0.00  0.00    -0.303 OA
ATOM     14  H   UNK     1       8.321   5.277  22.145  0.00  0.00    +0.222 HD
ENDBRANCH  11  13
BRANCH  11  15
ATOM     15  O   UNK     1      10.797   4.378  23.306  0.00  0.00    -0.303 OA
ATOM     16  H   UNK     1      10.921   3.478  23.666  0.00  0.00    +0.222 HD
ENDBRANCH  11  15
ENDBRANCH  10  11
ENDBRANCH   9  10
ENDBRANCH   1   9
TORSDOF 8
ENDMDL
MODEL 7
REMARK VINA RESULT:      -4.2      3.018      3.887
REMARK  Name = 
REMARK  8 active torsions:
REMARK  status: ('A' for Active; 'I' for Inactive)
REMARK    1  A    between atoms: N_1  and  C_2
REMARK    2  A    between atoms: C_2  and  C_4
REMARK    3  A    between atoms: C_2  and  C_10
REMARK    4  A    between atoms: C_4  and  O_5
REMARK    5  A    between atoms: O_5  and  P_6
REMARK    6  A    between atoms: P_6  and  O_7
REMARK    7  A    between atoms: P_6  and  O_8
REMARK    8  A    between atoms: C_10  and  O_11
REMARK                            x       y       z     vdW  Elec       q    Type
REMARK                         _______ _______ _______ _____ _____    ______ ____
ROOT
ATOM      1  C   UNK     1       9.697   2.109  24.229  0.00  0.00    +0.187 C 
ENDROOT
BRANCH   1   2
ATOM      2  N   UNK     1       8.269   2.110  23.762  0.00  0.00    -0.317 NA
ATOM      3  H   UNK     1       8.253   2.323  22.759  0.00  0.00    +0.119 HD
ATOM      4  H   UNK     1       7.920   1.150  23.827  0.00  0.00    +0.119 HD
ENDBRANCH   1   2
BRANCH   1   5
ATOM      5  C   UNK     1      10.542   2.777  23.131  0.00  0.00    +0.324 C 
ATOM      6  O   UNK     1      11.445   3.578  23.290  0.00  0.00    -0.249 OA
BRANCH   5   7
ATOM      7  O   UNK     1      10.140   2.359  21.895  0.00  0.00    -0.479 OA
ATOM      8  H   UNK     1       9.152   2.380  21.909  0.00  0.00    +0.295 HD
ENDBRANCH   5   7
ENDBRANCH   1   5
BRANCH   1   9
ATOM      9  C   UNK     1      10.216   0.702  24.528  0.00  0.00    +0.202 C 
BRANCH   9  10
ATOM     10  O   UNK     1      10.551   0.042  23.312  0.00  0.00    -0.285 OA
BRANCH  10  11
ATOM     11  P   UNK     1       9.534  -1.311  22.957  0.00  0.00    +0.472 P 
ATOM     12  O   UNK     1       8.623  -2.523  22.639  0.00  0.00    -0.228 OA
BRANCH  11  13
ATOM     13  O   UNK     1      10.639  -1.681  21.806  0.00  0.00    -0.303 OA
ATOM     14  H   UNK     1      10.314  -1.259  20.988  0.00  0.00    +0.222 HD
ENDBRANCH  11  13
BRANCH  11  15
ATOM     15  O   UNK     1       8.697  -0.302  21.980  0.00  0.00    -0.303 OA
ATOM     16  H   UNK     1       7.744  -0.464  22.121  0.00  0.00    +0.222 HD
ENDBRANCH  11  15
ENDBRANCH  10  11
ENDBRANCH   9  10
ENDBRANCH   1   9
TORSDOF 8
ENDMDL
MODEL 8
REMARK VINA RESULT:      -4.2      6.548      8.387
REMARK  Name = 
REMARK  8 active torsions:
REMARK  status: ('A' for Active; 'I' for Inactive)
REMARK    1  A    between atoms: N_1  and  C_2
REMARK    2  A    between atoms: C_2  and  C_4
REMARK    3  A    between atoms: C_2  and  C_10
REMARK    4  A    between atoms: C_4  and  O_5
REMARK    5  A    between atoms: O_5  and  P_6
REMARK    6  A    between atoms: P_6  and  O_7
REMARK    7  A    between atoms: P_6  and  O_8
REMARK    8  A    between atoms: C_10  and  O_11
REMARK                            x       y       z     vdW  Elec       q    Type
REMARK                         _______ _______ _______ _____ _____    ______ ____
ROOT
ATOM      1  C   UNK     1       8.687  -4.323  24.628  0.00  0.00    +0.187 C 
ENDROOT
BRANCH   1   2
ATOM      2  N   UNK     1       9.806  -5.321  24.729  0.00  0.00    -0.317 NA
ATOM      3  H   UNK     1       9.702  -6.008  23.975  0.00  0.00    +0.119 HD
ATOM      4  H   UNK     1      10.679  -4.831  24.512  0.00  0.00    +0.119 HD
ENDBRANCH   1   2
BRANCH   1   5
ATOM      5  C   UNK     1       7.901  -4.642  23.344  0.00  0.00    +0.324 C 
ATOM      6  O   UNK     1       7.697  -5.744  22.867  0.00  0.00    -0.249 OA
BRANCH   5   7
ATOM      7  O   UNK     1       7.443  -3.494  22.765  0.00  0.00    -0.479 OA
ATOM      8  H   UNK     1       8.182  -3.162  22.199  0.00  0.00    +0.295 HD
ENDBRANCH   5   7
ENDBRANCH   1   5
BRANCH   1   9
ATOM      9  C   UNK     1       9.187  -2.878  24.608  0.00  0.00    +0.202 C 
BRANCH   9  10
ATOM     10  O   UNK     1      10.148  -2.713  23.570  0.00  0.00    -0.285 OA
BRANCH  10  11
ATOM     11  P   UNK     1      10.169  -1.120  22.896  0.00  0.00    +0.472 P 
ATOM     12  O   UNK     1      10.189   0.306  22.293  0.00  0.00    -0.228 OA
BRANCH  11  13
ATOM     13  O   UNK     1       8.645  -0.987  23.480  0.00  0.00    -0.303 OA
ATOM     14  H   UNK     1       8.125  -1.666  23.010  0.00  0.00    +0.222 HD
ENDBRANCH  11  13
BRANCH  11  15
ATOM     15  O   UNK     1       9.686  -1.811  21.495  0.00  0.00    -0.303 OA
ATOM     16  H   UNK     1       9.345  -1.107  20.910  0.00  0.00    +0.222 HD
ENDBRANCH  11  15
ENDBRANCH  10  11
ENDBRANCH   9  10
ENDBRANCH   1   9
TORSDOF 8
ENDMDL
MODEL 9
REMARK VINA RESULT:      -4.1      4.269      6.089
REMARK  Name = 
REMARK  8 active torsions:
REMARK  status: ('A' for Active; 'I' for Inactive)
REMARK    1  A    between atoms: N_1  and  C_2
REMARK    2  A    between atoms: C_2  and  C_4
REMARK    3  A    between atoms: C_2  and  C_10
REMARK    4  A    between atoms: C_4  and  O_5
REMARK    5  A    between atoms: O_5  and  P_6
REMARK    6  A    between atoms: P_6  and  O_7
REMARK    7  A    between atoms: P_6  and  O_8
REMARK    8  A    between atoms: C_10  and  O_11
REMARK                            x       y       z     vdW  Elec       q    Type
REMARK                         _______ _______ _______ _____ _____    ______ ____
ROOT
ATOM      1  C   UNK     1      10.460  -1.572  22.932  0.00  0.00    +0.187 C 
ENDROOT
BRANCH   1   2
ATOM      2  N   UNK     1       9.986  -1.550  21.507  0.00  0.00    -0.317 NA
ATOM      3  H   UNK     1       9.905  -0.574  21.203  0.00  0.00    +0.119 HD
ATOM      4  H   UNK     1      10.734  -1.939  20.925  0.00  0.00    +0.119 HD
ENDBRANCH   1   2
BRANCH   1   5
ATOM      5  C   UNK     1       9.593  -2.593  23.690  0.00  0.00    +0.324 C 
ATOM      6  O   UNK     1       9.974  -3.616  24.231  0.00  0.00    -0.249 OA
BRANCH   5   7
ATOM      7  O   UNK     1       8.283  -2.211  23.680  0.00  0.00    -0.479 OA
ATOM      8  H   UNK     1       7.757  -3.043  23.766  0.00  0.00    +0.295 HD
ENDBRANCH   5   7
ENDBRANCH   1   5
BRANCH   1   9
ATOM      9  C   UNK     1      10.381  -0.198  23.599  0.00  0.00    +0.202 C 
BRANCH   9  10
ATOM     10  O   UNK     1       9.361   0.580  22.984  0.00  0.00    -0.285 OA
BRANCH  10  11
ATOM     11  P   UNK     1       9.551   2.283  23.223  0.00  0.00    +0.472 P 
ATOM     12  O   UNK     1       9.722   3.807  23.438  0.00  0.00    -0.228 OA
BRANCH  11  13
ATOM     13  O   UNK     1      10.228   2.290  21.732  0.00  0.00    -0.303 OA
ATOM     14  H   UNK     1      11.190   2.215  21.882  0.00  0.00    +0.222 HD
ENDBRANCH  11  13
BRANCH  11  15
ATOM     15  O   UNK     1      10.958   1.921  23.976  0.00  0.00    -0.303 OA
ATOM     16  H   UNK     1      11.568   1.541  23.315  0.00  0.00    +0.222 HD
ENDBRANCH  11  15
ENDBRANCH  10  11
ENDBRANCH   9  10
ENDBRANCH   1   9
TORSDOF 8
ENDMDL
