MODEL 1
REMARK VINA RESULT:      -6.1      0.000      0.000
REMARK  Name = 
REMARK  10 active torsions:
REMARK  status: ('A' for Active; 'I' for Inactive)
REMARK    1  A    between atoms: C_1  and  C_2
REMARK    2  A    between atoms: C_2  and  C_3
REMARK    3  A    between atoms: C_2  and  C_4
REMARK    4  A    between atoms: C_2  and  N_5
REMARK    5  A    between atoms: N_5  and  C_6
REMARK    6  A    between atoms: C_6  and  C_7
REMARK    7  A    between atoms: C_7  and  O_8
REMARK    8  A    between atoms: C_7  and  C_9
REMARK    9  A    between atoms: C_9  and  O_10
REMARK   10  A    between atoms: O_10  and  C_11
REMARK                            x       y       z     vdW  Elec       q    Type
REMARK                         _______ _______ _______ _____ _____    ______ ____
ROOT
ATOM      1  O   UNL     1       7.934  -3.176  22.921  0.00  0.00    -0.471 OA
ENDROOT
BRANCH   1   2
ATOM      2  C   UNL     1       8.391  -3.976  23.923  0.00  0.00    +0.265 A 
ATOM      3  C   UNL     1       7.598  -4.964  24.661  0.00  0.00    +0.194 A 
ATOM      4  N   UNL     1       6.300  -5.341  24.397  0.00  0.00    -0.306 N 
ATOM      5  C   UNL     1       5.495  -5.923  25.492  0.00  0.00    +0.135 C 
ATOM      6  C   UNL     1       4.419  -6.861  24.928  0.00  0.00    +0.178 C 
ATOM      7  O   UNL     1       3.600  -6.200  23.952  0.00  0.00    -0.377 OA
ATOM      8  C   UNL     1       4.414  -5.737  22.866  0.00  0.00    +0.178 C 
ATOM      9  C   UNL     1       5.480  -4.733  23.341  0.00  0.00    +0.135 C 
ATOM     10  N   UNL     1       8.304  -5.530  25.653  0.00  0.00    -0.172 NA
ATOM     11  S   UNL     1       9.823  -4.862  25.609  0.00  0.00    +0.121 S 
ATOM     12  N   UNL     1       9.650  -3.801  24.341  0.00  0.00    -0.153 NA
ENDBRANCH   1   2
BRANCH   1  13
ATOM     13  C   UNL     1       8.264  -1.792  23.060  0.00  0.00    +0.263 C 
BRANCH  13  14
ATOM     14  C   UNL     1       9.056  -1.320  21.827  0.00  0.00    +0.166 C 
BRANCH  14  15
ATOM     15  O   UNL     1      10.429  -1.724  21.956  0.00  0.00    -0.387 OA
ATOM     16  H   UNL     1      10.693  -1.591  22.884  0.00  0.00    +0.210 HD
ENDBRANCH  14  15
BRANCH  14  17
ATOM     17  C   UNL     1       8.972   0.216  21.685  0.00  0.00    +0.116 C 
BRANCH  17  18
ATOM     18  N   UNL     1      10.185   0.882  22.178  0.00  0.00    -0.309 NA
ATOM     19  H   UNL     1      10.939   0.194  22.239  0.00  0.00    +0.123 HD
BRANCH  18  21
ATOM     20  C   UNL     1       8.561   1.804  23.845  0.00  0.00    +0.027 C 
ATOM     21  C   UNL     1      10.036   1.613  23.451  0.00  0.00    +0.011 C 
ATOM     22  C   UNL     1      10.718   0.768  24.545  0.00  0.00    +0.027 C 
ATOM     23  C   UNL     1      10.745   2.977  23.391  0.00  0.00    +0.027 C 
ENDBRANCH  18  21
ENDBRANCH  17  18
ENDBRANCH  14  17
ENDBRANCH  13  14
ENDBRANCH   1  13
TORSDOF 7
ENDMDL
MODEL 2
REMARK VINA RESULT:      -5.8      1.905      2.160
REMARK  Name = 
REMARK  10 active torsions:
REMARK  status: ('A' for Active; 'I' for Inactive)
REMARK    1  A    between atoms: C_1  and  C_2
REMARK    2  A    between atoms: C_2  and  C_3
REMARK    3  A    between atoms: C_2  and  C_4
REMARK    4  A    between atoms: C_2  and  N_5
REMARK    5  A    between atoms: N_5  and  C_6
REMARK    6  A    between atoms: C_6  and  C_7
REMARK    7  A    between atoms: C_7  and  O_8
REMARK    8  A    between atoms: C_7  and  C_9
REMARK    9  A    between atoms: C_9  and  O_10
REMARK   10  A    between atoms: O_10  and  C_11
REMARK                            x       y       z     vdW  Elec       q    Type
REMARK                         _______ _______ _______ _____ _____    ______ ____
ROOT
ATOM      1  O   UNL     1       9.427  -3.231  23.778  0.00  0.00    -0.471 OA
ENDROOT
BRANCH   1   2
ATOM      2  C   UNL     1       8.434  -3.078  24.696  0.00  0.00    +0.265 A 
ATOM      3  C   UNL     1       7.055  -3.556  24.556  0.00  0.00    +0.194 A 
ATOM      4  N   UNL     1       6.555  -4.340  23.539  0.00  0.00    -0.306 N 
ATOM      5  C   UNL     1       5.103  -4.300  23.263  0.00  0.00    +0.135 C 
ATOM      6  C   UNL     1       4.636  -5.625  22.645  0.00  0.00    +0.178 C 
ATOM      7  O   UNL     1       5.397  -5.960  21.475  0.00  0.00    -0.377 OA
ATOM      8  C   UNL     1       6.785  -6.080  21.815  0.00  0.00    +0.178 C 
ATOM      9  C   UNL     1       7.349  -4.764  22.379  0.00  0.00    +0.135 C 
ATOM     10  N   UNL     1       6.286  -3.171  25.586  0.00  0.00    -0.172 NA
ATOM     11  S   UNL     1       7.256  -2.305  26.618  0.00  0.00    +0.121 S 
ATOM     12  N   UNL     1       8.698  -2.357  25.791  0.00  0.00    -0.153 NA
ENDBRANCH   1   2
BRANCH   1  13
ATOM     13  C   UNL     1       9.973  -2.011  23.273  0.00  0.00    +0.263 C 
BRANCH  13  14
ATOM     14  C   UNL     1       9.085  -1.475  22.135  0.00  0.00    +0.166 C 
BRANCH  14  15
ATOM     15  O   UNL     1       9.915  -0.974  21.074  0.00  0.00    -0.387 OA
ATOM     16  H   UNL     1       9.648  -1.420  20.250  0.00  0.00    +0.210 HD
ENDBRANCH  14  15
BRANCH  14  17
ATOM     17  C   UNL     1       8.159  -0.352  22.653  0.00  0.00    +0.116 C 
BRANCH  17  18
ATOM     18  N   UNL     1       8.680   0.271  23.875  0.00  0.00    -0.309 NA
ATOM     19  H   UNL     1       7.956   0.243  24.596  0.00  0.00    +0.123 HD
BRANCH  18  21
ATOM     20  C   UNL     1       8.877   2.236  22.336  0.00  0.00    +0.027 C 
ATOM     21  C   UNL     1       9.210   1.639  23.715  0.00  0.00    +0.011 C 
ATOM     22  C   UNL     1       8.539   2.517  24.790  0.00  0.00    +0.027 C 
ATOM     23  C   UNL     1      10.730   1.675  23.950  0.00  0.00    +0.027 C 
ENDBRANCH  18  21
ENDBRANCH  17  18
ENDBRANCH  14  17
ENDBRANCH  13  14
ENDBRANCH   1  13
TORSDOF 7
ENDMDL
MODEL 3
REMARK VINA RESULT:      -5.8      3.407      8.287
REMARK  Name = 
REMARK  10 active torsions:
REMARK  status: ('A' for Active; 'I' for Inactive)
REMARK    1  A    between atoms: C_1  and  C_2
REMARK    2  A    between atoms: C_2  and  C_3
REMARK    3  A    between atoms: C_2  and  C_4
REMARK    4  A    between atoms: C_2  and  N_5
REMARK    5  A    between atoms: N_5  and  C_6
REMARK    6  A    between atoms: C_6  and  C_7
REMARK    7  A    between atoms: C_7  and  O_8
REMARK    8  A    between atoms: C_7  and  C_9
REMARK    9  A    between atoms: C_9  and  O_10
REMARK   10  A    between atoms: O_10  and  C_11
REMARK                            x       y       z     vdW  Elec       q    Type
REMARK                         _______ _______ _______ _____ _____    ______ ____
ROOT
ATOM      1  O   UNL     1      10.134   0.999  22.530  0.00  0.00    -0.471 OA
ENDROOT
BRANCH   1   2
ATOM      2  C   UNL     1       8.965   1.693  22.586  0.00  0.00    +0.265 A 
ATOM      3  C   UNL     1       8.806   3.070  23.067  0.00  0.00    +0.194 A 
ATOM      4  N   UNL     1       9.814   3.936  23.428  0.00  0.00    -0.306 N 
ATOM      5  C   UNL     1       9.495   5.047  24.351  0.00  0.00    +0.135 C 
ATOM      6  C   UNL     1      10.448   6.228  24.119  0.00  0.00    +0.178 C 
ATOM      7  O   UNL     1      11.822   5.827  24.215  0.00  0.00    -0.377 OA
ATOM      8  C   UNL     1      12.104   4.816  23.237  0.00  0.00    +0.178 C 
ATOM      9  C   UNL     1      11.234   3.564  23.445  0.00  0.00    +0.135 C 
ATOM     10  N   UNL     1       7.517   3.445  23.089  0.00  0.00    -0.172 NA
ATOM     11  S   UNL     1       6.628   2.159  22.531  0.00  0.00    +0.121 S 
ATOM     12  N   UNL     1       7.838   1.051  22.258  0.00  0.00    -0.153 NA
ENDBRANCH   1   2
BRANCH   1  13
ATOM     13  C   UNL     1      10.217  -0.113  23.423  0.00  0.00    +0.263 C 
BRANCH  13  14
ATOM     14  C   UNL     1      10.257  -1.425  22.619  0.00  0.00    +0.166 C 
BRANCH  14  15
ATOM     15  O   UNL     1      10.008  -1.145  21.231  0.00  0.00    -0.387 OA
ATOM     16  H   UNL     1      10.565  -1.745  20.702  0.00  0.00    +0.210 HD
ENDBRANCH  14  15
BRANCH  14  17
ATOM     17  C   UNL     1       9.201  -2.420  23.151  0.00  0.00    +0.116 C 
BRANCH  17  18
ATOM     18  N   UNL     1       9.771  -3.358  24.126  0.00  0.00    -0.309 NA
ATOM     19  H   UNL     1      10.225  -4.123  23.623  0.00  0.00    +0.123 HD
BRANCH  18  21
ATOM     20  C   UNL     1       7.579  -4.511  24.493  0.00  0.00    +0.027 C 
ATOM     21  C   UNL     1       8.827  -3.879  25.134  0.00  0.00    +0.011 C 
ATOM     22  C   UNL     1       9.565  -4.976  25.927  0.00  0.00    +0.027 C 
ATOM     23  C   UNL     1       8.409  -2.776  26.122  0.00  0.00    +0.027 C 
ENDBRANCH  18  21
ENDBRANCH  17  18
ENDBRANCH  14  17
ENDBRANCH  13  14
ENDBRANCH   1  13
TORSDOF 7
ENDMDL
MODEL 4
REMARK VINA RESULT:      -5.7      2.690      6.582
REMARK  Name = 
REMARK  10 active torsions:
REMARK  status: ('A' for Active; 'I' for Inactive)
REMARK    1  A    between atoms: C_1  and  C_2
REMARK    2  A    between atoms: C_2  and  C_3
REMARK    3  A    between atoms: C_2  and  C_4
REMARK    4  A    between atoms: C_2  and  N_5
REMARK    5  A    between atoms: N_5  and  C_6
REMARK    6  A    between atoms: C_6  and  C_7
REMARK    7  A    between atoms: C_7  and  O_8
REMARK    8  A    between atoms: C_7  and  C_9
REMARK    9  A    between atoms: C_9  and  O_10
REMARK   10  A    between atoms: O_10  and  C_11
REMARK                            x       y       z     vdW  Elec       q    Type
REMARK                         _______ _______ _______ _____ _____    ______ ____
ROOT
ATOM      1  O   UNL     1       8.568  -2.761  25.256  0.00  0.00    -0.471 OA
ENDROOT
BRANCH   1   2
ATOM      2  C   UNL     1       7.418  -2.034  25.234  0.00  0.00    +0.265 A 
ATOM      3  C   UNL     1       7.189  -0.815  24.450  0.00  0.00    +0.194 A 
ATOM      4  N   UNL     1       8.041  -0.264  23.518  0.00  0.00    -0.306 N 
ATOM      5  C   UNL     1       7.920   1.178  23.214  0.00  0.00    +0.135 C 
ATOM      6  C   UNL     1       8.398   1.468  21.784  0.00  0.00    +0.178 C 
ATOM      7  O   UNL     1       9.730   0.981  21.564  0.00  0.00    -0.377 OA
ATOM      8  C   UNL     1       9.773  -0.436  21.779  0.00  0.00    +0.178 C 
ATOM      9  C   UNL     1       9.372  -0.806  23.218  0.00  0.00    +0.135 C 
ATOM     10  N   UNL     1       5.989  -0.273  24.710  0.00  0.00    -0.172 NA
ATOM     11  S   UNL     1       5.248  -1.250  25.829  0.00  0.00    +0.121 S 
ATOM     12  N   UNL     1       6.429  -2.398  26.056  0.00  0.00    -0.153 NA
ENDBRANCH   1   2
BRANCH   1  13
ATOM     13  C   UNL     1       8.520  -3.936  26.069  0.00  0.00    +0.263 C 
BRANCH  13  14
ATOM     14  C   UNL     1       8.893  -5.169  25.225  0.00  0.00    +0.166 C 
BRANCH  14  15
ATOM     15  O   UNL     1      10.311  -5.182  24.996  0.00  0.00    -0.387 OA
ATOM     16  H   UNL     1      10.479  -4.744  24.142  0.00  0.00    +0.210 HD
ENDBRANCH  14  15
BRANCH  14  17
ATOM     17  C   UNL     1       8.143  -5.148  23.875  0.00  0.00    +0.116 C 
BRANCH  17  18
ATOM     18  N   UNL     1       6.690  -5.025  24.054  0.00  0.00    -0.309 NA
ATOM     19  H   UNL     1       6.375  -5.746  24.707  0.00  0.00    +0.123 HD
BRANCH  18  21
ATOM     20  C   UNL     1       4.555  -5.796  22.997  0.00  0.00    +0.027 C 
ATOM     21  C   UNL     1       5.892  -5.056  22.813  0.00  0.00    +0.011 C 
ATOM     22  C   UNL     1       5.581  -3.594  22.434  0.00  0.00    +0.027 C 
ATOM     23  C   UNL     1       6.688  -5.688  21.659  0.00  0.00    +0.027 C 
ENDBRANCH  18  21
ENDBRANCH  17  18
ENDBRANCH  14  17
ENDBRANCH  13  14
ENDBRANCH   1  13
TORSDOF 7
ENDMDL
MODEL 5
REMARK VINA RESULT:      -5.7      2.579      6.938
REMARK  Name = 
REMARK  10 active torsions:
REMARK  status: ('A' for Active; 'I' for Inactive)
REMARK    1  A    between atoms: C_1  and  C_2
REMARK    2  A    between atoms: C_2  and  C_3
REMARK    3  A    between atoms: C_2  and  C_4
REMARK    4  A    between atoms: C_2  and  N_5
REMARK    5  A    between atoms: N_5  and  C_6
REMARK    6  A    between atoms: C_6  and  C_7
REMARK    7  A    between atoms: C_7  and  O_8
REMARK    8  A    between atoms: C_7  and  C_9
REMARK    9  A    between atoms: C_9  and  O_10
REMARK   10  A    between atoms: O_10  and  C_11
REMARK                            x       y       z     vdW  Elec       q    Type
REMARK                         _______ _______ _______ _____ _____    ______ ____
ROOT
ATOM      1  O   UNL     1       9.042  -3.995  23.948  0.00  0.00    -0.471 OA
ENDROOT
BRANCH   1   2
ATOM      2  C   UNL     1       7.935  -3.468  23.359  0.00  0.00    +0.265 A 
ATOM      3  C   UNL     1       7.563  -2.049  23.347  0.00  0.00    +0.194 A 
ATOM      4  N   UNL     1       8.318  -0.997  23.817  0.00  0.00    -0.306 N 
ATOM      5  C   UNL     1       7.627   0.252  24.206  0.00  0.00    +0.135 C 
ATOM      6  C   UNL     1       8.565   1.457  24.045  0.00  0.00    +0.178 C 
ATOM      7  O   UNL     1       9.791   1.273  24.767  0.00  0.00    -0.377 OA
ATOM      8  C   UNL     1      10.468   0.104  24.288  0.00  0.00    +0.178 C 
ATOM      9  C   UNL     1       9.618  -1.165  24.479  0.00  0.00    +0.135 C 
ATOM     10  N   UNL     1       6.368  -1.851  22.769  0.00  0.00    -0.172 NA
ATOM     11  S   UNL     1       5.810  -3.338  22.286  0.00  0.00    +0.121 S 
ATOM     12  N   UNL     1       7.052  -4.311  22.812  0.00  0.00    -0.153 NA
ENDBRANCH   1   2
BRANCH   1  13
ATOM     13  C   UNL     1       8.783  -5.038  24.890  0.00  0.00    +0.263 C 
BRANCH  13  14
ATOM     14  C   UNL     1       8.595  -4.436  26.295  0.00  0.00    +0.166 C 
BRANCH  14  15
ATOM     15  O   UNL     1       9.709  -4.802  27.126  0.00  0.00    -0.387 OA
ATOM     16  H   UNL     1      10.366  -4.084  27.077  0.00  0.00    +0.210 HD
ENDBRANCH  14  15
BRANCH  14  17
ATOM     17  C   UNL     1       7.279  -4.940  26.928  0.00  0.00    +0.116 C 
BRANCH  17  18
ATOM     18  N   UNL     1       6.671  -6.023  26.145  0.00  0.00    -0.309 NA
ATOM     19  H   UNL     1       7.185  -6.127  25.268  0.00  0.00    +0.123 HD
BRANCH  18  21
ATOM     20  C   UNL     1       4.792  -6.581  24.588  0.00  0.00    +0.027 C 
ATOM     21  C   UNL     1       5.223  -5.889  25.893  0.00  0.00    +0.011 C 
ATOM     22  C   UNL     1       4.490  -6.576  27.063  0.00  0.00    +0.027 C 
ATOM     23  C   UNL     1       4.800  -4.410  25.868  0.00  0.00    +0.027 C 
ENDBRANCH  18  21
ENDBRANCH  17  18
ENDBRANCH  14  17
ENDBRANCH  13  14
ENDBRANCH   1  13
TORSDOF 7
ENDMDL
MODEL 6
REMARK VINA RESULT:      -5.6      2.705      6.266
REMARK  Name = 
REMARK  10 active torsions:
REMARK  status: ('A' for Active; 'I' for Inactive)
REMARK    1  A    between atoms: C_1  and  C_2
REMARK    2  A    between atoms: C_2  and  C_3
REMARK    3  A    between atoms: C_2  and  C_4
REMARK    4  A    between atoms: C_2  and  N_5
REMARK    5  A    between atoms: N_5  and  C_6
REMARK    6  A    between atoms: C_6  and  C_7
REMARK    7  A    between atoms: C_7  and  O_8
REMARK    8  A    between atoms: C_7  and  C_9
REMARK    9  A    between atoms: C_9  and  O_10
REMARK   10  A    between atoms: O_10  and  C_11
REMARK                            x       y       z     vdW  Elec       q    Type
REMARK                         _______ _______ _______ _____ _____    ______ ____
ROOT
ATOM      1  O   UNL     1       7.975  -2.783  24.989  0.00  0.00    -0.471 OA
ENDROOT
BRANCH   1   2
ATOM      2  C   UNL     1       8.711  -2.026  24.131  0.00  0.00    +0.265 A 
ATOM      3  C   UNL     1       8.310  -0.732  23.568  0.00  0.00    +0.194 A 
ATOM      4  N   UNL     1       7.187  -0.005  23.896  0.00  0.00    -0.306 N 
ATOM      5  C   UNL     1       6.663   0.969  22.914  0.00  0.00    +0.135 C 
ATOM      6  C   UNL     1       5.914   2.102  23.629  0.00  0.00    +0.178 C 
ATOM      7  O   UNL     1       4.881   1.595  24.486  0.00  0.00    -0.377 OA
ATOM      8  C   UNL     1       5.452   0.731  25.478  0.00  0.00    +0.178 C 
ATOM      9  C   UNL     1       6.166  -0.475  24.841  0.00  0.00    +0.135 C 
ATOM     10  N   UNL     1       9.207  -0.275  22.680  0.00  0.00    -0.172 NA
ATOM     11  S   UNL     1      10.431  -1.394  22.607  0.00  0.00    +0.121 S 
ATOM     12  N   UNL     1       9.867  -2.528  23.684  0.00  0.00    -0.153 NA
ENDBRANCH   1   2
BRANCH   1  13
ATOM     13  C   UNL     1       8.741  -3.567  25.906  0.00  0.00    +0.263 C 
BRANCH  13  14
ATOM     14  C   UNL     1       8.541  -5.064  25.606  0.00  0.00    +0.166 C 
BRANCH  14  15
ATOM     15  O   UNL     1       9.650  -5.550  24.833  0.00  0.00    -0.387 OA
ATOM     16  H   UNL     1      10.289  -5.951  25.450  0.00  0.00    +0.210 HD
ENDBRANCH  14  15
BRANCH  14  17
ATOM     17  C   UNL     1       7.222  -5.289  24.832  0.00  0.00    +0.116 C 
BRANCH  17  18
ATOM     18  N   UNL     1       7.428  -5.274  23.378  0.00  0.00    -0.309 NA
ATOM     19  H   UNL     1       8.093  -4.533  23.145  0.00  0.00    +0.123 HD
BRANCH  18  21
ATOM     20  C   UNL     1       6.400  -5.692  21.134  0.00  0.00    +0.027 C 
ATOM     21  C   UNL     1       6.203  -5.157  22.564  0.00  0.00    +0.011 C 
ATOM     22  C   UNL     1       5.117  -6.010  23.248  0.00  0.00    +0.027 C 
ATOM     23  C   UNL     1       5.707  -3.702  22.516  0.00  0.00    +0.027 C 
ENDBRANCH  18  21
ENDBRANCH  17  18
ENDBRANCH  14  17
ENDBRANCH  13  14
ENDBRANCH   1  13
TORSDOF 7
ENDMDL
MODEL 7
REMARK VINA RESULT:      -5.6      2.398      2.879
REMARK  Name = 
REMARK  10 active torsions:
REMARK  status: ('A' for Active; 'I' for Inactive)
REMARK    1  A    between atoms: C_1  and  C_2
REMARK    2  A    between atoms: C_2  and  C_3
REMARK    3  A    between atoms: C_2  and  C_4
REMARK    4  A    between atoms: C_2  and  N_5
REMARK    5  A    between atoms: N_5  and  C_6
REMARK    6  A    between atoms: C_6  and  C_7
REMARK    7  A    between atoms: C_7  and  O_8
REMARK    8  A    between atoms: C_7  and  C_9
REMARK    9  A    between atoms: C_9  and  O_10
REMARK   10  A    between atoms: O_10  and  C_11
REMARK                            x       y       z     vdW  Elec       q    Type
REMARK                         _______ _______ _______ _____ _____    ______ ____
ROOT
ATOM      1  O   UNL     1       7.368  -2.711  23.232  0.00  0.00    -0.471 OA
ENDROOT
BRANCH   1   2
ATOM      2  C   UNL     1       6.769  -3.891  22.915  0.00  0.00    +0.265 A 
ATOM      3  C   UNL     1       6.207  -4.852  23.870  0.00  0.00    +0.194 A 
ATOM      4  N   UNL     1       6.078  -4.680  25.230  0.00  0.00    -0.306 N 
ATOM      5  C   UNL     1       5.991  -5.879  26.090  0.00  0.00    +0.135 C 
ATOM      6  C   UNL     1       5.207  -5.566  27.373  0.00  0.00    +0.178 C 
ATOM      7  O   UNL     1       5.764  -4.443  28.071  0.00  0.00    -0.377 OA
ATOM      8  C   UNL     1       5.738  -3.283  27.228  0.00  0.00    +0.178 C 
ATOM      9  C   UNL     1       6.564  -3.493  25.946  0.00  0.00    +0.135 C 
ATOM     10  N   UNL     1       5.769  -5.964  23.259  0.00  0.00    -0.172 NA
ATOM     11  S   UNL     1       6.045  -5.766  21.634  0.00  0.00    +0.121 S 
ATOM     12  N   UNL     1       6.758  -4.263  21.630  0.00  0.00    -0.153 NA
ENDBRANCH   1   2
BRANCH   1  13
ATOM     13  C   UNL     1       8.594  -2.455  22.543  0.00  0.00    +0.263 C 
BRANCH  13  14
ATOM     14  C   UNL     1       9.750  -2.359  23.556  0.00  0.00    +0.166 C 
BRANCH  14  15
ATOM     15  O   UNL     1       9.872  -3.603  24.264  0.00  0.00    -0.387 OA
ATOM     16  H   UNL     1       9.624  -4.320  23.652  0.00  0.00    +0.210 HD
ENDBRANCH  14  15
BRANCH  14  17
ATOM     17  C   UNL     1       9.500  -1.208  24.556  0.00  0.00    +0.116 C 
BRANCH  17  18
ATOM     18  N   UNL     1       8.838  -0.061  23.921  0.00  0.00    -0.309 NA
ATOM     19  H   UNL     1       8.413  -0.369  23.043  0.00  0.00    +0.123 HD
BRANCH  18  21
ATOM     20  C   UNL     1       9.077   2.399  24.317  0.00  0.00    +0.027 C 
ATOM     21  C   UNL     1       9.688   1.126  23.707  0.00  0.00    +0.011 C 
ATOM     22  C   UNL     1      11.033   0.856  24.410  0.00  0.00    +0.027 C 
ATOM     23  C   UNL     1       9.968   1.343  22.210  0.00  0.00    +0.027 C 
ENDBRANCH  18  21
ENDBRANCH  17  18
ENDBRANCH  14  17
ENDBRANCH  13  14
ENDBRANCH   1  13
TORSDOF 7
ENDMDL
MODEL 8
REMARK VINA RESULT:      -5.5      2.645      3.447
REMARK  Name = 
REMARK  10 active torsions:
REMARK  status: ('A' for Active; 'I' for Inactive)
REMARK    1  A    between atoms: C_1  and  C_2
REMARK    2  A    between atoms: C_2  and  C_3
REMARK    3  A    between atoms: C_2  and  C_4
REMARK    4  A    between atoms: C_2  and  N_5
REMARK    5  A    between atoms: N_5  and  C_6
REMARK    6  A    between atoms: C_6  and  C_7
REMARK    7  A    between atoms: C_7  and  O_8
REMARK    8  A    between atoms: C_7  and  C_9
REMARK    9  A    between atoms: C_9  and  O_10
REMARK   10  A    between atoms: O_10  and  C_11
REMARK                            x       y       z     vdW  Elec       q    Type
REMARK                         _______ _______ _______ _____ _____    ______ ____
ROOT
ATOM      1  O   UNL     1       6.848  -2.378  25.784  0.00  0.00    -0.471 OA
ENDROOT
BRANCH   1   2
ATOM      2  C   UNL     1       6.761  -3.687  26.145  0.00  0.00    +0.265 A 
ATOM      3  C   UNL     1       6.418  -4.801  25.256  0.00  0.00    +0.194 A 
ATOM      4  N   UNL     1       6.243  -4.740  23.890  0.00  0.00    -0.306 N 
ATOM      5  C   UNL     1       5.418  -5.779  23.236  0.00  0.00    +0.135 C 
ATOM      6  C   UNL     1       5.859  -5.976  21.779  0.00  0.00    +0.178 C 
ATOM      7  O   UNL     1       5.845  -4.739  21.050  0.00  0.00    -0.377 OA
ATOM      8  C   UNL     1       6.731  -3.798  21.671  0.00  0.00    +0.178 C 
ATOM      9  C   UNL     1       6.314  -3.492  23.120  0.00  0.00    +0.135 C 
ATOM     10  N   UNL     1       6.320  -5.962  25.924  0.00  0.00    -0.172 NA
ATOM     11  S   UNL     1       6.656  -5.634  27.516  0.00  0.00    +0.121 S 
ATOM     12  N   UNL     1       6.917  -3.993  27.438  0.00  0.00    -0.153 NA
ENDBRANCH   1   2
BRANCH   1  13
ATOM     13  C   UNL     1       7.189  -1.483  26.845  0.00  0.00    +0.263 C 
BRANCH  13  14
ATOM     14  C   UNL     1       8.603  -0.918  26.615  0.00  0.00    +0.166 C 
BRANCH  14  15
ATOM     15  O   UNL     1       9.066  -0.280  27.817  0.00  0.00    -0.387 OA
ATOM     16  H   UNL     1       8.530  -0.617  28.558  0.00  0.00    +0.210 HD
ENDBRANCH  14  15
BRANCH  14  17
ATOM     17  C   UNL     1       8.597   0.098  25.451  0.00  0.00    +0.116 C 
BRANCH  17  18
ATOM     18  N   UNL     1       8.310  -0.545  24.162  0.00  0.00    -0.309 NA
ATOM     19  H   UNL     1       7.719  -1.363  24.324  0.00  0.00    +0.123 HD
BRANCH  18  21
ATOM     20  C   UNL     1       9.948  -2.350  23.593  0.00  0.00    +0.027 C 
ATOM     21  C   UNL     1       9.491  -0.901  23.352  0.00  0.00    +0.011 C 
ATOM     22  C   UNL     1       9.085  -0.768  21.870  0.00  0.00    +0.027 C 
ATOM     23  C   UNL     1      10.656   0.068  23.616  0.00  0.00    +0.027 C 
ENDBRANCH  18  21
ENDBRANCH  17  18
ENDBRANCH  14  17
ENDBRANCH  13  14
ENDBRANCH   1  13
TORSDOF 7
ENDMDL
MODEL 9
REMARK VINA RESULT:      -5.5      2.747      3.755
REMARK  Name = 
REMARK  10 active torsions:
REMARK  status: ('A' for Active; 'I' for Inactive)
REMARK    1  A    between atoms: C_1  and  C_2
REMARK    2  A    between atoms: C_2  and  C_3
REMARK    3  A    between atoms: C_2  and  C_4
REMARK    4  A    between atoms: C_2  and  N_5
REMARK    5  A    between atoms: N_5  and  C_6
REMARK    6  A    between atoms: C_6  and  C_7
REMARK    7  A    between atoms: C_7  and  O_8
REMARK    8  A    between atoms: C_7  and  C_9
REMARK    9  A    between atoms: C_9  and  O_10
REMARK   10  A    between atoms: O_10  and  C_11
REMARK                            x       y       z     vdW  Elec       q    Type
REMARK                         _______ _______ _______ _____ _____    ______ ____
ROOT
ATOM      1  O   UNL     1       7.209  -4.370  26.534  0.00  0.00    -0.471 OA
ENDROOT
BRANCH   1   2
ATOM      2  C   UNL     1       6.429  -5.320  27.118  0.00  0.00    +0.265 A 
ATOM      3  C   UNL     1       5.234  -5.931  26.527  0.00  0.00    +0.194 A 
ATOM      4  N   UNL     1       4.762  -5.744  25.246  0.00  0.00    -0.306 N 
ATOM      5  C   UNL     1       3.329  -5.991  24.977  0.00  0.00    +0.135 C 
ATOM      6  C   UNL     1       3.120  -6.397  23.511  0.00  0.00    +0.178 C 
ATOM      7  O   UNL     1       3.678  -5.430  22.610  0.00  0.00    -0.377 OA
ATOM      8  C   UNL     1       5.086  -5.296  22.848  0.00  0.00    +0.178 C 
ATOM      9  C   UNL     1       5.378  -4.823  24.283  0.00  0.00    +0.135 C 
ATOM     10  N   UNL     1       4.625  -6.767  27.383  0.00  0.00    -0.172 NA
ATOM     11  S   UNL     1       5.520  -6.765  28.782  0.00  0.00    +0.121 S 
ATOM     12  N   UNL     1       6.713  -5.680  28.374  0.00  0.00    -0.153 NA
ENDBRANCH   1   2
BRANCH   1  13
ATOM     13  C   UNL     1       8.612  -4.641  26.567  0.00  0.00    +0.263 C 
BRANCH  13  14
ATOM     14  C   UNL     1       9.144  -4.814  25.133  0.00  0.00    +0.166 C 
BRANCH  14  15
ATOM     15  O   UNL     1      10.319  -5.640  25.153  0.00  0.00    -0.387 OA
ATOM     16  H   UNL     1      10.678  -5.625  26.059  0.00  0.00    +0.210 HD
ENDBRANCH  14  15
BRANCH  14  17
ATOM     17  C   UNL     1       9.477  -3.441  24.509  0.00  0.00    +0.116 C 
BRANCH  17  18
ATOM     18  N   UNL     1       8.331  -2.869  23.791  0.00  0.00    -0.309 NA
ATOM     19  H   UNL     1       8.062  -3.505  23.038  0.00  0.00    +0.123 HD
BRANCH  18  21
ATOM     20  C   UNL     1       7.215  -0.684  23.295  0.00  0.00    +0.027 C 
ATOM     21  C   UNL     1       8.521  -1.498  23.279  0.00  0.00    +0.011 C 
ATOM     22  C   UNL     1       9.531  -0.799  24.211  0.00  0.00    +0.027 C 
ATOM     23  C   UNL     1       9.113  -1.515  21.860  0.00  0.00    +0.027 C 
ENDBRANCH  18  21
ENDBRANCH  17  18
ENDBRANCH  14  17
ENDBRANCH  13  14
ENDBRANCH   1  13
TORSDOF 7
ENDMDL
