MODEL 1
REMARK VINA RESULT:      -7.8      0.000      0.000
REMARK  Name = 
REMARK  14 active torsions:
REMARK  status: ('A' for Active; 'I' for Inactive)
REMARK    1  A    between atoms: C_4  and  O_6
REMARK    2  A    between atoms: O_6  and  C_7
REMARK    3  A    between atoms: C_7  and  C_9
REMARK    4  A    between atoms: C_11  and  O_12
REMARK    5  A    between atoms: O_12  and  C_13
REMARK    6  A    between atoms: C_14  and  O_15
REMARK    7  A    between atoms: O_15  and  C_16
REMARK    8  A    between atoms: C_17  and  O_18
REMARK    9  A    between atoms: O_18  and  C_19
REMARK   10  A    between atoms: C_21  and  O_23
REMARK   11  A    between atoms: O_23  and  C_24
REMARK   12  A    between atoms: C_25  and  C_27
REMARK   13  A    between atoms: C_27  and  O_29
REMARK   14  A    between atoms: O_29  and  C_30
REMARK                            x       y       z     vdW  Elec       q    Type
REMARK                         _______ _______ _______ _____ _____    ______ ____
ROOT
ATOM      1  C   UNL     1       9.174  -0.847  23.784  0.00  0.00    +0.011 C 
ATOM      2  C   UNL     1       9.021   0.604  24.245  0.00  0.00    +0.089 C 
ATOM      3  N   UNL     1       7.739   0.684  24.919  0.00  0.00    -0.293 NA
ATOM      4  C   UNL     1       7.670   1.786  25.905  0.00  0.00    +0.090 C 
ATOM      5  C   UNL     1       7.702   3.191  25.278  0.00  0.00    +0.053 C 
ATOM      6  C   UNL     1       6.681   3.236  24.200  0.00  0.00    -0.016 A 
ATOM      7  C   UNL     1       5.887   4.335  23.788  0.00  0.00    +0.003 A 
ATOM      8  C   UNL     1       4.912   3.820  22.926  0.00  0.00    +0.047 A 
ATOM      9  C   UNL     1       3.896   4.607  22.387  0.00  0.00    +0.026 A 
ATOM     10  C   UNL     1       3.855   5.954  22.745  0.00  0.00    +0.002 A 
ATOM     11  C   UNL     1       4.813   6.503  23.596  0.00  0.00    +0.001 A 
ATOM     12  N   UNL     1       5.202   2.461  22.748  0.00  0.00    -0.356 N 
ATOM     13  H   UNL     1       4.640   1.831  22.192  0.00  0.00    +0.166 HD
ATOM     14  C   UNL     1       5.828   5.700  24.125  0.00  0.00    +0.010 A 
ATOM     15  C   UNL     1       6.247   2.080  23.558  0.00  0.00    +0.038 A 
ATOM     16  C   UNL     1       6.641   0.644  23.937  0.00  0.00    +0.104 C 
ATOM     17  C   UNL     1       6.880  -0.400  22.745  0.00  0.00    +0.030 C 
ATOM     18  C   UNL     1       8.131  -1.414  22.795  0.00  0.00    +0.012 C 
ATOM     19  C   UNL     1       8.116  -3.124  22.900  0.00  0.00    +0.133 C 
ATOM     20  C   UNL     1       8.307  -3.770  24.361  0.00  0.00    +0.172 C 
ATOM     21  C   UNL     1       7.961  -2.621  25.296  0.00  0.00    +0.206 C 
ATOM     22  C   UNL     1       9.189  -1.684  25.062  0.00  0.00    +0.052 C 
ENDROOT
BRANCH  19  23
ATOM     23  C   UNL     1       6.975  -3.877  22.209  0.00  0.00    +0.313 C 
ATOM     24  O   UNL     1       6.182  -3.394  21.420  0.00  0.00    -0.250 OA
BRANCH  23  25
ATOM     25  O   UNL     1       7.025  -5.200  22.567  0.00  0.00    -0.468 OA
ATOM     26  C   UNL     1       6.413  -6.239  21.791  0.00  0.00    +0.280 C 
ENDBRANCH  23  25
ENDBRANCH  19  23
BRANCH  20  27
ATOM     27  O   UNL     1       9.655  -4.223  24.594  0.00  0.00    -0.375 OA
ATOM     28  C   UNL     1       9.862  -5.273  25.517  0.00  0.00    +0.194 C 
ENDBRANCH  20  27
BRANCH  21  29
ATOM     29  O   UNL     1       6.611  -2.296  24.754  0.00  0.00    -0.455 OA
BRANCH  29  30
ATOM     30  C   UNL     1       5.407  -2.381  25.351  0.00  0.00    +0.340 C 
ATOM     31  O   UNL     1       4.780  -1.446  25.824  0.00  0.00    -0.245 OA
BRANCH  30  32
ATOM     32  C   UNL     1       4.855  -3.795  25.220  0.00  0.00    +0.066 A 
ATOM     33  C   UNL     1       5.196  -4.861  26.054  0.00  0.00    +0.064 A 
ATOM     34  C   UNL     1       4.735  -6.188  25.818  0.00  0.00    +0.166 A 
ATOM     35  C   UNL     1       3.898  -6.472  24.714  0.00  0.00    +0.204 A 
ATOM     36  C   UNL     1       3.518  -5.385  23.889  0.00  0.00    +0.166 A 
ATOM     37  C   UNL     1       3.983  -4.068  24.165  0.00  0.00    +0.064 A 
BRANCH  34  38
ATOM     38  O   UNL     1       5.228  -7.084  26.744  0.00  0.00    -0.491 OA
ATOM     39  C   UNL     1       5.231  -6.754  28.131  0.00  0.00    +0.277 C 
ENDBRANCH  34  38
BRANCH  35  40
ATOM     40  O   UNL     1       3.558  -7.787  24.525  0.00  0.00    -0.488 OA
ATOM     41  C   UNL     1       2.355  -8.328  25.054  0.00  0.00    +0.277 C 
ENDBRANCH  35  40
BRANCH  36  42
ATOM     42  O   UNL     1       2.734  -5.656  22.794  0.00  0.00    -0.491 OA
ATOM     43  C   UNL     1       1.325  -5.531  22.939  0.00  0.00    +0.277 C 
ENDBRANCH  36  42
ENDBRANCH  30  32
ENDBRANCH  29  30
ENDBRANCH  21  29
TORSDOF 9
ENDMDL
MODEL 2
REMARK VINA RESULT:      -7.2      1.858      2.174
REMARK  Name = 
REMARK  14 active torsions:
REMARK  status: ('A' for Active; 'I' for Inactive)
REMARK    1  A    between atoms: C_4  and  O_6
REMARK    2  A    between atoms: O_6  and  C_7
REMARK    3  A    between atoms: C_7  and  C_9
REMARK    4  A    between atoms: C_11  and  O_12
REMARK    5  A    between atoms: O_12  and  C_13
REMARK    6  A    between atoms: C_14  and  O_15
REMARK    7  A    between atoms: O_15  and  C_16
REMARK    8  A    between atoms: C_17  and  O_18
REMARK    9  A    between atoms: O_18  and  C_19
REMARK   10  A    between atoms: C_21  and  O_23
REMARK   11  A    between atoms: O_23  and  C_24
REMARK   12  A    between atoms: C_25  and  C_27
REMARK   13  A    between atoms: C_27  and  O_29
REMARK   14  A    between atoms: O_29  and  C_30
REMARK                            x       y       z     vdW  Elec       q    Type
REMARK                         _______ _______ _______ _____ _____    ______ ____
ROOT
ATOM      1  C   UNL     1       9.226  -1.857  22.883  0.00  0.00    +0.011 C 
ATOM      2  C   UNL     1       9.730  -0.416  22.984  0.00  0.00    +0.089 C 
ATOM      3  N   UNL     1       9.024   0.185  24.100  0.00  0.00    -0.293 NA
ATOM      4  C   UNL     1       9.757   1.318  24.707  0.00  0.00    +0.090 C 
ATOM      5  C   UNL     1       9.867   2.554  23.796  0.00  0.00    +0.053 C 
ATOM      6  C   UNL     1       8.507   2.873  23.290  0.00  0.00    -0.016 A 
ATOM      7  C   UNL     1       7.954   4.145  22.999  0.00  0.00    +0.003 A 
ATOM      8  C   UNL     1       6.583   3.947  22.801  0.00  0.00    +0.047 A 
ATOM      9  C   UNL     1       5.699   4.999  22.574  0.00  0.00    +0.026 A 
ATOM     10  C   UNL     1       6.215   6.295  22.562  0.00  0.00    +0.002 A 
ATOM     11  C   UNL     1       7.576   6.529  22.749  0.00  0.00    +0.001 A 
ATOM     12  N   UNL     1       6.358   2.566  22.864  0.00  0.00    -0.356 N 
ATOM     13  H   UNL     1       5.445   2.137  22.783  0.00  0.00    +0.166 HD
ATOM     14  C   UNL     1       8.451   5.462  22.973  0.00  0.00    +0.010 A 
ATOM     15  C   UNL     1       7.512   1.903  23.213  0.00  0.00    +0.038 A 
ATOM     16  C   UNL     1       7.625   0.462  23.732  0.00  0.00    +0.104 C 
ATOM     17  C   UNL     1       6.946  -0.698  22.860  0.00  0.00    +0.030 C 
ATOM     18  C   UNL     1       7.721  -2.090  22.619  0.00  0.00    +0.012 C 
ATOM     19  C   UNL     1       7.285  -3.660  23.146  0.00  0.00    +0.133 C 
ATOM     20  C   UNL     1       7.981  -4.201  24.493  0.00  0.00    +0.172 C 
ATOM     21  C   UNL     1       8.474  -2.926  25.163  0.00  0.00    +0.206 C 
ATOM     22  C   UNL     1       9.633  -2.526  24.195  0.00  0.00    +0.052 C 
ENDROOT
BRANCH  19  23
ATOM     23  C   UNL     1       5.795  -4.004  23.229  0.00  0.00    +0.313 C 
ATOM     24  O   UNL     1       4.920  -3.540  22.519  0.00  0.00    -0.250 OA
BRANCH  23  25
ATOM     25  O   UNL     1       5.605  -4.967  24.186  0.00  0.00    -0.468 OA
ATOM     26  C   UNL     1       4.841  -6.158  23.952  0.00  0.00    +0.280 C 
ENDBRANCH  23  25
ENDBRANCH  19  23
BRANCH  20  27
ATOM     27  O   UNL     1       9.083  -5.091  24.229  0.00  0.00    -0.375 OA
ATOM     28  C   UNL     1       9.688  -5.756  25.320  0.00  0.00    +0.194 C 
ENDBRANCH  20  27
BRANCH  21  29
ATOM     29  O   UNL     1       7.184  -2.181  25.193  0.00  0.00    -0.455 OA
BRANCH  29  30
ATOM     30  C   UNL     1       6.506  -1.686  26.247  0.00  0.00    +0.340 C 
ATOM     31  O   UNL     1       6.734  -0.625  26.805  0.00  0.00    -0.245 OA
BRANCH  30  32
ATOM     32  C   UNL     1       5.304  -2.570  26.558  0.00  0.00    +0.066 A 
ATOM     33  C   UNL     1       5.343  -3.710  27.362  0.00  0.00    +0.064 A 
ATOM     34  C   UNL     1       4.213  -4.561  27.529  0.00  0.00    +0.166 A 
ATOM     35  C   UNL     1       2.992  -4.269  26.878  0.00  0.00    +0.204 A 
ATOM     36  C   UNL     1       2.938  -3.091  26.095  0.00  0.00    +0.166 A 
ATOM     37  C   UNL     1       4.081  -2.253  25.964  0.00  0.00    +0.064 A 
BRANCH  34  38
ATOM     38  O   UNL     1       4.492  -5.647  28.333  0.00  0.00    -0.491 OA
ATOM     39  C   UNL     1       5.109  -6.808  27.781  0.00  0.00    +0.277 C 
ENDBRANCH  34  38
BRANCH  35  40
ATOM     40  O   UNL     1       1.977  -5.178  27.042  0.00  0.00    -0.488 OA
ATOM     41  C   UNL     1       1.748  -6.214  26.097  0.00  0.00    +0.277 C 
ENDBRANCH  35  40
BRANCH  36  42
ATOM     42  O   UNL     1       1.766  -2.817  25.430  0.00  0.00    -0.491 OA
ATOM     43  C   UNL     1       0.724  -2.181  26.158  0.00  0.00    +0.277 C 
ENDBRANCH  36  42
ENDBRANCH  30  32
ENDBRANCH  29  30
ENDBRANCH  21  29
TORSDOF 9
ENDMDL
MODEL 3
REMARK VINA RESULT:      -7.2      2.491      5.160
REMARK  Name = 
REMARK  14 active torsions:
REMARK  status: ('A' for Active; 'I' for Inactive)
REMARK    1  A    between atoms: C_4  and  O_6
REMARK    2  A    between atoms: O_6  and  C_7
REMARK    3  A    between atoms: C_7  and  C_9
REMARK    4  A    between atoms: C_11  and  O_12
REMARK    5  A    between atoms: O_12  and  C_13
REMARK    6  A    between atoms: C_14  and  O_15
REMARK    7  A    between atoms: O_15  and  C_16
REMARK    8  A    between atoms: C_17  and  O_18
REMARK    9  A    between atoms: O_18  and  C_19
REMARK   10  A    between atoms: C_21  and  O_23
REMARK   11  A    between atoms: O_23  and  C_24
REMARK   12  A    between atoms: C_25  and  C_27
REMARK   13  A    between atoms: C_27  and  O_29
REMARK   14  A    between atoms: O_29  and  C_30
REMARK                            x       y       z     vdW  Elec       q    Type
REMARK                         _______ _______ _______ _____ _____    ______ ____
ROOT
ATOM      1  C   UNL     1       9.032  -1.963  22.687  0.00  0.00    +0.011 C 
ATOM      2  C   UNL     1       9.910  -0.723  22.872  0.00  0.00    +0.089 C 
ATOM      3  N   UNL     1       9.554  -0.161  24.161  0.00  0.00    -0.293 NA
ATOM      4  C   UNL     1      10.640   0.646  24.761  0.00  0.00    +0.090 C 
ATOM      5  C   UNL     1      10.944   1.950  24.003  0.00  0.00    +0.053 C 
ATOM      6  C   UNL     1       9.660   2.668  23.791  0.00  0.00    -0.016 A 
ATOM      7  C   UNL     1       9.431   4.066  23.761  0.00  0.00    +0.003 A 
ATOM      8  C   UNL     1       8.043   4.241  23.789  0.00  0.00    +0.047 A 
ATOM      9  C   UNL     1       7.447   5.499  23.854  0.00  0.00    +0.026 A 
ATOM     10  C   UNL     1       8.282   6.614  23.909  0.00  0.00    +0.002 A 
ATOM     11  C   UNL     1       9.668   6.478  23.877  0.00  0.00    +0.001 A 
ATOM     12  N   UNL     1       7.469   2.965  23.722  0.00  0.00    -0.356 N 
ATOM     13  H   UNL     1       6.474   2.789  23.754  0.00  0.00    +0.166 HD
ATOM     14  C   UNL     1      10.251   5.209  23.808  0.00  0.00    +0.010 A 
ATOM     15  C   UNL     1       8.443   1.994  23.775  0.00  0.00    +0.038 A 
ATOM     16  C   UNL     1       8.241   0.503  24.085  0.00  0.00    +0.104 C 
ATOM     17  C   UNL     1       7.162  -0.298  23.213  0.00  0.00    +0.030 C 
ATOM     18  C   UNL     1       7.498  -1.778  22.669  0.00  0.00    +0.012 C 
ATOM     19  C   UNL     1       6.739  -3.260  23.070  0.00  0.00    +0.133 C 
ATOM     20  C   UNL     1       7.449  -4.166  24.194  0.00  0.00    +0.172 C 
ATOM     21  C   UNL     1       8.353  -3.177  24.916  0.00  0.00    +0.206 C 
ATOM     22  C   UNL     1       9.428  -2.917  23.813  0.00  0.00    +0.052 C 
ENDROOT
BRANCH  19  23
ATOM     23  C   UNL     1       5.238  -3.241  23.375  0.00  0.00    +0.313 C 
ATOM     24  O   UNL     1       4.677  -2.460  24.124  0.00  0.00    -0.250 OA
BRANCH  23  25
ATOM     25  O   UNL     1       4.611  -4.200  22.622  0.00  0.00    -0.468 OA
ATOM     26  C   UNL     1       3.882  -5.291  23.201  0.00  0.00    +0.280 C 
ENDBRANCH  23  25
ENDBRANCH  19  23
BRANCH  20  27
ATOM     27  O   UNL     1       8.226  -5.241  23.631  0.00  0.00    -0.375 OA
ATOM     28  C   UNL     1       7.720  -5.915  22.496  0.00  0.00    +0.194 C 
ENDBRANCH  20  27
BRANCH  21  29
ATOM     29  O   UNL     1       7.325  -2.157  25.267  0.00  0.00    -0.455 OA
BRANCH  29  30
ATOM     30  C   UNL     1       6.597  -2.028  26.394  0.00  0.00    +0.340 C 
ATOM     31  O   UNL     1       6.307  -2.932  27.161  0.00  0.00    -0.245 OA
BRANCH  30  32
ATOM     32  C   UNL     1       6.310  -0.556  26.666  0.00  0.00    +0.066 A 
ATOM     33  C   UNL     1       7.001   0.229  27.591  0.00  0.00    +0.064 A 
ATOM     34  C   UNL     1       6.618   1.570  27.885  0.00  0.00    +0.166 A 
ATOM     35  C   UNL     1       5.511   2.159  27.233  0.00  0.00    +0.204 A 
ATOM     36  C   UNL     1       4.834   1.378  26.264  0.00  0.00    +0.166 A 
ATOM     37  C   UNL     1       5.255   0.048  25.983  0.00  0.00    +0.064 A 
BRANCH  34  38
ATOM     38  O   UNL     1       7.416   2.139  28.857  0.00  0.00    -0.491 OA
ATOM     39  C   UNL     1       7.662   1.446  30.078  0.00  0.00    +0.277 C 
ENDBRANCH  34  38
BRANCH  35  40
ATOM     40  O   UNL     1       5.173   3.430  27.626  0.00  0.00    -0.488 OA
ATOM     41  C   UNL     1       4.308   3.662  28.728  0.00  0.00    +0.277 C 
ENDBRANCH  35  40
BRANCH  36  42
ATOM     42  O   UNL     1       3.735   1.930  25.651  0.00  0.00    -0.491 OA
ATOM     43  C   UNL     1       3.956   2.757  24.515  0.00  0.00    +0.277 C 
ENDBRANCH  36  42
ENDBRANCH  30  32
ENDBRANCH  29  30
ENDBRANCH  21  29
TORSDOF 9
ENDMDL
MODEL 4
REMARK VINA RESULT:      -7.0      1.813      2.860
REMARK  Name = 
REMARK  14 active torsions:
REMARK  status: ('A' for Active; 'I' for Inactive)
REMARK    1  A    between atoms: C_4  and  O_6
REMARK    2  A    between atoms: O_6  and  C_7
REMARK    3  A    between atoms: C_7  and  C_9
REMARK    4  A    between atoms: C_11  and  O_12
REMARK    5  A    between atoms: O_12  and  C_13
REMARK    6  A    between atoms: C_14  and  O_15
REMARK    7  A    between atoms: O_15  and  C_16
REMARK    8  A    between atoms: C_17  and  O_18
REMARK    9  A    between atoms: O_18  and  C_19
REMARK   10  A    between atoms: C_21  and  O_23
REMARK   11  A    between atoms: O_23  and  C_24
REMARK   12  A    between atoms: C_25  and  C_27
REMARK   13  A    between atoms: C_27  and  O_29
REMARK   14  A    between atoms: O_29  and  C_30
REMARK                            x       y       z     vdW  Elec       q    Type
REMARK                         _______ _______ _______ _____ _____    ______ ____
ROOT
ATOM      1  C   UNL     1       9.564  -2.038  22.921  0.00  0.00    +0.011 C 
ATOM      2  C   UNL     1      10.108  -0.628  23.159  0.00  0.00    +0.089 C 
ATOM      3  N   UNL     1       9.266  -0.034  24.180  0.00  0.00    -0.293 NA
ATOM      4  C   UNL     1       9.945   1.039  24.939  0.00  0.00    +0.090 C 
ATOM      5  C   UNL     1      10.246   2.300  24.110  0.00  0.00    +0.053 C 
ATOM      6  C   UNL     1       8.996   2.704  23.418  0.00  0.00    -0.016 A 
ATOM      7  C   UNL     1       8.550   4.011  23.101  0.00  0.00    +0.003 A 
ATOM      8  C   UNL     1       7.219   3.888  22.689  0.00  0.00    +0.047 A 
ATOM      9  C   UNL     1       6.426   4.990  22.376  0.00  0.00    +0.026 A 
ATOM     10  C   UNL     1       6.993   6.258  22.499  0.00  0.00    +0.002 A 
ATOM     11  C   UNL     1       8.318   6.419  22.901  0.00  0.00    +0.001 A 
ATOM     12  N   UNL     1       6.927   2.519  22.657  0.00  0.00    -0.356 N 
ATOM     13  H   UNL     1       6.020   2.139  22.420  0.00  0.00    +0.166 HD
ATOM     14  C   UNL     1       9.102   5.302  23.208  0.00  0.00    +0.010 A 
ATOM     15  C   UNL     1       7.984   1.788  23.148  0.00  0.00    +0.038 A 
ATOM     16  C   UNL     1       7.953   0.325  23.616  0.00  0.00    +0.104 C 
ATOM     17  C   UNL     1       7.366  -0.768  22.601  0.00  0.00    +0.030 C 
ATOM     18  C   UNL     1       8.109  -2.187  22.421  0.00  0.00    +0.012 C 
ATOM     19  C   UNL     1       7.529  -3.752  22.807  0.00  0.00    +0.133 C 
ATOM     20  C   UNL     1       7.986  -4.374  24.219  0.00  0.00    +0.172 C 
ATOM     21  C   UNL     1       8.425  -3.151  25.011  0.00  0.00    +0.206 C 
ATOM     22  C   UNL     1       9.735  -2.774  24.249  0.00  0.00    +0.052 C 
ENDROOT
BRANCH  19  23
ATOM     23  C   UNL     1       6.030  -4.024  22.648  0.00  0.00    +0.313 C 
ATOM     24  O   UNL     1       5.288  -3.464  21.860  0.00  0.00    -0.250 OA
BRANCH  23  25
ATOM     25  O   UNL     1       5.664  -5.045  23.486  0.00  0.00    -0.468 OA
ATOM     26  C   UNL     1       4.571  -5.929  23.204  0.00  0.00    +0.280 C 
ENDBRANCH  23  25
ENDBRANCH  19  23
BRANCH  20  27
ATOM     27  O   UNL     1       9.075  -5.307  24.088  0.00  0.00    -0.375 OA
ATOM     28  C   UNL     1       9.497  -6.017  25.235  0.00  0.00    +0.194 C 
ENDBRANCH  20  27
BRANCH  21  29
ATOM     29  O   UNL     1       7.178  -2.345  24.877  0.00  0.00    -0.455 OA
BRANCH  29  30
ATOM     30  C   UNL     1       6.341  -1.898  25.834  0.00  0.00    +0.340 C 
ATOM     31  O   UNL     1       6.301  -0.759  26.270  0.00  0.00    -0.245 OA
BRANCH  30  32
ATOM     32  C   UNL     1       5.333  -2.983  26.195  0.00  0.00    +0.066 A 
ATOM     33  C   UNL     1       4.011  -3.018  25.748  0.00  0.00    +0.064 A 
ATOM     34  C   UNL     1       3.081  -3.996  26.205  0.00  0.00    +0.166 A 
ATOM     35  C   UNL     1       3.476  -4.982  27.139  0.00  0.00    +0.204 A 
ATOM     36  C   UNL     1       4.827  -4.972  27.562  0.00  0.00    +0.166 A 
ATOM     37  C   UNL     1       5.735  -3.992  27.071  0.00  0.00    +0.064 A 
BRANCH  34  38
ATOM     38  O   UNL     1       1.825  -3.815  25.663  0.00  0.00    -0.491 OA
ATOM     39  C   UNL     1       1.447  -4.515  24.480  0.00  0.00    +0.277 C 
ENDBRANCH  34  38
BRANCH  35  40
ATOM     40  O   UNL     1       2.498  -5.840  27.575  0.00  0.00    -0.488 OA
ATOM     41  C   UNL     1       2.302  -7.111  26.971  0.00  0.00    +0.277 C 
ENDBRANCH  35  40
BRANCH  36  42
ATOM     42  O   UNL     1       5.212  -5.905  28.495  0.00  0.00    -0.491 OA
ATOM     43  C   UNL     1       5.313  -5.484  29.850  0.00  0.00    +0.277 C 
ENDBRANCH  36  42
ENDBRANCH  30  32
ENDBRANCH  29  30
ENDBRANCH  21  29
TORSDOF 9
ENDMDL
MODEL 5
REMARK VINA RESULT:      -7.0      2.202      3.937
REMARK  Name = 
REMARK  14 active torsions:
REMARK  status: ('A' for Active; 'I' for Inactive)
REMARK    1  A    between atoms: C_4  and  O_6
REMARK    2  A    between atoms: O_6  and  C_7
REMARK    3  A    between atoms: C_7  and  C_9
REMARK    4  A    between atoms: C_11  and  O_12
REMARK    5  A    between atoms: O_12  and  C_13
REMARK    6  A    between atoms: C_14  and  O_15
REMARK    7  A    between atoms: O_15  and  C_16
REMARK    8  A    between atoms: C_17  and  O_18
REMARK    9  A    between atoms: O_18  and  C_19
REMARK   10  A    between atoms: C_21  and  O_23
REMARK   11  A    between atoms: O_23  and  C_24
REMARK   12  A    between atoms: C_25  and  C_27
REMARK   13  A    between atoms: C_27  and  O_29
REMARK   14  A    between atoms: O_29  and  C_30
REMARK                            x       y       z     vdW  Elec       q    Type
REMARK                         _______ _______ _______ _____ _____    ______ ____
ROOT
ATOM      1  C   UNL     1       7.761  -2.233  22.080  0.00  0.00    +0.011 C 
ATOM      2  C   UNL     1       8.699  -1.025  22.122  0.00  0.00    +0.089 C 
ATOM      3  N   UNL     1       9.034  -0.817  23.517  0.00  0.00    -0.293 NA
ATOM      4  C   UNL     1      10.324  -0.117  23.705  0.00  0.00    +0.090 C 
ATOM      5  C   UNL     1      10.315   1.349  23.238  0.00  0.00    +0.053 C 
ATOM      6  C   UNL     1       9.134   2.017  23.842  0.00  0.00    -0.016 A 
ATOM      7  C   UNL     1       9.008   3.364  24.266  0.00  0.00    +0.003 A 
ATOM      8  C   UNL     1       7.814   3.442  24.991  0.00  0.00    +0.047 A 
ATOM      9  C   UNL     1       7.402   4.607  25.635  0.00  0.00    +0.026 A 
ATOM     10  C   UNL     1       8.233   5.724  25.557  0.00  0.00    +0.002 A 
ATOM     11  C   UNL     1       9.427   5.685  24.838  0.00  0.00    +0.001 A 
ATOM     12  N   UNL     1       7.197   2.188  24.896  0.00  0.00    -0.356 N 
ATOM     13  H   UNL     1       6.327   1.950  25.353  0.00  0.00    +0.166 HD
ATOM     14  C   UNL     1       9.824   4.508  24.195  0.00  0.00    +0.010 A 
ATOM     15  C   UNL     1       8.014   1.295  24.243  0.00  0.00    +0.038 A 
ATOM     16  C   UNL     1       7.888  -0.236  24.239  0.00  0.00    +0.104 C 
ATOM     17  C   UNL     1       6.476  -0.864  23.818  0.00  0.00    +0.030 C 
ATOM     18  C   UNL     1       6.417  -2.143  22.839  0.00  0.00    +0.012 C 
ATOM     19  C   UNL     1       5.846  -3.722  23.177  0.00  0.00    +0.133 C 
ATOM     20  C   UNL     1       6.944  -4.830  23.571  0.00  0.00    +0.172 C 
ATOM     21  C   UNL     1       8.144  -3.994  23.993  0.00  0.00    +0.206 C 
ATOM     22  C   UNL     1       8.581  -3.407  22.613  0.00  0.00    +0.052 C 
ENDROOT
BRANCH  19  23
ATOM     23  C   UNL     1       4.674  -3.870  24.153  0.00  0.00    +0.313 C 
ATOM     24  O   UNL     1       3.886  -2.989  24.453  0.00  0.00    -0.250 OA
BRANCH  23  25
ATOM     25  O   UNL     1       4.609  -5.168  24.588  0.00  0.00    -0.468 OA
ATOM     26  C   UNL     1       3.444  -5.721  25.216  0.00  0.00    +0.280 C 
ENDBRANCH  23  25
ENDBRANCH  19  23
BRANCH  20  27
ATOM     27  O   UNL     1       7.290  -5.685  22.464  0.00  0.00    -0.375 OA
ATOM     28  C   UNL     1       6.292  -5.989  21.510  0.00  0.00    +0.194 C 
ENDBRANCH  20  27
BRANCH  21  29
ATOM     29  O   UNL     1       7.473  -3.155  25.026  0.00  0.00    -0.455 OA
BRANCH  29  30
ATOM     30  C   UNL     1       7.701  -3.086  26.352  0.00  0.00    +0.340 C 
ATOM     31  O   UNL     1       8.612  -2.474  26.887  0.00  0.00    -0.245 OA
BRANCH  30  32
ATOM     32  C   UNL     1       6.566  -3.759  27.114  0.00  0.00    +0.066 A 
ATOM     33  C   UNL     1       5.385  -3.124  27.501  0.00  0.00    +0.064 A 
ATOM     34  C   UNL     1       4.404  -3.771  28.308  0.00  0.00    +0.166 A 
ATOM     35  C   UNL     1       4.598  -5.101  28.746  0.00  0.00    +0.204 A 
ATOM     36  C   UNL     1       5.777  -5.760  28.320  0.00  0.00    +0.166 A 
ATOM     37  C   UNL     1       6.727  -5.090  27.499  0.00  0.00    +0.064 A 
BRANCH  34  38
ATOM     38  O   UNL     1       3.340  -2.942  28.601  0.00  0.00    -0.491 OA
ATOM     39  C   UNL     1       2.245  -2.833  27.694  0.00  0.00    +0.277 C 
ENDBRANCH  34  38
BRANCH  35  40
ATOM     40  O   UNL     1       3.635  -5.621  29.574  0.00  0.00    -0.488 OA
ATOM     41  C   UNL     1       2.559  -6.397  29.068  0.00  0.00    +0.277 C 
ENDBRANCH  35  40
BRANCH  36  42
ATOM     42  O   UNL     1       5.991  -7.042  28.769  0.00  0.00    -0.491 OA
ATOM     43  C   UNL     1       6.635  -7.204  30.027  0.00  0.00    +0.277 C 
ENDBRANCH  36  42
ENDBRANCH  30  32
ENDBRANCH  29  30
ENDBRANCH  21  29
TORSDOF 9
ENDMDL
MODEL 6
REMARK VINA RESULT:      -6.9      2.752      6.327
REMARK  Name = 
REMARK  14 active torsions:
REMARK  status: ('A' for Active; 'I' for Inactive)
REMARK    1  A    between atoms: C_4  and  O_6
REMARK    2  A    between atoms: O_6  and  C_7
REMARK    3  A    between atoms: C_7  and  C_9
REMARK    4  A    between atoms: C_11  and  O_12
REMARK    5  A    between atoms: O_12  and  C_13
REMARK    6  A    between atoms: C_14  and  O_15
REMARK    7  A    between atoms: O_15  and  C_16
REMARK    8  A    between atoms: C_17  and  O_18
REMARK    9  A    between atoms: O_18  and  C_19
REMARK   10  A    between atoms: C_21  and  O_23
REMARK   11  A    between atoms: O_23  and  C_24
REMARK   12  A    between atoms: C_25  and  C_27
REMARK   13  A    between atoms: C_27  and  O_29
REMARK   14  A    between atoms: O_29  and  C_30
REMARK                            x       y       z     vdW  Elec       q    Type
REMARK                         _______ _______ _______ _____ _____    ______ ____
ROOT
ATOM      1  C   UNL     1       4.896  -5.785  22.996  0.00  0.00    +0.011 C 
ATOM      2  C   UNL     1       6.219  -5.145  22.569  0.00  0.00    +0.089 C 
ATOM      3  N   UNL     1       6.720  -4.434  23.729  0.00  0.00    -0.293 NA
ATOM      4  C   UNL     1       8.189  -4.257  23.711  0.00  0.00    +0.090 C 
ATOM      5  C   UNL     1       8.693  -3.308  22.609  0.00  0.00    +0.053 C 
ATOM      6  C   UNL     1       7.902  -2.053  22.687  0.00  0.00    -0.016 A 
ATOM      7  C   UNL     1       8.325  -0.730  22.408  0.00  0.00    +0.003 A 
ATOM      8  C   UNL     1       7.311   0.117  22.868  0.00  0.00    +0.047 A 
ATOM      9  C   UNL     1       7.420   1.506  22.834  0.00  0.00    +0.026 A 
ATOM     10  C   UNL     1       8.600   2.055  22.333  0.00  0.00    +0.002 A 
ATOM     11  C   UNL     1       9.629   1.243  21.860  0.00  0.00    +0.001 A 
ATOM     12  N   UNL     1       6.263  -0.703  23.306  0.00  0.00    -0.356 N 
ATOM     13  H   UNL     1       5.407  -0.356  23.718  0.00  0.00    +0.166 HD
ATOM     14  C   UNL     1       9.502  -0.150  21.898  0.00  0.00    +0.010 A 
ATOM     15  C   UNL     1       6.630  -2.028  23.250  0.00  0.00    +0.038 A 
ATOM     16  C   UNL     1       5.939  -3.205  23.954  0.00  0.00    +0.104 C 
ATOM     17  C   UNL     1       4.364  -3.390  23.722  0.00  0.00    +0.030 C 
ATOM     18  C   UNL     1       3.751  -4.858  23.463  0.00  0.00    +0.012 C 
ATOM     19  C   UNL     1       2.659  -5.746  24.438  0.00  0.00    +0.133 C 
ATOM     20  C   UNL     1       3.290  -6.845  25.431  0.00  0.00    +0.172 C 
ATOM     21  C   UNL     1       4.745  -6.415  25.543  0.00  0.00    +0.206 C 
ATOM     22  C   UNL     1       5.257  -6.767  24.110  0.00  0.00    +0.052 C 
ENDROOT
BRANCH  19  23
ATOM     23  C   UNL     1       1.601  -4.968  25.226  0.00  0.00    +0.313 C 
ATOM     24  O   UNL     1       1.058  -3.940  24.860  0.00  0.00    -0.250 OA
BRANCH  23  25
ATOM     25  O   UNL     1       1.311  -5.644  26.383  0.00  0.00    -0.468 OA
ATOM     26  C   UNL     1       0.876  -4.986  27.581  0.00  0.00    +0.280 C 
ENDBRANCH  23  25
ENDBRANCH  19  23
BRANCH  20  27
ATOM     27  O   UNL     1       3.198  -8.183  24.907  0.00  0.00    -0.375 OA
ATOM     28  C   UNL     1       1.942  -8.643  24.451  0.00  0.00    +0.194 C 
ENDBRANCH  20  27
BRANCH  21  29
ATOM     29  O   UNL     1       4.525  -5.005  25.973  0.00  0.00    -0.455 OA
BRANCH  29  30
ATOM     30  C   UNL     1       4.546  -4.475  27.212  0.00  0.00    +0.340 C 
ATOM     31  O   UNL     1       4.516  -5.106  28.256  0.00  0.00    -0.245 OA
BRANCH  30  32
ATOM     32  C   UNL     1       4.769  -2.970  27.134  0.00  0.00    +0.066 A 
ATOM     33  C   UNL     1       3.750  -2.021  27.031  0.00  0.00    +0.064 A 
ATOM     34  C   UNL     1       4.019  -0.634  26.851  0.00  0.00    +0.166 A 
ATOM     35  C   UNL     1       5.351  -0.165  26.773  0.00  0.00    +0.204 A 
ATOM     36  C   UNL     1       6.386  -1.121  26.918  0.00  0.00    +0.166 A 
ATOM     37  C   UNL     1       6.081  -2.497  27.115  0.00  0.00    +0.064 A 
BRANCH  34  38
ATOM     38  O   UNL     1       2.864   0.111  26.735  0.00  0.00    -0.491 OA
ATOM     39  C   UNL     1       2.071   0.390  27.887  0.00  0.00    +0.277 C 
ENDBRANCH  34  38
BRANCH  35  40
ATOM     40  O   UNL     1       5.517   1.175  26.531  0.00  0.00    -0.488 OA
ATOM     41  C   UNL     1       5.643   2.112  27.591  0.00  0.00    +0.277 C 
ENDBRANCH  35  40
BRANCH  36  42
ATOM     42  O   UNL     1       7.684  -0.680  26.809  0.00  0.00    -0.491 OA
ATOM     43  C   UNL     1       8.659  -1.601  26.337  0.00  0.00    +0.277 C 
ENDBRANCH  36  42
ENDBRANCH  30  32
ENDBRANCH  29  30
ENDBRANCH  21  29
TORSDOF 9
ENDMDL
MODEL 7
REMARK VINA RESULT:      -6.9      2.231      5.117
REMARK  Name = 
REMARK  14 active torsions:
REMARK  status: ('A' for Active; 'I' for Inactive)
REMARK    1  A    between atoms: C_4  and  O_6
REMARK    2  A    between atoms: O_6  and  C_7
REMARK    3  A    between atoms: C_7  and  C_9
REMARK    4  A    between atoms: C_11  and  O_12
REMARK    5  A    between atoms: O_12  and  C_13
REMARK    6  A    between atoms: C_14  and  O_15
REMARK    7  A    between atoms: O_15  and  C_16
REMARK    8  A    between atoms: C_17  and  O_18
REMARK    9  A    between atoms: O_18  and  C_19
REMARK   10  A    between atoms: C_21  and  O_23
REMARK   11  A    between atoms: O_23  and  C_24
REMARK   12  A    between atoms: C_25  and  C_27
REMARK   13  A    between atoms: C_27  and  O_29
REMARK   14  A    between atoms: O_29  and  C_30
REMARK                            x       y       z     vdW  Elec       q    Type
REMARK                         _______ _______ _______ _____ _____    ______ ____
ROOT
ATOM      1  C   UNL     1       9.546  -2.123  23.017  0.00  0.00    +0.011 C 
ATOM      2  C   UNL     1      10.100  -0.734  23.342  0.00  0.00    +0.089 C 
ATOM      3  N   UNL     1       9.182  -0.142  24.296  0.00  0.00    -0.293 NA
ATOM      4  C   UNL     1       9.814   0.894  25.143  0.00  0.00    +0.090 C 
ATOM      5  C   UNL     1      10.222   2.166  24.378  0.00  0.00    +0.053 C 
ATOM      6  C   UNL     1       9.051   2.620  23.584  0.00  0.00    -0.016 A 
ATOM      7  C   UNL     1       8.669   3.946  23.263  0.00  0.00    +0.003 A 
ATOM      8  C   UNL     1       7.379   3.869  22.727  0.00  0.00    +0.047 A 
ATOM      9  C   UNL     1       6.646   4.999  22.371  0.00  0.00    +0.026 A 
ATOM     10  C   UNL     1       7.231   6.248  22.579  0.00  0.00    +0.002 A 
ATOM     11  C   UNL     1       8.516   6.363  23.105  0.00  0.00    +0.001 A 
ATOM     12  N   UNL     1       7.058   2.509  22.632  0.00  0.00    -0.356 N 
ATOM     13  H   UNL     1       6.167   2.159  22.303  0.00  0.00    +0.166 HD
ATOM     14  C   UNL     1       9.240   5.218  23.453  0.00  0.00    +0.010 A 
ATOM     15  C   UNL     1       8.046   1.738  23.199  0.00  0.00    +0.038 A 
ATOM     16  C   UNL     1       7.936   0.266  23.623  0.00  0.00    +0.104 C 
ATOM     17  C   UNL     1       7.420  -0.786  22.530  0.00  0.00    +0.030 C 
ATOM     18  C   UNL     1       8.140  -2.220  22.382  0.00  0.00    +0.012 C 
ATOM     19  C   UNL     1       7.489  -3.778  22.673  0.00  0.00    +0.133 C 
ATOM     20  C   UNL     1       7.797  -4.445  24.104  0.00  0.00    +0.172 C 
ATOM     21  C   UNL     1       8.191  -3.254  24.964  0.00  0.00    +0.206 C 
ATOM     22  C   UNL     1       9.575  -2.894  24.336  0.00  0.00    +0.052 C 
ENDROOT
BRANCH  19  23
ATOM     23  C   UNL     1       6.005  -4.005  22.369  0.00  0.00    +0.313 C 
ATOM     24  O   UNL     1       5.324  -3.332  21.614  0.00  0.00    -0.250 OA
BRANCH  23  25
ATOM     25  O   UNL     1       5.575  -5.128  23.029  0.00  0.00    -0.468 OA
ATOM     26  C   UNL     1       4.189  -5.472  23.157  0.00  0.00    +0.280 C 
ENDBRANCH  23  25
ENDBRANCH  19  23
BRANCH  20  27
ATOM     27  O   UNL     1       8.871  -5.404  24.048  0.00  0.00    -0.375 OA
ATOM     28  C   UNL     1       9.366  -5.933  25.262  0.00  0.00    +0.194 C 
ENDBRANCH  20  27
BRANCH  21  29
ATOM     29  O   UNL     1       6.983  -2.411  24.738  0.00  0.00    -0.455 OA
BRANCH  29  30
ATOM     30  C   UNL     1       5.856  -2.316  25.470  0.00  0.00    +0.340 C 
ATOM     31  O   UNL     1       5.102  -3.238  25.740  0.00  0.00    -0.245 OA
BRANCH  30  32
ATOM     32  C   UNL     1       5.727  -0.914  26.053  0.00  0.00    +0.066 A 
ATOM     33  C   UNL     1       4.786   0.032  25.643  0.00  0.00    +0.064 A 
ATOM     34  C   UNL     1       4.781   1.366  26.145  0.00  0.00    +0.166 A 
ATOM     35  C   UNL     1       5.744   1.779  27.095  0.00  0.00    +0.204 A 
ATOM     36  C   UNL     1       6.674   0.809  27.542  0.00  0.00    +0.166 A 
ATOM     37  C   UNL     1       6.639  -0.520  27.033  0.00  0.00    +0.064 A 
BRANCH  34  38
ATOM     38  O   UNL     1       3.790   2.136  25.572  0.00  0.00    -0.491 OA
ATOM     39  C   UNL     1       4.060   2.891  24.393  0.00  0.00    +0.277 C 
ENDBRANCH  34  38
BRANCH  35  40
ATOM     40  O   UNL     1       5.707   3.097  27.472  0.00  0.00    -0.488 OA
ATOM     41  C   UNL     1       4.695   3.595  28.335  0.00  0.00    +0.277 C 
ENDBRANCH  35  40
BRANCH  36  42
ATOM     42  O   UNL     1       7.636   1.210  28.439  0.00  0.00    -0.491 OA
ATOM     43  C   UNL     1       7.254   1.348  29.802  0.00  0.00    +0.277 C 
ENDBRANCH  36  42
ENDBRANCH  30  32
ENDBRANCH  29  30
ENDBRANCH  21  29
TORSDOF 9
ENDMDL
MODEL 8
REMARK VINA RESULT:      -6.7      2.787      7.364
REMARK  Name = 
REMARK  14 active torsions:
REMARK  status: ('A' for Active; 'I' for Inactive)
REMARK    1  A    between atoms: C_4  and  O_6
REMARK    2  A    between atoms: O_6  and  C_7
REMARK    3  A    between atoms: C_7  and  C_9
REMARK    4  A    between atoms: C_11  and  O_12
REMARK    5  A    between atoms: O_12  and  C_13
REMARK    6  A    between atoms: C_14  and  O_15
REMARK    7  A    between atoms: O_15  and  C_16
REMARK    8  A    between atoms: C_17  and  O_18
REMARK    9  A    between atoms: O_18  and  C_19
REMARK   10  A    between atoms: C_21  and  O_23
REMARK   11  A    between atoms: O_23  and  C_24
REMARK   12  A    between atoms: C_25  and  C_27
REMARK   13  A    between atoms: C_27  and  O_29
REMARK   14  A    between atoms: O_29  and  C_30
REMARK                            x       y       z     vdW  Elec       q    Type
REMARK                         _______ _______ _______ _____ _____    ______ ____
ROOT
ATOM      1  C   UNL     1       4.429   0.729  26.590  0.00  0.00    +0.011 C 
ATOM      2  C   UNL     1       3.630  -0.460  27.129  0.00  0.00    +0.089 C 
ATOM      3  N   UNL     1       4.600  -1.485  27.461  0.00  0.00    -0.293 NA
ATOM      4  C   UNL     1       4.116  -2.428  28.494  0.00  0.00    +0.090 C 
ATOM      5  C   UNL     1       2.960  -3.330  28.027  0.00  0.00    +0.053 C 
ATOM      6  C   UNL     1       3.353  -3.949  26.735  0.00  0.00    -0.016 A 
ATOM      7  C   UNL     1       3.019  -5.233  26.238  0.00  0.00    +0.003 A 
ATOM      8  C   UNL     1       3.825  -5.447  25.115  0.00  0.00    +0.047 A 
ATOM      9  C   UNL     1       3.827  -6.649  24.411  0.00  0.00    +0.026 A 
ATOM     10  C   UNL     1       3.000  -7.674  24.869  0.00  0.00    +0.002 A 
ATOM     11  C   UNL     1       2.179  -7.495  25.981  0.00  0.00    +0.001 A 
ATOM     12  N   UNL     1       4.536  -4.261  24.892  0.00  0.00    -0.356 N 
ATOM     13  H   UNL     1       5.221  -4.141  24.157  0.00  0.00    +0.166 HD
ATOM     14  C   UNL     1       2.186  -6.281  26.673  0.00  0.00    +0.010 A 
ATOM     15  C   UNL     1       4.298  -3.357  25.902  0.00  0.00    +0.038 A 
ATOM     16  C   UNL     1       5.128  -2.108  26.234  0.00  0.00    +0.104 C 
ATOM     17  C   UNL     1       5.408  -1.065  25.051  0.00  0.00    +0.030 C 
ATOM     18  C   UNL     1       5.288   0.519  25.322  0.00  0.00    +0.012 C 
ATOM     19  C   UNL     1       6.519   1.709  25.263  0.00  0.00    +0.133 C 
ATOM     20  C   UNL     1       7.197   2.132  26.659  0.00  0.00    +0.172 C 
ATOM     21  C   UNL     1       6.853   0.969  27.578  0.00  0.00    +0.206 C 
ATOM     22  C   UNL     1       5.315   1.186  27.748  0.00  0.00    +0.052 C 
ENDROOT
BRANCH  19  23
ATOM     23  C   UNL     1       7.645   1.529  24.241  0.00  0.00    +0.313 C 
ATOM     24  O   UNL     1       7.514   1.091  23.111  0.00  0.00    -0.250 OA
BRANCH  23  25
ATOM     25  O   UNL     1       8.818   2.000  24.772  0.00  0.00    -0.468 OA
ATOM     26  C   UNL     1      10.108   1.586  24.301  0.00  0.00    +0.280 C 
ENDBRANCH  23  25
ENDBRANCH  19  23
BRANCH  20  27
ATOM     27  O   UNL     1       6.664   3.364  27.184  0.00  0.00    -0.375 OA
ATOM     28  C   UNL     1       7.217   4.584  26.732  0.00  0.00    +0.194 C 
ENDBRANCH  20  27
BRANCH  21  29
ATOM     29  O   UNL     1       7.402  -0.138  26.745  0.00  0.00    -0.455 OA
BRANCH  29  30
ATOM     30  C   UNL     1       8.574  -0.793  26.857  0.00  0.00    +0.340 C 
ATOM     31  O   UNL     1       9.455  -0.543  27.664  0.00  0.00    -0.245 OA
BRANCH  30  32
ATOM     32  C   UNL     1       8.590  -2.001  25.928  0.00  0.00    +0.066 A 
ATOM     33  C   UNL     1       8.829  -1.942  24.554  0.00  0.00    +0.064 A 
ATOM     34  C   UNL     1       8.723  -3.089  23.715  0.00  0.00    +0.166 A 
ATOM     35  C   UNL     1       8.370  -4.346  24.258  0.00  0.00    +0.204 A 
ATOM     36  C   UNL     1       8.167  -4.415  25.658  0.00  0.00    +0.166 A 
ATOM     37  C   UNL     1       8.300  -3.253  26.469  0.00  0.00    +0.064 A 
BRANCH  34  38
ATOM     38  O   UNL     1       8.963  -2.790  22.389  0.00  0.00    -0.491 OA
ATOM     39  C   UNL     1       9.525  -1.530  22.029  0.00  0.00    +0.277 C 
ENDBRANCH  34  38
BRANCH  35  40
ATOM     40  O   UNL     1       8.225  -5.380  23.368  0.00  0.00    -0.488 OA
ATOM     41  C   UNL     1       7.028  -5.559  22.625  0.00  0.00    +0.277 C 
ENDBRANCH  35  40
BRANCH  36  42
ATOM     42  O   UNL     1       7.790  -5.625  26.191  0.00  0.00    -0.491 OA
ATOM     43  C   UNL     1       6.969  -5.611  27.351  0.00  0.00    +0.277 C 
ENDBRANCH  36  42
ENDBRANCH  30  32
ENDBRANCH  29  30
ENDBRANCH  21  29
TORSDOF 9
ENDMDL
MODEL 9
REMARK VINA RESULT:      -6.7      2.322      4.679
REMARK  Name = 
REMARK  14 active torsions:
REMARK  status: ('A' for Active; 'I' for Inactive)
REMARK    1  A    between atoms: C_4  and  O_6
REMARK    2  A    between atoms: O_6  and  C_7
REMARK    3  A    between atoms: C_7  and  C_9
REMARK    4  A    between atoms: C_11  and  O_12
REMARK    5  A    between atoms: O_12  and  C_13
REMARK    6  A    between atoms: C_14  and  O_15
REMARK    7  A    between atoms: O_15  and  C_16
REMARK    8  A    between atoms: C_17  and  O_18
REMARK    9  A    between atoms: O_18  and  C_19
REMARK   10  A    between atoms: C_21  and  O_23
REMARK   11  A    between atoms: O_23  and  C_24
REMARK   12  A    between atoms: C_25  and  C_27
REMARK   13  A    between atoms: C_27  and  O_29
REMARK   14  A    between atoms: O_29  and  C_30
REMARK                            x       y       z     vdW  Elec       q    Type
REMARK                         _______ _______ _______ _____ _____    ______ ____
ROOT
ATOM      1  C   UNL     1       7.795  -2.034  22.113  0.00  0.00    +0.011 C 
ATOM      2  C   UNL     1       8.700  -0.803  22.189  0.00  0.00    +0.089 C 
ATOM      3  N   UNL     1       9.040  -0.632  23.588  0.00  0.00    -0.293 NA
ATOM      4  C   UNL     1      10.312   0.097  23.791  0.00  0.00    +0.090 C 
ATOM      5  C   UNL     1      10.260   1.577  23.373  0.00  0.00    +0.053 C 
ATOM      6  C   UNL     1       9.065   2.192  24.007  0.00  0.00    -0.016 A 
ATOM      7  C   UNL     1       8.906   3.520  24.476  0.00  0.00    +0.003 A 
ATOM      8  C   UNL     1       7.715   3.541  25.211  0.00  0.00    +0.047 A 
ATOM      9  C   UNL     1       7.276   4.672  25.896  0.00  0.00    +0.026 A 
ATOM     10  C   UNL     1       8.076   5.814  25.849  0.00  0.00    +0.002 A 
ATOM     11  C   UNL     1       9.265   5.831  25.122  0.00  0.00    +0.001 A 
ATOM     12  N   UNL     1       7.131   2.274  25.078  0.00  0.00    -0.356 N 
ATOM     13  H   UNL     1       6.271   1.997  25.532  0.00  0.00    +0.166 HD
ATOM     14  C   UNL     1       9.689   4.688  24.437  0.00  0.00    +0.010 A 
ATOM     15  C   UNL     1       7.968   1.426  24.390  0.00  0.00    +0.038 A 
ATOM     16  C   UNL     1       7.884  -0.107  24.336  0.00  0.00    +0.104 C 
ATOM     17  C   UNL     1       6.486  -0.760  23.904  0.00  0.00    +0.030 C 
ATOM     18  C   UNL     1       6.455  -2.007  22.883  0.00  0.00    +0.012 C 
ATOM     19  C   UNL     1       5.930  -3.611  23.172  0.00  0.00    +0.133 C 
ATOM     20  C   UNL     1       7.061  -4.701  23.522  0.00  0.00    +0.172 C 
ATOM     21  C   UNL     1       8.240  -3.846  23.964  0.00  0.00    +0.206 C 
ATOM     22  C   UNL     1       8.651  -3.202  22.602  0.00  0.00    +0.052 C 
ENDROOT
BRANCH  19  23
ATOM     23  C   UNL     1       4.770  -3.823  24.150  0.00  0.00    +0.313 C 
ATOM     24  O   UNL     1       3.921  -2.995  24.434  0.00  0.00    -0.250 OA
BRANCH  23  25
ATOM     25  O   UNL     1       4.795  -5.115  24.608  0.00  0.00    -0.468 OA
ATOM     26  C   UNL     1       3.856  -5.618  25.568  0.00  0.00    +0.280 C 
ENDBRANCH  23  25
ENDBRANCH  19  23
BRANCH  20  27
ATOM     27  O   UNL     1       7.422  -5.509  22.385  0.00  0.00    -0.375 OA
ATOM     28  C   UNL     1       6.393  -5.970  21.533  0.00  0.00    +0.194 C 
ENDBRANCH  20  27
BRANCH  21  29
ATOM     29  O   UNL     1       7.555  -3.061  25.029  0.00  0.00    -0.455 OA
BRANCH  29  30
ATOM     30  C   UNL     1       7.617  -3.198  26.367  0.00  0.00    +0.340 C 
ATOM     31  O   UNL     1       8.467  -3.824  26.980  0.00  0.00    -0.245 OA
BRANCH  30  32
ATOM     32  C   UNL     1       6.557  -2.328  27.033  0.00  0.00    +0.066 A 
ATOM     33  C   UNL     1       5.312  -2.785  27.464  0.00  0.00    +0.064 A 
ATOM     34  C   UNL     1       4.316  -1.906  27.980  0.00  0.00    +0.166 A 
ATOM     35  C   UNL     1       4.565  -0.517  28.076  0.00  0.00    +0.204 A 
ATOM     36  C   UNL     1       5.844  -0.057  27.677  0.00  0.00    +0.166 A 
ATOM     37  C   UNL     1       6.821  -0.966  27.184  0.00  0.00    +0.064 A 
BRANCH  34  38
ATOM     38  O   UNL     1       3.151  -2.570  28.306  0.00  0.00    -0.491 OA
ATOM     39  C   UNL     1       3.089  -3.372  29.484  0.00  0.00    +0.277 C 
ENDBRANCH  34  38
BRANCH  35  40
ATOM     40  O   UNL     1       3.527   0.263  28.520  0.00  0.00    -0.488 OA
ATOM     41  C   UNL     1       3.376   0.586  29.895  0.00  0.00    +0.277 C 
ENDBRANCH  35  40
BRANCH  36  42
ATOM     42  O   UNL     1       6.083   1.296  27.735  0.00  0.00    -0.491 OA
ATOM     43  C   UNL     1       6.930   1.775  28.771  0.00  0.00    +0.277 C 
ENDBRANCH  36  42
ENDBRANCH  30  32
ENDBRANCH  29  30
ENDBRANCH  21  29
TORSDOF 9
ENDMDL
