MODEL 1
REMARK VINA RESULT:      -6.6      0.000      0.000
REMARK  Name = 
REMARK  13 active torsions:
REMARK  status: ('A' for Active; 'I' for Inactive)
REMARK    1  A    between atoms: O_1  and  C_2
REMARK    2  A    between atoms: C_2  and  O_3
REMARK    3  A    between atoms: C_2  and  C_4
REMARK    4  A    between atoms: C_4  and  C_5
REMARK    5  A    between atoms: C_9  and  O_10
REMARK    6  A    between atoms: O_10  and  C_11
REMARK    7  A    between atoms: C_14  and  O_15
REMARK    8  A    between atoms: C_16  and  C_18
REMARK    9  A    between atoms: C_18  and  O_20
REMARK   10  A    between atoms: C_18  and  N_21
REMARK   11  A    between atoms: N_21  and  C_22
REMARK   12  A    between atoms: C_22  and  C_23
REMARK   13  A    between atoms: C_23  and  C_24
REMARK                            x       y       z     vdW  Elec       q    Type
REMARK                         _______ _______ _______ _____ _____    ______ ____
ROOT
ATOM      1  C   UNL     1       6.696  -3.282  26.668  0.00  0.00    +0.129 A 
ATOM      2  C   UNL     1       6.549  -4.661  26.506  0.00  0.00    +0.057 A 
ATOM      3  C   UNL     1       5.293  -5.277  26.686  0.00  0.00    +0.040 A 
ATOM      4  C   UNL     1       4.196  -4.457  26.983  0.00  0.00    +0.124 A 
ATOM      5  C   UNL     1       4.326  -3.070  27.063  0.00  0.00    +0.049 A 
ATOM      6  C   UNL     1       5.573  -2.479  26.873  0.00  0.00    +0.050 A 
ENDROOT
BRANCH   4   7
ATOM      7  O   UNL     1       2.977  -5.028  27.203  0.00  0.00    -0.506 OA
ATOM      8  H   UNL     1       2.773  -5.640  26.476  0.00  0.00    +0.292 HD
ENDBRANCH   4   7
BRANCH   1   9
ATOM      9  O   UNL     1       7.991  -2.809  26.682  0.00  0.00    -0.454 OA
BRANCH   9  14
ATOM     10  C   UNL     1       9.301  -0.917  23.165  0.00  0.00    -0.038 A 
ATOM     11  C   UNL     1       9.633  -2.250  23.442  0.00  0.00    +0.023 A 
ATOM     12  C   UNL     1       9.197  -2.852  24.630  0.00  0.00    +0.061 A 
ATOM     13 BR   UNL     1       9.695  -4.660  24.937  0.00  0.00    -0.046 Br
ATOM     14  C   UNL     1       8.441  -2.128  25.566  0.00  0.00    +0.156 A 
ATOM     15  C   UNL     1       8.221  -0.757  25.332  0.00  0.00    +0.061 A 
ATOM     16 BR   UNL     1       7.513   0.457  26.618  0.00  0.00    -0.046 Br
ATOM     17  C   UNL     1       8.602  -0.179  24.119  0.00  0.00    +0.023 A 
BRANCH  10  18
ATOM     18  C   UNL     1       9.785  -0.234  21.911  0.00  0.00    +0.123 C 
BRANCH  18  19
ATOM     19  C   UNL     1       9.242   1.201  21.831  0.00  0.00    +0.349 C 
BRANCH  19  20
ATOM     20  O   UNL     1      10.334   2.091  21.686  0.00  0.00    -0.507 OA
ATOM     21  H   UNL     1      10.420   2.258  20.731  0.00  0.00    +0.287 HD
ENDBRANCH  19  20
BRANCH  19  22
ATOM     22  O   UNL     1       8.345   1.387  20.752  0.00  0.00    -0.507 OA
ATOM     23  H   UNL     1       8.605   0.794  20.030  0.00  0.00    +0.287 HD
ENDBRANCH  19  22
ENDBRANCH  18  19
ENDBRANCH  10  18
ENDBRANCH   9  14
ENDBRANCH   1   9
BRANCH   3  24
ATOM     24  C   UNL     1       5.162  -6.783  26.600  0.00  0.00    +0.218 C 
BRANCH  24  25
ATOM     25  N   UNL     1       4.006  -7.250  25.849  0.00  0.00    -0.288 NA
ATOM     26  H   UNL     1       3.218  -6.662  26.103  0.00  0.00    +0.125 HD
BRANCH  25  27
ATOM     27  C   UNL     1       4.181  -7.273  24.395  0.00  0.00    +0.088 C 
BRANCH  27  28
ATOM     28  C   UNL     1       3.639  -6.026  23.682  0.00  0.00    +0.050 C 
BRANCH  28  29
ATOM     29  C   UNL     1       4.735  -5.153  23.122  0.00  0.00    -0.046 A 
ATOM     30  C   UNL     1       4.695  -3.763  23.300  0.00  0.00    +0.003 A 
ATOM     31  C   UNL     1       5.695  -2.955  22.760  0.00  0.00    +0.000 A 
ATOM     32  C   UNL     1       6.739  -3.533  22.037  0.00  0.00    +0.000 A 
ATOM     33  C   UNL     1       6.797  -4.912  21.867  0.00  0.00    +0.000 A 
ATOM     34  C   UNL     1       5.796  -5.723  22.409  0.00  0.00    +0.003 A 
ENDBRANCH  28  29
ENDBRANCH  27  28
ENDBRANCH  25  27
ENDBRANCH  24  25
BRANCH  24  35
ATOM     35  O   UNL     1       5.025  -7.277  27.925  0.00  0.00    -0.373 OA
ATOM     36  H   UNL     1       4.553  -6.580  28.409  0.00  0.00    +0.212 HD
ENDBRANCH  24  35
ENDBRANCH   3  24
TORSDOF 13
ENDMDL
MODEL 2
REMARK VINA RESULT:      -6.5      2.337      3.778
REMARK  Name = 
REMARK  13 active torsions:
REMARK  status: ('A' for Active; 'I' for Inactive)
REMARK    1  A    between atoms: O_1  and  C_2
REMARK    2  A    between atoms: C_2  and  O_3
REMARK    3  A    between atoms: C_2  and  C_4
REMARK    4  A    between atoms: C_4  and  C_5
REMARK    5  A    between atoms: C_9  and  O_10
REMARK    6  A    between atoms: O_10  and  C_11
REMARK    7  A    between atoms: C_14  and  O_15
REMARK    8  A    between atoms: C_16  and  C_18
REMARK    9  A    between atoms: C_18  and  O_20
REMARK   10  A    between atoms: C_18  and  N_21
REMARK   11  A    between atoms: N_21  and  C_22
REMARK   12  A    between atoms: C_22  and  C_23
REMARK   13  A    between atoms: C_23  and  C_24
REMARK                            x       y       z     vdW  Elec       q    Type
REMARK                         _______ _______ _______ _____ _____    ______ ____
ROOT
ATOM      1  C   UNL     1       8.189  -1.978  24.588  0.00  0.00    +0.129 A 
ATOM      2  C   UNL     1       7.454  -2.629  25.582  0.00  0.00    +0.057 A 
ATOM      3  C   UNL     1       7.854  -3.895  26.059  0.00  0.00    +0.040 A 
ATOM      4  C   UNL     1       9.030  -4.451  25.541  0.00  0.00    +0.124 A 
ATOM      5  C   UNL     1       9.809  -3.765  24.608  0.00  0.00    +0.049 A 
ATOM      6  C   UNL     1       9.404  -2.512  24.156  0.00  0.00    +0.050 A 
ENDROOT
BRANCH   4   7
ATOM      7  O   UNL     1       9.419  -5.692  25.953  0.00  0.00    -0.506 OA
ATOM      8  H   UNL     1       9.076  -6.359  25.334  0.00  0.00    +0.292 HD
ENDBRANCH   4   7
BRANCH   1   9
ATOM      9  O   UNL     1       7.605  -0.856  24.041  0.00  0.00    -0.454 OA
BRANCH   9  14
ATOM     10  C   UNL     1      10.088   2.510  23.638  0.00  0.00    -0.038 A 
ATOM     11  C   UNL     1       9.164   2.409  24.687  0.00  0.00    +0.023 A 
ATOM     12  C   UNL     1       8.336   1.282  24.788  0.00  0.00    +0.061 A 
ATOM     13 BR   UNL     1       7.102   1.223  26.232  0.00  0.00    -0.046 Br
ATOM     14  C   UNL     1       8.405   0.253  23.837  0.00  0.00    +0.156 A 
ATOM     15  C   UNL     1       9.250   0.426  22.723  0.00  0.00    +0.061 A 
ATOM     16 BR   UNL     1       9.240  -0.689  21.178  0.00  0.00    -0.046 Br
ATOM     17  C   UNL     1      10.118   1.518  22.660  0.00  0.00    +0.023 A 
BRANCH  10  18
ATOM     18  C   UNL     1      10.968   3.726  23.485  0.00  0.00    +0.123 C 
BRANCH  18  19
ATOM     19  C   UNL     1      10.215   4.996  23.905  0.00  0.00    +0.349 C 
BRANCH  19  20
ATOM     20  O   UNL     1      11.159   6.024  24.146  0.00  0.00    -0.507 OA
ATOM     21  H   UNL     1      10.644   6.837  24.285  0.00  0.00    +0.287 HD
ENDBRANCH  19  20
BRANCH  19  22
ATOM     22  O   UNL     1       9.292   5.435  22.924  0.00  0.00    -0.507 OA
ATOM     23  H   UNL     1       9.559   6.318  22.625  0.00  0.00    +0.287 HD
ENDBRANCH  19  22
ENDBRANCH  18  19
ENDBRANCH  10  18
ENDBRANCH   9  14
ENDBRANCH   1   9
BRANCH   3  24
ATOM     24  C   UNL     1       7.000  -4.633  27.069  0.00  0.00    +0.218 C 
BRANCH  24  25
ATOM     25  N   UNL     1       6.537  -5.942  26.632  0.00  0.00    -0.288 NA
ATOM     26  H   UNL     1       6.698  -6.594  27.393  0.00  0.00    +0.125 HD
BRANCH  25  27
ATOM     27  C   UNL     1       5.138  -5.991  26.202  0.00  0.00    +0.088 C 
BRANCH  27  28
ATOM     28  C   UNL     1       4.948  -6.445  24.748  0.00  0.00    +0.050 C 
BRANCH  28  29
ATOM     29  C   UNL     1       5.486  -5.448  23.751  0.00  0.00    -0.046 A 
ATOM     30  C   UNL     1       4.828  -4.228  23.543  0.00  0.00    +0.003 A 
ATOM     31  C   UNL     1       5.313  -3.318  22.603  0.00  0.00    +0.000 A 
ATOM     32  C   UNL     1       6.456  -3.625  21.866  0.00  0.00    +0.000 A 
ATOM     33  C   UNL     1       7.126  -4.827  22.075  0.00  0.00    +0.000 A 
ATOM     34  C   UNL     1       6.641  -5.739  23.017  0.00  0.00    +0.003 A 
ENDBRANCH  28  29
ENDBRANCH  27  28
ENDBRANCH  25  27
ENDBRANCH  24  25
BRANCH  24  35
ATOM     35  O   UNL     1       5.844  -3.842  27.310  0.00  0.00    -0.373 OA
ATOM     36  H   UNL     1       5.137  -4.478  27.510  0.00  0.00    +0.212 HD
ENDBRANCH  24  35
ENDBRANCH   3  24
TORSDOF 13
ENDMDL
MODEL 3
REMARK VINA RESULT:      -6.4      2.156      3.276
REMARK  Name = 
REMARK  13 active torsions:
REMARK  status: ('A' for Active; 'I' for Inactive)
REMARK    1  A    between atoms: O_1  and  C_2
REMARK    2  A    between atoms: C_2  and  O_3
REMARK    3  A    between atoms: C_2  and  C_4
REMARK    4  A    between atoms: C_4  and  C_5
REMARK    5  A    between atoms: C_9  and  O_10
REMARK    6  A    between atoms: O_10  and  C_11
REMARK    7  A    between atoms: C_14  and  O_15
REMARK    8  A    between atoms: C_16  and  C_18
REMARK    9  A    between atoms: C_18  and  O_20
REMARK   10  A    between atoms: C_18  and  N_21
REMARK   11  A    between atoms: N_21  and  C_22
REMARK   12  A    between atoms: C_22  and  C_23
REMARK   13  A    between atoms: C_23  and  C_24
REMARK                            x       y       z     vdW  Elec       q    Type
REMARK                         _______ _______ _______ _____ _____    ______ ____
ROOT
ATOM      1  C   UNL     1       7.909  -2.301  24.555  0.00  0.00    +0.129 A 
ATOM      2  C   UNL     1       7.011  -2.894  25.444  0.00  0.00    +0.057 A 
ATOM      3  C   UNL     1       7.299  -4.145  26.029  0.00  0.00    +0.040 A 
ATOM      4  C   UNL     1       8.529  -4.744  25.728  0.00  0.00    +0.124 A 
ATOM      5  C   UNL     1       9.462  -4.113  24.904  0.00  0.00    +0.049 A 
ATOM      6  C   UNL     1       9.164  -2.874  24.343  0.00  0.00    +0.050 A 
ENDROOT
BRANCH   4   7
ATOM      7  O   UNL     1       8.818  -5.972  26.246  0.00  0.00    -0.506 OA
ATOM      8  H   UNL     1       8.028  -6.329  26.687  0.00  0.00    +0.292 HD
ENDBRANCH   4   7
BRANCH   1   9
ATOM      9  O   UNL     1       7.447  -1.193  23.877  0.00  0.00    -0.454 OA
BRANCH   9  14
ATOM     10  C   UNL     1       9.757   2.315  23.742  0.00  0.00    -0.038 A 
ATOM     11  C   UNL     1       9.844   1.347  22.733  0.00  0.00    +0.023 A 
ATOM     12  C   UNL     1       9.074   0.178  22.811  0.00  0.00    +0.061 A 
ATOM     13 BR   UNL     1       9.255  -1.091  21.408  0.00  0.00    -0.046 Br
ATOM     14  C   UNL     1       8.223  -0.050  23.904  0.00  0.00    +0.156 A 
ATOM     15  C   UNL     1       8.239   0.873  24.968  0.00  0.00    +0.061 A 
ATOM     16 BR   UNL     1       7.417   0.580  26.662  0.00  0.00    -0.046 Br
ATOM     17  C   UNL     1       8.958   2.065  24.857  0.00  0.00    +0.023 A 
BRANCH  10  18
ATOM     18  C   UNL     1      10.598   3.566  23.702  0.00  0.00    +0.123 C 
BRANCH  18  19
ATOM     19  C   UNL     1       9.707   4.816  23.638  0.00  0.00    +0.349 C 
BRANCH  19  20
ATOM     20  O   UNL     1      10.489   5.906  23.184  0.00  0.00    -0.507 OA
ATOM     21  H   UNL     1      10.714   5.710  22.257  0.00  0.00    +0.287 HD
ENDBRANCH  19  20
BRANCH  19  22
ATOM     22  O   UNL     1       8.596   4.652  22.776  0.00  0.00    -0.507 OA
ATOM     23  H   UNL     1       8.015   3.972  23.150  0.00  0.00    +0.287 HD
ENDBRANCH  19  22
ENDBRANCH  18  19
ENDBRANCH  10  18
ENDBRANCH   9  14
ENDBRANCH   1   9
BRANCH   3  24
ATOM     24  C   UNL     1       6.278  -4.823  26.920  0.00  0.00    +0.218 C 
BRANCH  24  25
ATOM     25  N   UNL     1       5.927  -6.177  26.518  0.00  0.00    -0.288 NA
ATOM     26  H   UNL     1       5.937  -6.757  27.352  0.00  0.00    +0.125 HD
BRANCH  25  27
ATOM     27  C   UNL     1       4.644  -6.301  25.823  0.00  0.00    +0.088 C 
BRANCH  27  28
ATOM     28  C   UNL     1       4.763  -6.818  24.383  0.00  0.00    +0.050 C 
BRANCH  28  29
ATOM     29  C   UNL     1       5.324  -5.783  23.438  0.00  0.00    -0.046 A 
ATOM     30  C   UNL     1       6.521  -6.025  22.749  0.00  0.00    +0.003 A 
ATOM     31  C   UNL     1       7.051  -5.058  21.896  0.00  0.00    +0.000 A 
ATOM     32  C   UNL     1       6.388  -3.843  21.729  0.00  0.00    +0.000 A 
ATOM     33  C   UNL     1       5.191  -3.596  22.395  0.00  0.00    +0.000 A 
ATOM     34  C   UNL     1       4.659  -4.566  23.250  0.00  0.00    +0.003 A 
ENDBRANCH  28  29
ENDBRANCH  27  28
ENDBRANCH  25  27
ENDBRANCH  24  25
BRANCH  24  35
ATOM     35  O   UNL     1       5.087  -4.051  26.868  0.00  0.00    -0.373 OA
ATOM     36  H   UNL     1       4.434  -4.554  27.382  0.00  0.00    +0.212 HD
ENDBRANCH  24  35
ENDBRANCH   3  24
TORSDOF 13
ENDMDL
MODEL 4
REMARK VINA RESULT:      -6.3      2.966      7.395
REMARK  Name = 
REMARK  13 active torsions:
REMARK  status: ('A' for Active; 'I' for Inactive)
REMARK    1  A    between atoms: O_1  and  C_2
REMARK    2  A    between atoms: C_2  and  O_3
REMARK    3  A    between atoms: C_2  and  C_4
REMARK    4  A    between atoms: C_4  and  C_5
REMARK    5  A    between atoms: C_9  and  O_10
REMARK    6  A    between atoms: O_10  and  C_11
REMARK    7  A    between atoms: C_14  and  O_15
REMARK    8  A    between atoms: C_16  and  C_18
REMARK    9  A    between atoms: C_18  and  O_20
REMARK   10  A    between atoms: C_18  and  N_21
REMARK   11  A    between atoms: N_21  and  C_22
REMARK   12  A    between atoms: C_22  and  C_23
REMARK   13  A    between atoms: C_23  and  C_24
REMARK                            x       y       z     vdW  Elec       q    Type
REMARK                         _______ _______ _______ _____ _____    ______ ____
ROOT
ATOM      1  C   UNL     1       8.379  -1.798  24.185  0.00  0.00    +0.129 A 
ATOM      2  C   UNL     1       7.168  -1.101  24.154  0.00  0.00    +0.057 A 
ATOM      3  C   UNL     1       7.027   0.125  24.837  0.00  0.00    +0.040 A 
ATOM      4  C   UNL     1       8.147   0.640  25.500  0.00  0.00    +0.124 A 
ATOM      5  C   UNL     1       9.379  -0.013  25.463  0.00  0.00    +0.049 A 
ATOM      6  C   UNL     1       9.502  -1.218  24.776  0.00  0.00    +0.050 A 
ENDROOT
BRANCH   4   7
ATOM      7  O   UNL     1       8.029   1.804  26.203  0.00  0.00    -0.506 OA
ATOM      8  H   UNL     1       7.455   2.418  25.714  0.00  0.00    +0.292 HD
ENDBRANCH   4   7
BRANCH   1   9
ATOM      9  O   UNL     1       8.354  -3.077  23.673  0.00  0.00    -0.454 OA
BRANCH   9  14
ATOM     10  C   UNL     1       5.647  -5.719  25.503  0.00  0.00    -0.038 A 
ATOM     11  C   UNL     1       6.966  -5.598  25.958  0.00  0.00    +0.023 A 
ATOM     12  C   UNL     1       7.854  -4.721  25.319  0.00  0.00    +0.061 A 
ATOM     13 BR   UNL     1       9.629  -4.619  25.990  0.00  0.00    -0.046 Br
ATOM     14  C   UNL     1       7.444  -3.969  24.207  0.00  0.00    +0.156 A 
ATOM     15  C   UNL     1       6.155  -4.194  23.686  0.00  0.00    +0.061 A 
ATOM     16 BR   UNL     1       5.536  -3.525  22.013  0.00  0.00    -0.046 Br
ATOM     17  C   UNL     1       5.254  -5.019  24.363  0.00  0.00    +0.023 A 
BRANCH  10  18
ATOM     18  C   UNL     1       4.680  -6.679  26.150  0.00  0.00    +0.123 C 
BRANCH  18  19
ATOM     19  C   UNL     1       4.721  -6.541  27.678  0.00  0.00    +0.349 C 
BRANCH  19  20
ATOM     20  O   UNL     1       3.391  -6.482  28.163  0.00  0.00    -0.507 OA
ATOM     21  H   UNL     1       3.059  -5.597  27.933  0.00  0.00    +0.287 HD
ENDBRANCH  19  20
BRANCH  19  22
ATOM     22  O   UNL     1       5.396  -7.615  28.307  0.00  0.00    -0.507 OA
ATOM     23  H   UNL     1       4.806  -8.001  28.972  0.00  0.00    +0.287 HD
ENDBRANCH  19  22
ENDBRANCH  18  19
ENDBRANCH  10  18
ENDBRANCH   9  14
ENDBRANCH   1   9
BRANCH   3  24
ATOM     24  C   UNL     1       5.684   0.825  24.874  0.00  0.00    +0.218 C 
BRANCH  24  25
ATOM     25  N   UNL     1       5.740   2.257  24.617  0.00  0.00    -0.288 NA
ATOM     26  H   UNL     1       6.680   2.572  24.839  0.00  0.00    +0.125 HD
BRANCH  25  27
ATOM     27  C   UNL     1       5.373   2.655  23.256  0.00  0.00    +0.088 C 
BRANCH  27  28
ATOM     28  C   UNL     1       6.438   3.503  22.547  0.00  0.00    +0.050 C 
BRANCH  28  29
ATOM     29  C   UNL     1       7.753   2.777  22.392  0.00  0.00    -0.046 A 
ATOM     30  C   UNL     1       7.840   1.632  21.588  0.00  0.00    +0.003 A 
ATOM     31  C   UNL     1       9.049   0.948  21.467  0.00  0.00    +0.000 A 
ATOM     32  C   UNL     1      10.176   1.404  22.150  0.00  0.00    +0.000 A 
ATOM     33  C   UNL     1      10.105   2.548  22.939  0.00  0.00    +0.000 A 
ATOM     34  C   UNL     1       8.893   3.235  23.061  0.00  0.00    +0.003 A 
ENDBRANCH  28  29
ENDBRANCH  27  28
ENDBRANCH  25  27
ENDBRANCH  24  25
BRANCH  24  35
ATOM     35  O   UNL     1       5.151   0.657  26.180  0.00  0.00    -0.373 OA
ATOM     36  H   UNL     1       4.611   1.449  26.339  0.00  0.00    +0.212 HD
ENDBRANCH  24  35
ENDBRANCH   3  24
TORSDOF 13
ENDMDL
MODEL 5
REMARK VINA RESULT:      -6.2      3.023      7.691
REMARK  Name = 
REMARK  13 active torsions:
REMARK  status: ('A' for Active; 'I' for Inactive)
REMARK    1  A    between atoms: O_1  and  C_2
REMARK    2  A    between atoms: C_2  and  O_3
REMARK    3  A    between atoms: C_2  and  C_4
REMARK    4  A    between atoms: C_4  and  C_5
REMARK    5  A    between atoms: C_9  and  O_10
REMARK    6  A    between atoms: O_10  and  C_11
REMARK    7  A    between atoms: C_14  and  O_15
REMARK    8  A    between atoms: C_16  and  C_18
REMARK    9  A    between atoms: C_18  and  O_20
REMARK   10  A    between atoms: C_18  and  N_21
REMARK   11  A    between atoms: N_21  and  C_22
REMARK   12  A    between atoms: C_22  and  C_23
REMARK   13  A    between atoms: C_23  and  C_24
REMARK                            x       y       z     vdW  Elec       q    Type
REMARK                         _______ _______ _______ _____ _____    ______ ____
ROOT
ATOM      1  C   UNL     1       6.915  -1.159  25.374  0.00  0.00    +0.129 A 
ATOM      2  C   UNL     1       7.046   0.207  25.633  0.00  0.00    +0.057 A 
ATOM      3  C   UNL     1       6.919   1.151  24.593  0.00  0.00    +0.040 A 
ATOM      4  C   UNL     1       6.612   0.679  23.311  0.00  0.00    +0.124 A 
ATOM      5  C   UNL     1       6.399  -0.679  23.067  0.00  0.00    +0.049 A 
ATOM      6  C   UNL     1       6.520  -1.595  24.109  0.00  0.00    +0.050 A 
ENDROOT
BRANCH   4   7
ATOM      7  O   UNL     1       6.523   1.564  22.277  0.00  0.00    -0.506 OA
ATOM      8  H   UNL     1       6.611   1.085  21.435  0.00  0.00    +0.292 HD
ENDBRANCH   4   7
BRANCH   1   9
ATOM      9  O   UNL     1       7.265  -2.006  26.404  0.00  0.00    -0.454 OA
BRANCH   9  14
ATOM     10  C   UNL     1       5.408  -5.776  26.363  0.00  0.00    -0.038 A 
ATOM     11  C   UNL     1       4.815  -4.678  27.001  0.00  0.00    +0.023 A 
ATOM     12  C   UNL     1       5.463  -3.436  27.014  0.00  0.00    +0.061 A 
ATOM     13 BR   UNL     1       4.599  -1.999  27.908  0.00  0.00    -0.046 Br
ATOM     14  C   UNL     1       6.719  -3.276  26.408  0.00  0.00    +0.156 A 
ATOM     15  C   UNL     1       7.358  -4.415  25.880  0.00  0.00    +0.061 A 
ATOM     16 BR   UNL     1       9.178  -4.469  25.319  0.00  0.00    -0.046 Br
ATOM     17  C   UNL     1       6.681  -5.635  25.813  0.00  0.00    +0.023 A 
BRANCH  10  18
ATOM     18  C   UNL     1       4.749  -7.132  26.362  0.00  0.00    +0.123 C 
BRANCH  18  19
ATOM     19  C   UNL     1       3.793  -7.269  25.168  0.00  0.00    +0.349 C 
BRANCH  19  20
ATOM     20  O   UNL     1       4.562  -7.403  23.986  0.00  0.00    -0.507 OA
ATOM     21  H   UNL     1       3.924  -7.521  23.261  0.00  0.00    +0.287 HD
ENDBRANCH  19  20
BRANCH  19  22
ATOM     22  O   UNL     1       2.926  -8.383  25.286  0.00  0.00    -0.507 OA
ATOM     23  H   UNL     1       2.338  -8.235  26.042  0.00  0.00    +0.287 HD
ENDBRANCH  19  22
ENDBRANCH  18  19
ENDBRANCH  10  18
ENDBRANCH   9  14
ENDBRANCH   1   9
BRANCH   3  24
ATOM     24  C   UNL     1       7.154   2.622  24.866  0.00  0.00    +0.218 C 
BRANCH  24  25
ATOM     25  N   UNL     1       7.973   3.301  23.872  0.00  0.00    -0.288 NA
ATOM     26  H   UNL     1       7.497   4.161  23.617  0.00  0.00    +0.125 HD
BRANCH  25  27
ATOM     27  C   UNL     1       9.348   3.581  24.290  0.00  0.00    +0.088 C 
BRANCH  27  28
ATOM     28  C   UNL     1      10.415   3.003  23.351  0.00  0.00    +0.050 C 
BRANCH  28  29
ATOM     29  C   UNL     1      10.264   1.515  23.143  0.00  0.00    -0.046 A 
ATOM     30  C   UNL     1      10.458   0.627  24.210  0.00  0.00    +0.003 A 
ATOM     31  C   UNL     1      10.343  -0.749  24.011  0.00  0.00    +0.000 A 
ATOM     32  C   UNL     1      10.036  -1.242  22.743  0.00  0.00    +0.000 A 
ATOM     33  C   UNL     1       9.826  -0.369  21.680  0.00  0.00    +0.000 A 
ATOM     34  C   UNL     1       9.941   1.009  21.879  0.00  0.00    +0.003 A 
ENDBRANCH  28  29
ENDBRANCH  27  28
ENDBRANCH  25  27
ENDBRANCH  24  25
BRANCH  24  35
ATOM     35  O   UNL     1       7.839   2.722  26.107  0.00  0.00    -0.373 OA
ATOM     36  H   UNL     1       8.395   3.515  26.028  0.00  0.00    +0.212 HD
ENDBRANCH  24  35
ENDBRANCH   3  24
TORSDOF 13
ENDMDL
MODEL 6
REMARK VINA RESULT:      -6.1      3.127      4.747
REMARK  Name = 
REMARK  13 active torsions:
REMARK  status: ('A' for Active; 'I' for Inactive)
REMARK    1  A    between atoms: O_1  and  C_2
REMARK    2  A    between atoms: C_2  and  O_3
REMARK    3  A    between atoms: C_2  and  C_4
REMARK    4  A    between atoms: C_4  and  C_5
REMARK    5  A    between atoms: C_9  and  O_10
REMARK    6  A    between atoms: O_10  and  C_11
REMARK    7  A    between atoms: C_14  and  O_15
REMARK    8  A    between atoms: C_16  and  C_18
REMARK    9  A    between atoms: C_18  and  O_20
REMARK   10  A    between atoms: C_18  and  N_21
REMARK   11  A    between atoms: N_21  and  C_22
REMARK   12  A    between atoms: C_22  and  C_23
REMARK   13  A    between atoms: C_23  and  C_24
REMARK                            x       y       z     vdW  Elec       q    Type
REMARK                         _______ _______ _______ _____ _____    ______ ____
ROOT
ATOM      1  C   UNL     1       8.644  -1.770  23.736  0.00  0.00    +0.129 A 
ATOM      2  C   UNL     1       9.095  -2.809  24.551  0.00  0.00    +0.057 A 
ATOM      3  C   UNL     1       8.691  -4.139  24.312  0.00  0.00    +0.040 A 
ATOM      4  C   UNL     1       7.866  -4.386  23.207  0.00  0.00    +0.124 A 
ATOM      5  C   UNL     1       7.482  -3.360  22.343  0.00  0.00    +0.049 A 
ATOM      6  C   UNL     1       7.898  -2.054  22.590  0.00  0.00    +0.050 A 
ENDROOT
BRANCH   4   7
ATOM      7  O   UNL     1       7.426  -5.656  22.973  0.00  0.00    -0.506 OA
ATOM      8  H   UNL     1       6.997  -5.999  23.775  0.00  0.00    +0.292 HD
ENDBRANCH   4   7
BRANCH   1   9
ATOM      9  O   UNL     1       8.919  -0.492  24.175  0.00  0.00    -0.454 OA
BRANCH   9  14
ATOM     10  C   UNL     1       5.780   2.288  23.897  0.00  0.00    -0.038 A 
ATOM     11  C   UNL     1       6.865   2.324  23.011  0.00  0.00    +0.023 A 
ATOM     12  C   UNL     1       7.907   1.395  23.137  0.00  0.00    +0.061 A 
ATOM     13 BR   UNL     1       9.348   1.515  21.904  0.00  0.00    -0.046 Br
ATOM     14  C   UNL     1       7.890   0.431  24.157  0.00  0.00    +0.156 A 
ATOM     15  C   UNL     1       6.857   0.486  25.112  0.00  0.00    +0.061 A 
ATOM     16 BR   UNL     1       6.835  -0.510  26.736  0.00  0.00    -0.046 Br
ATOM     17  C   UNL     1       5.789   1.371  24.946  0.00  0.00    +0.023 A 
BRANCH  10  18
ATOM     18  C   UNL     1       4.662   3.297  23.807  0.00  0.00    +0.123 C 
BRANCH  18  19
ATOM     19  C   UNL     1       4.107   3.364  22.376  0.00  0.00    +0.349 C 
BRANCH  19  20
ATOM     20  O   UNL     1       2.854   2.703  22.345  0.00  0.00    -0.507 OA
ATOM     21  H   UNL     1       3.022   1.792  22.642  0.00  0.00    +0.287 HD
ENDBRANCH  19  20
BRANCH  19  22
ATOM     22  O   UNL     1       3.942   4.692  21.915  0.00  0.00    -0.507 OA
ATOM     23  H   UNL     1       4.245   5.298  22.609  0.00  0.00    +0.287 HD
ENDBRANCH  19  22
ENDBRANCH  18  19
ENDBRANCH  10  18
ENDBRANCH   9  14
ENDBRANCH   1   9
BRANCH   3  24
ATOM     24  C   UNL     1       9.111  -5.246  25.257  0.00  0.00    +0.218 C 
BRANCH  24  25
ATOM     25  N   UNL     1       8.853  -4.973  26.663  0.00  0.00    -0.288 NA
ATOM     26  H   UNL     1       8.915  -3.968  26.797  0.00  0.00    +0.125 HD
BRANCH  25  27
ATOM     27  C   UNL     1       7.574  -5.480  27.166  0.00  0.00    +0.088 C 
BRANCH  27  28
ATOM     28  C   UNL     1       6.443  -4.443  27.148  0.00  0.00    +0.050 C 
BRANCH  28  29
ATOM     29  C   UNL     1       5.518  -4.611  25.966  0.00  0.00    -0.046 A 
ATOM     30  C   UNL     1       5.124  -5.890  25.551  0.00  0.00    +0.003 A 
ATOM     31  C   UNL     1       4.290  -6.045  24.444  0.00  0.00    +0.000 A 
ATOM     32  C   UNL     1       3.849  -4.922  23.746  0.00  0.00    +0.000 A 
ATOM     33  C   UNL     1       4.222  -3.646  24.157  0.00  0.00    +0.000 A 
ATOM     34  C   UNL     1       5.057  -3.490  25.267  0.00  0.00    +0.003 A 
ENDBRANCH  28  29
ENDBRANCH  27  28
ENDBRANCH  25  27
ENDBRANCH  24  25
BRANCH  24  35
ATOM     35  O   UNL     1      10.515  -5.417  25.116  0.00  0.00    -0.373 OA
ATOM     36  H   UNL     1      10.629  -5.927  24.298  0.00  0.00    +0.212 HD
ENDBRANCH  24  35
ENDBRANCH   3  24
TORSDOF 13
ENDMDL
MODEL 7
REMARK VINA RESULT:      -6.1      2.374      3.694
REMARK  Name = 
REMARK  13 active torsions:
REMARK  status: ('A' for Active; 'I' for Inactive)
REMARK    1  A    between atoms: O_1  and  C_2
REMARK    2  A    between atoms: C_2  and  O_3
REMARK    3  A    between atoms: C_2  and  C_4
REMARK    4  A    between atoms: C_4  and  C_5
REMARK    5  A    between atoms: C_9  and  O_10
REMARK    6  A    between atoms: O_10  and  C_11
REMARK    7  A    between atoms: C_14  and  O_15
REMARK    8  A    between atoms: C_16  and  C_18
REMARK    9  A    between atoms: C_18  and  O_20
REMARK   10  A    between atoms: C_18  and  N_21
REMARK   11  A    between atoms: N_21  and  C_22
REMARK   12  A    between atoms: C_22  and  C_23
REMARK   13  A    between atoms: C_23  and  C_24
REMARK                            x       y       z     vdW  Elec       q    Type
REMARK                         _______ _______ _______ _____ _____    ______ ____
ROOT
ATOM      1  C   UNL     1       8.806  -1.713  25.513  0.00  0.00    +0.129 A 
ATOM      2  C   UNL     1       8.278  -2.705  26.343  0.00  0.00    +0.057 A 
ATOM      3  C   UNL     1       8.250  -4.051  25.926  0.00  0.00    +0.040 A 
ATOM      4  C   UNL     1       8.810  -4.366  24.681  0.00  0.00    +0.124 A 
ATOM      5  C   UNL     1       9.412  -3.389  23.887  0.00  0.00    +0.049 A 
ATOM      6  C   UNL     1       9.438  -2.065  24.319  0.00  0.00    +0.050 A 
ENDROOT
BRANCH   4   7
ATOM      7  O   UNL     1       8.761  -5.653  24.233  0.00  0.00    -0.506 OA
ATOM      8  H   UNL     1       8.946  -5.669  23.278  0.00  0.00    +0.292 HD
ENDBRANCH   4   7
BRANCH   1   9
ATOM      9  O   UNL     1       8.595  -0.411  25.914  0.00  0.00    -0.454 OA
BRANCH   9  14
ATOM     10  C   UNL     1       7.055   2.179  22.985  0.00  0.00    -0.038 A 
ATOM     11  C   UNL     1       8.434   2.072  23.210  0.00  0.00    +0.023 A 
ATOM     12  C   UNL     1       8.920   1.213  24.205  0.00  0.00    +0.061 A 
ATOM     13 BR   UNL     1      10.802   1.130  24.456  0.00  0.00    -0.046 Br
ATOM     14  C   UNL     1       8.039   0.464  25.000  0.00  0.00    +0.156 A 
ATOM     15  C   UNL     1       6.655   0.675  24.846  0.00  0.00    +0.061 A 
ATOM     16 BR   UNL     1       5.323   0.011  26.036  0.00  0.00    -0.046 Br
ATOM     17  C   UNL     1       6.175   1.483  23.812  0.00  0.00    +0.023 A 
BRANCH  10  18
ATOM     18  C   UNL     1       6.502   3.121  21.945  0.00  0.00    +0.123 C 
BRANCH  18  19
ATOM     19  C   UNL     1       6.523   4.568  22.458  0.00  0.00    +0.349 C 
BRANCH  19  20
ATOM     20  O   UNL     1       7.419   5.319  21.658  0.00  0.00    -0.507 OA
ATOM     21  H   UNL     1       7.421   4.893  20.783  0.00  0.00    +0.287 HD
ENDBRANCH  19  20
BRANCH  19  22
ATOM     22  O   UNL     1       5.247   5.180  22.424  0.00  0.00    -0.507 OA
ATOM     23  H   UNL     1       5.291   5.948  21.834  0.00  0.00    +0.287 HD
ENDBRANCH  19  22
ENDBRANCH  18  19
ENDBRANCH  10  18
ENDBRANCH   9  14
ENDBRANCH   1   9
BRANCH   3  24
ATOM     24  C   UNL     1       7.593  -5.104  26.794  0.00  0.00    +0.218 C 
BRANCH  24  25
ATOM     25  N   UNL     1       6.670  -5.981  26.089  0.00  0.00    -0.288 NA
ATOM     26  H   UNL     1       6.842  -6.930  26.410  0.00  0.00    +0.125 HD
BRANCH  25  27
ATOM     27  C   UNL     1       5.254  -5.638  26.241  0.00  0.00    +0.088 C 
BRANCH  27  28
ATOM     28  C   UNL     1       4.472  -5.621  24.921  0.00  0.00    +0.050 C 
BRANCH  28  29
ATOM     29  C   UNL     1       5.111  -4.737  23.877  0.00  0.00    -0.046 A 
ATOM     30  C   UNL     1       5.633  -5.293  22.700  0.00  0.00    +0.003 A 
ATOM     31  C   UNL     1       6.245  -4.478  21.749  0.00  0.00    +0.000 A 
ATOM     32  C   UNL     1       6.341  -3.104  21.970  0.00  0.00    +0.000 A 
ATOM     33  C   UNL     1       5.814  -2.540  23.127  0.00  0.00    +0.000 A 
ATOM     34  C   UNL     1       5.199  -3.356  24.081  0.00  0.00    +0.003 A 
ENDBRANCH  28  29
ENDBRANCH  27  28
ENDBRANCH  25  27
ENDBRANCH  24  25
BRANCH  24  35
ATOM     35  O   UNL     1       6.843  -4.427  27.793  0.00  0.00    -0.373 OA
ATOM     36  H   UNL     1       7.275  -3.563  27.894  0.00  0.00    +0.212 HD
ENDBRANCH  24  35
ENDBRANCH   3  24
TORSDOF 13
ENDMDL
MODEL 8
REMARK VINA RESULT:      -6.1      3.230      7.942
REMARK  Name = 
REMARK  13 active torsions:
REMARK  status: ('A' for Active; 'I' for Inactive)
REMARK    1  A    between atoms: O_1  and  C_2
REMARK    2  A    between atoms: C_2  and  O_3
REMARK    3  A    between atoms: C_2  and  C_4
REMARK    4  A    between atoms: C_4  and  C_5
REMARK    5  A    between atoms: C_9  and  O_10
REMARK    6  A    between atoms: O_10  and  C_11
REMARK    7  A    between atoms: C_14  and  O_15
REMARK    8  A    between atoms: C_16  and  C_18
REMARK    9  A    between atoms: C_18  and  O_20
REMARK   10  A    between atoms: C_18  and  N_21
REMARK   11  A    between atoms: N_21  and  C_22
REMARK   12  A    between atoms: C_22  and  C_23
REMARK   13  A    between atoms: C_23  and  C_24
REMARK                            x       y       z     vdW  Elec       q    Type
REMARK                         _______ _______ _______ _____ _____    ______ ____
ROOT
ATOM      1  C   UNL     1       7.281  -0.557  25.253  0.00  0.00    +0.129 A 
ATOM      2  C   UNL     1       7.335   0.796  25.596  0.00  0.00    +0.057 A 
ATOM      3  C   UNL     1       7.026   1.792  24.647  0.00  0.00    +0.040 A 
ATOM      4  C   UNL     1       6.618   1.380  23.372  0.00  0.00    +0.124 A 
ATOM      5  C   UNL     1       6.484   0.029  23.052  0.00  0.00    +0.049 A 
ATOM      6  C   UNL     1       6.785  -0.941  24.005  0.00  0.00    +0.050 A 
ENDROOT
BRANCH   4   7
ATOM      7  O   UNL     1       6.352   2.321  22.420  0.00  0.00    -0.506 OA
ATOM      8  H   UNL     1       7.010   3.034  22.480  0.00  0.00    +0.292 HD
ENDBRANCH   4   7
BRANCH   1   9
ATOM      9  O   UNL     1       7.803  -1.437  26.175  0.00  0.00    -0.454 OA
BRANCH   9  14
ATOM     10  C   UNL     1       5.932  -5.131  26.891  0.00  0.00    -0.038 A 
ATOM     11  C   UNL     1       7.098  -5.043  26.118  0.00  0.00    +0.023 A 
ATOM     12  C   UNL     1       7.692  -3.796  25.881  0.00  0.00    +0.061 A 
ATOM     13 BR   UNL     1       9.265  -3.758  24.816  0.00  0.00    -0.046 Br
ATOM     14  C   UNL     1       7.123  -2.621  26.395  0.00  0.00    +0.156 A 
ATOM     15  C   UNL     1       5.887  -2.712  27.063  0.00  0.00    +0.061 A 
ATOM     16 BR   UNL     1       4.805  -1.218  27.539  0.00  0.00    -0.046 Br
ATOM     17  C   UNL     1       5.332  -3.961  27.352  0.00  0.00    +0.023 A 
BRANCH  10  18
ATOM     18  C   UNL     1       5.252  -6.456  27.134  0.00  0.00    +0.123 C 
BRANCH  18  19
ATOM     19  C   UNL     1       5.260  -6.802  28.630  0.00  0.00    +0.349 C 
BRANCH  19  20
ATOM     20  O   UNL     1       4.113  -7.582  28.920  0.00  0.00    -0.507 OA
ATOM     21  H   UNL     1       4.255  -7.949  29.810  0.00  0.00    +0.287 HD
ENDBRANCH  19  20
BRANCH  19  22
ATOM     22  O   UNL     1       6.417  -7.517  29.021  0.00  0.00    -0.507 OA
ATOM     23  H   UNL     1       7.166  -7.201  28.492  0.00  0.00    +0.287 HD
ENDBRANCH  19  22
ENDBRANCH  18  19
ENDBRANCH  10  18
ENDBRANCH   9  14
ENDBRANCH   1   9
BRANCH   3  24
ATOM     24  C   UNL     1       7.177   3.257  25.002  0.00  0.00    +0.218 C 
BRANCH  24  25
ATOM     25  N   UNL     1       7.979   4.028  24.065  0.00  0.00    -0.288 NA
ATOM     26  H   UNL     1       7.519   4.923  23.931  0.00  0.00    +0.125 HD
BRANCH  25  27
ATOM     27  C   UNL     1       9.375   4.225  24.463  0.00  0.00    +0.088 C 
BRANCH  27  28
ATOM     28  C   UNL     1      10.395   3.726  23.430  0.00  0.00    +0.050 C 
BRANCH  28  29
ATOM     29  C   UNL     1      10.324   2.234  23.217  0.00  0.00    -0.046 A 
ATOM     30  C   UNL     1      10.690   1.353  24.244  0.00  0.00    +0.003 A 
ATOM     31  C   UNL     1      10.648  -0.026  24.037  0.00  0.00    +0.000 A 
ATOM     32  C   UNL     1      10.244  -0.530  22.801  0.00  0.00    +0.000 A 
ATOM     33  C   UNL     1       9.864   0.335  21.779  0.00  0.00    +0.000 A 
ATOM     34  C   UNL     1       9.905   1.717  21.986  0.00  0.00    +0.003 A 
ENDBRANCH  28  29
ENDBRANCH  27  28
ENDBRANCH  25  27
ENDBRANCH  24  25
BRANCH  24  35
ATOM     35  O   UNL     1       7.828   3.325  26.263  0.00  0.00    -0.373 OA
ATOM     36  H   UNL     1       7.199   3.774  26.851  0.00  0.00    +0.212 HD
ENDBRANCH  24  35
ENDBRANCH   3  24
TORSDOF 13
ENDMDL
MODEL 9
REMARK VINA RESULT:      -6.1      3.055      7.810
REMARK  Name = 
REMARK  13 active torsions:
REMARK  status: ('A' for Active; 'I' for Inactive)
REMARK    1  A    between atoms: O_1  and  C_2
REMARK    2  A    between atoms: C_2  and  O_3
REMARK    3  A    between atoms: C_2  and  C_4
REMARK    4  A    between atoms: C_4  and  C_5
REMARK    5  A    between atoms: C_9  and  O_10
REMARK    6  A    between atoms: O_10  and  C_11
REMARK    7  A    between atoms: C_14  and  O_15
REMARK    8  A    between atoms: C_16  and  C_18
REMARK    9  A    between atoms: C_18  and  O_20
REMARK   10  A    between atoms: C_18  and  N_21
REMARK   11  A    between atoms: N_21  and  C_22
REMARK   12  A    between atoms: C_22  and  C_23
REMARK   13  A    between atoms: C_23  and  C_24
REMARK                            x       y       z     vdW  Elec       q    Type
REMARK                         _______ _______ _______ _____ _____    ______ ____
ROOT
ATOM      1  C   UNL     1       7.354  -1.623  24.352  0.00  0.00    +0.129 A 
ATOM      2  C   UNL     1       8.121  -1.210  23.260  0.00  0.00    +0.057 A 
ATOM      3  C   UNL     1       9.287  -0.440  23.450  0.00  0.00    +0.040 A 
ATOM      4  C   UNL     1       9.674  -0.146  24.764  0.00  0.00    +0.124 A 
ATOM      5  C   UNL     1       8.954  -0.627  25.859  0.00  0.00    +0.049 A 
ATOM      6  C   UNL     1       7.811  -1.394  25.652  0.00  0.00    +0.050 A 
ENDROOT
BRANCH   4   7
ATOM      7  O   UNL     1      10.774   0.632  24.978  0.00  0.00    -0.506 OA
ATOM      8  H   UNL     1      11.234   0.776  24.133  0.00  0.00    +0.292 HD
ENDBRANCH   4   7
BRANCH   1   9
ATOM      9  O   UNL     1       6.130  -2.182  24.056  0.00  0.00    -0.454 OA
BRANCH   9  14
ATOM     10  C   UNL     1       5.169  -5.689  26.162  0.00  0.00    -0.038 A 
ATOM     11  C   UNL     1       5.808  -5.740  24.916  0.00  0.00    +0.023 A 
ATOM     12  C   UNL     1       6.102  -4.556  24.227  0.00  0.00    +0.061 A 
ATOM     13 BR   UNL     1       6.961  -4.708  22.539  0.00  0.00    -0.046 Br
ATOM     14  C   UNL     1       5.747  -3.308  24.761  0.00  0.00    +0.156 A 
ATOM     15  C   UNL     1       4.996  -3.279  25.953  0.00  0.00    +0.061 A 
ATOM     16 BR   UNL     1       4.147  -1.725  26.656  0.00  0.00    -0.046 Br
ATOM     17  C   UNL     1       4.762  -4.456  26.667  0.00  0.00    +0.023 A 
BRANCH  10  18
ATOM     18  C   UNL     1       4.810  -6.949  26.910  0.00  0.00    +0.123 C 
BRANCH  18  19
ATOM     19  C   UNL     1       5.082  -6.783  28.412  0.00  0.00    +0.349 C 
BRANCH  19  20
ATOM     20  O   UNL     1       4.083  -7.483  29.133  0.00  0.00    -0.507 OA
ATOM     21  H   UNL     1       3.512  -6.804  29.531  0.00  0.00    +0.287 HD
ENDBRANCH  19  20
BRANCH  19  22
ATOM     22  O   UNL     1       6.356  -7.269  28.795  0.00  0.00    -0.507 OA
ATOM     23  H   UNL     1       6.423  -8.198  28.525  0.00  0.00    +0.287 HD
ENDBRANCH  19  22
ENDBRANCH  18  19
ENDBRANCH  10  18
ENDBRANCH   9  14
ENDBRANCH   1   9
BRANCH   3  24
ATOM     24  C   UNL     1      10.059   0.080  22.256  0.00  0.00    +0.218 C 
BRANCH  24  25
ATOM     25  N   UNL     1       9.834   1.486  21.953  0.00  0.00    -0.288 NA
ATOM     26  H   UNL     1      10.457   1.740  21.192  0.00  0.00    +0.125 HD
BRANCH  25  27
ATOM     27  C   UNL     1       8.451   1.832  21.619  0.00  0.00    +0.088 C 
BRANCH  27  28
ATOM     28  C   UNL     1       7.900   3.028  22.408  0.00  0.00    +0.050 C 
BRANCH  28  29
ATOM     29  C   UNL     1       7.301   2.625  23.734  0.00  0.00    -0.046 A 
ATOM     30  C   UNL     1       6.123   1.866  23.778  0.00  0.00    +0.003 A 
ATOM     31  C   UNL     1       5.556   1.516  25.003  0.00  0.00    +0.000 A 
ATOM     32  C   UNL     1       6.164   1.925  26.190  0.00  0.00    +0.000 A 
ATOM     33  C   UNL     1       7.341   2.666  26.159  0.00  0.00    +0.000 A 
ATOM     34  C   UNL     1       7.910   3.017  24.931  0.00  0.00    +0.003 A 
ENDBRANCH  28  29
ENDBRANCH  27  28
ENDBRANCH  25  27
ENDBRANCH  24  25
BRANCH  24  35
ATOM     35  O   UNL     1       9.640  -0.662  21.119  0.00  0.00    -0.373 OA
ATOM     36  H   UNL     1      10.175  -1.473  21.133  0.00  0.00    +0.212 HD
ENDBRANCH  24  35
ENDBRANCH   3  24
TORSDOF 13
ENDMDL
