MODEL 1
REMARK VINA RESULT:      -5.5      0.000      0.000
REMARK  Name = 
REMARK  9 active torsions:
REMARK  status: ('A' for Active; 'I' for Inactive)
REMARK    1  A    between atoms: O_1  and  C_2
REMARK    2  A    between atoms: C_2  and  C_3
REMARK    3  A    between atoms: C_3  and  O_5
REMARK    4  A    between atoms: C_3  and  C_6
REMARK    5  A    between atoms: C_9  and  O_10
REMARK    6  A    between atoms: C_9  and  C_18
REMARK    7  A    between atoms: C_12  and  O_14
REMARK    8  A    between atoms: C_15  and  O_17
REMARK    9  A    between atoms: C_18  and  O_19
REMARK                            x       y       z     vdW  Elec       q    Type
REMARK                         _______ _______ _______ _____ _____    ______ ____
ROOT
ATOM      1  C   UNL     1       9.053  -3.757  24.197  0.00  0.00    +0.184 C 
ATOM      2  C   UNL     1       7.792  -4.329  23.521  0.00  0.00    +0.174 C 
ATOM      3  C   UNL     1       7.349  -3.460  22.326  0.00  0.00    +0.151 C 
ATOM      4  C   UNL     1       7.316  -1.984  22.688  0.00  0.00    +0.111 C 
ATOM      5  C   UNL     1       8.628  -1.552  23.335  0.00  0.00    +0.270 C 
ATOM      6  O   UNL     1       8.898  -2.346  24.465  0.00  0.00    -0.331 OA
ENDROOT
BRANCH   2   7
ATOM      7  O   UNL     1       8.027  -5.672  23.082  0.00  0.00    -0.387 OA
ATOM      8  H   UNL     1       8.565  -6.127  23.754  0.00  0.00    +0.210 HD
ENDBRANCH   2   7
BRANCH   3   9
ATOM      9  O   UNL     1       6.040  -3.853  21.901  0.00  0.00    -0.389 OA
ATOM     10  H   UNL     1       6.073  -4.797  21.665  0.00  0.00    +0.210 HD
ENDBRANCH   3   9
BRANCH   5  11
ATOM     11  O   UNL     1       8.492  -0.198  23.816  0.00  0.00    -0.356 OA
ATOM     12  H   UNL     1       7.541   0.007  23.788  0.00  0.00    +0.213 HD
ENDBRANCH   5  11
BRANCH   5  13
ATOM     13  C   UNL     1       9.783  -1.461  22.280  0.00  0.00    +0.365 C 
ATOM     14  O   UNL     1      10.923  -1.869  22.447  0.00  0.00    -0.245 OA
BRANCH  13  15
ATOM     15  O   UNL     1       9.371  -0.868  21.126  0.00  0.00    -0.477 OA
ATOM     16  H   UNL     1      10.167  -0.442  20.725  0.00  0.00    +0.295 HD
ENDBRANCH  13  15
ENDBRANCH   5  13
BRANCH   1  17
ATOM     17  C   UNL     1       9.365  -4.432  25.557  0.00  0.00    +0.171 C 
BRANCH  17  18
ATOM     18  O   UNL     1       9.930  -5.737  25.303  0.00  0.00    -0.387 OA
ATOM     19  H   UNL     1      10.653  -5.823  25.958  0.00  0.00    +0.210 HD
ENDBRANCH  17  18
BRANCH  17  20
ATOM     20  C   UNL     1       8.177  -4.632  26.501  0.00  0.00    +0.189 C 
BRANCH  20  21
ATOM     21  O   UNL     1       8.228  -5.974  27.007  0.00  0.00    -0.392 OA
ATOM     22  H   UNL     1       9.032  -6.031  27.554  0.00  0.00    +0.210 HD
ENDBRANCH  20  21
ENDBRANCH  17  20
ENDBRANCH   1  17
TORSDOF 9
ENDMDL
MODEL 2
REMARK VINA RESULT:      -5.4      1.310      4.287
REMARK  Name = 
REMARK  9 active torsions:
REMARK  status: ('A' for Active; 'I' for Inactive)
REMARK    1  A    between atoms: O_1  and  C_2
REMARK    2  A    between atoms: C_2  and  C_3
REMARK    3  A    between atoms: C_3  and  O_5
REMARK    4  A    between atoms: C_3  and  C_6
REMARK    5  A    between atoms: C_9  and  O_10
REMARK    6  A    between atoms: C_9  and  C_18
REMARK    7  A    between atoms: C_12  and  O_14
REMARK    8  A    between atoms: C_15  and  O_17
REMARK    9  A    between atoms: C_18  and  O_19
REMARK                            x       y       z     vdW  Elec       q    Type
REMARK                         _______ _______ _______ _____ _____    ______ ____
ROOT
ATOM      1  C   UNL     1       8.809  -2.307  23.634  0.00  0.00    +0.184 C 
ATOM      2  C   UNL     1       7.682  -2.985  22.830  0.00  0.00    +0.174 C 
ATOM      3  C   UNL     1       7.151  -4.241  23.552  0.00  0.00    +0.151 C 
ATOM      4  C   UNL     1       8.284  -5.137  24.026  0.00  0.00    +0.111 C 
ATOM      5  C   UNL     1       9.316  -4.340  24.816  0.00  0.00    +0.270 C 
ATOM      6  O   UNL     1       9.804  -3.272  24.040  0.00  0.00    -0.331 OA
ENDROOT
BRANCH   2   7
ATOM      7  O   UNL     1       6.609  -2.066  22.603  0.00  0.00    -0.387 OA
ATOM      8  H   UNL     1       6.986  -1.209  22.336  0.00  0.00    +0.210 HD
ENDBRANCH   2   7
BRANCH   3   9
ATOM      9  O   UNL     1       6.317  -4.992  22.664  0.00  0.00    -0.389 OA
ATOM     10  H   UNL     1       6.850  -5.721  22.299  0.00  0.00    +0.210 HD
ENDBRANCH   3   9
BRANCH   5  11
ATOM     11  O   UNL     1      10.450  -5.187  25.096  0.00  0.00    -0.356 OA
ATOM     12  H   UNL     1      10.514  -5.246  26.065  0.00  0.00    +0.213 HD
ENDBRANCH   5  11
BRANCH   5  13
ATOM     13  C   UNL     1       8.776  -3.955  26.235  0.00  0.00    +0.365 C 
ATOM     14  O   UNL     1       8.567  -2.814  26.623  0.00  0.00    -0.245 OA
BRANCH  13  15
ATOM     15  O   UNL     1       8.553  -5.052  27.009  0.00  0.00    -0.477 OA
ATOM     16  H   UNL     1       8.259  -5.773  26.401  0.00  0.00    +0.295 HD
ENDBRANCH  13  15
ENDBRANCH   5  13
BRANCH   1  17
ATOM     17  C   UNL     1       9.555  -1.218  22.823  0.00  0.00    +0.171 C 
BRANCH  17  18
ATOM     18  O   UNL     1      10.506  -1.865  21.950  0.00  0.00    -0.387 OA
ATOM     19  H   UNL     1      10.600  -2.768  22.318  0.00  0.00    +0.210 HD
ENDBRANCH  17  18
BRANCH  17  20
ATOM     20  C   UNL     1      10.328  -0.178  23.639  0.00  0.00    +0.189 C 
BRANCH  20  21
ATOM     21  O   UNL     1      10.107  -0.446  25.031  0.00  0.00    -0.392 OA
ATOM     22  H   UNL     1       9.243  -0.053  25.252  0.00  0.00    +0.210 HD
ENDBRANCH  20  21
ENDBRANCH  17  20
ENDBRANCH   1  17
TORSDOF 9
ENDMDL
MODEL 3
REMARK VINA RESULT:      -5.3      1.161      4.656
REMARK  Name = 
REMARK  9 active torsions:
REMARK  status: ('A' for Active; 'I' for Inactive)
REMARK    1  A    between atoms: O_1  and  C_2
REMARK    2  A    between atoms: C_2  and  C_3
REMARK    3  A    between atoms: C_3  and  O_5
REMARK    4  A    between atoms: C_3  and  C_6
REMARK    5  A    between atoms: C_9  and  O_10
REMARK    6  A    between atoms: C_9  and  C_18
REMARK    7  A    between atoms: C_12  and  O_14
REMARK    8  A    between atoms: C_15  and  O_17
REMARK    9  A    between atoms: C_18  and  O_19
REMARK                            x       y       z     vdW  Elec       q    Type
REMARK                         _______ _______ _______ _____ _____    ______ ____
ROOT
ATOM      1  C   UNL     1       8.884  -2.579  24.072  0.00  0.00    +0.184 C 
ATOM      2  C   UNL     1       7.937  -3.079  22.963  0.00  0.00    +0.174 C 
ATOM      3  C   UNL     1       7.280  -4.421  23.346  0.00  0.00    +0.151 C 
ATOM      4  C   UNL     1       8.303  -5.418  23.868  0.00  0.00    +0.111 C 
ATOM      5  C   UNL     1       9.160  -4.795  24.965  0.00  0.00    +0.270 C 
ATOM      6  O   UNL     1       9.785  -3.627  24.491  0.00  0.00    -0.331 OA
ENDROOT
BRANCH   2   7
ATOM      7  O   UNL     1       6.925  -2.103  22.695  0.00  0.00    -0.387 OA
ATOM      8  H   UNL     1       7.181  -1.600  21.901  0.00  0.00    +0.210 HD
ENDBRANCH   2   7
BRANCH   3   9
ATOM      9  O   UNL     1       6.636  -4.989  22.200  0.00  0.00    -0.389 OA
ATOM     10  H   UNL     1       7.315  -5.447  21.673  0.00  0.00    +0.210 HD
ENDBRANCH   3   9
BRANCH   5  11
ATOM     11  O   UNL     1      10.221  -5.710  25.309  0.00  0.00    -0.356 OA
ATOM     12  H   UNL     1       9.905  -6.220  26.075  0.00  0.00    +0.213 HD
ENDBRANCH   5  11
BRANCH   5  13
ATOM     13  C   UNL     1       8.354  -4.637  26.299  0.00  0.00    +0.365 C 
ATOM     14  O   UNL     1       8.003  -3.573  26.788  0.00  0.00    -0.245 OA
BRANCH  13  15
ATOM     15  O   UNL     1       8.074  -5.841  26.869  0.00  0.00    -0.477 OA
ATOM     16  H   UNL     1       7.717  -6.419  26.151  0.00  0.00    +0.295 HD
ENDBRANCH  13  15
ENDBRANCH   5  13
BRANCH   1  17
ATOM     17  C   UNL     1       9.770  -1.391  23.615  0.00  0.00    +0.171 C 
BRANCH  17  18
ATOM     18  O   UNL     1       8.969  -0.190  23.626  0.00  0.00    -0.387 OA
ATOM     19  H   UNL     1       9.272   0.314  22.843  0.00  0.00    +0.210 HD
ENDBRANCH  17  18
BRANCH  17  20
ATOM     20  C   UNL     1      10.389  -1.507  22.220  0.00  0.00    +0.189 C 
BRANCH  20  21
ATOM     21  O   UNL     1       9.568  -0.768  21.304  0.00  0.00    -0.392 OA
ATOM     22  H   UNL     1       9.212  -0.010  21.803  0.00  0.00    +0.210 HD
ENDBRANCH  20  21
ENDBRANCH  17  20
ENDBRANCH   1  17
TORSDOF 9
ENDMDL
MODEL 4
REMARK VINA RESULT:      -5.2      1.536      2.949
REMARK  Name = 
REMARK  9 active torsions:
REMARK  status: ('A' for Active; 'I' for Inactive)
REMARK    1  A    between atoms: O_1  and  C_2
REMARK    2  A    between atoms: C_2  and  C_3
REMARK    3  A    between atoms: C_3  and  O_5
REMARK    4  A    between atoms: C_3  and  C_6
REMARK    5  A    between atoms: C_9  and  O_10
REMARK    6  A    between atoms: C_9  and  C_18
REMARK    7  A    between atoms: C_12  and  O_14
REMARK    8  A    between atoms: C_15  and  O_17
REMARK    9  A    between atoms: C_18  and  O_19
REMARK                            x       y       z     vdW  Elec       q    Type
REMARK                         _______ _______ _______ _____ _____    ______ ____
ROOT
ATOM      1  C   UNL     1       8.935  -3.217  24.909  0.00  0.00    +0.184 C 
ATOM      2  C   UNL     1       8.789  -2.004  25.848  0.00  0.00    +0.174 C 
ATOM      3  C   UNL     1       8.849  -0.675  25.065  0.00  0.00    +0.151 C 
ATOM      4  C   UNL     1      10.018  -0.648  24.094  0.00  0.00    +0.111 C 
ATOM      5  C   UNL     1      10.033  -1.899  23.222  0.00  0.00    +0.270 C 
ATOM      6  O   UNL     1      10.067  -3.053  24.027  0.00  0.00    -0.331 OA
ENDROOT
BRANCH   2   7
ATOM      7  O   UNL     1       7.560  -2.082  26.576  0.00  0.00    -0.387 OA
ATOM      8  H   UNL     1       7.216  -2.991  26.508  0.00  0.00    +0.210 HD
ENDBRANCH   2   7
BRANCH   3   9
ATOM      9  O   UNL     1       8.991   0.418  25.978  0.00  0.00    -0.389 OA
ATOM     10  H   UNL     1       8.409   0.248  26.741  0.00  0.00    +0.210 HD
ENDBRANCH   3   9
BRANCH   5  11
ATOM     11  O   UNL     1      11.246  -1.915  22.442  0.00  0.00    -0.356 OA
ATOM     12  H   UNL     1      11.616  -2.810  22.531  0.00  0.00    +0.213 HD
ENDBRANCH   5  11
BRANCH   5  13
ATOM     13  C   UNL     1       8.895  -1.858  22.147  0.00  0.00    +0.365 C 
ATOM     14  O   UNL     1       7.835  -2.464  22.219  0.00  0.00    -0.245 OA
BRANCH  13  15
ATOM     15  O   UNL     1       9.217  -1.053  21.097  0.00  0.00    -0.477 OA
ATOM     16  H   UNL     1       8.375  -0.863  20.616  0.00  0.00    +0.295 HD
ENDBRANCH  13  15
ENDBRANCH   5  13
BRANCH   1  17
ATOM     17  C   UNL     1       9.161  -4.546  25.675  0.00  0.00    +0.171 C 
BRANCH  17  18
ATOM     18  O   UNL     1      10.104  -5.349  24.933  0.00  0.00    -0.387 OA
ATOM     19  H   UNL     1       9.797  -6.270  25.063  0.00  0.00    +0.210 HD
ENDBRANCH  17  18
BRANCH  17  20
ATOM     20  C   UNL     1       7.919  -5.411  25.909  0.00  0.00    +0.189 C 
BRANCH  20  21
ATOM     21  O   UNL     1       8.005  -5.969  27.228  0.00  0.00    -0.392 OA
ATOM     22  H   UNL     1       8.593  -5.382  27.737  0.00  0.00    +0.210 HD
ENDBRANCH  20  21
ENDBRANCH  17  20
ENDBRANCH   1  17
TORSDOF 9
ENDMDL
MODEL 5
REMARK VINA RESULT:      -5.0      1.467      4.656
REMARK  Name = 
REMARK  9 active torsions:
REMARK  status: ('A' for Active; 'I' for Inactive)
REMARK    1  A    between atoms: O_1  and  C_2
REMARK    2  A    between atoms: C_2  and  C_3
REMARK    3  A    between atoms: C_3  and  O_5
REMARK    4  A    between atoms: C_3  and  C_6
REMARK    5  A    between atoms: C_9  and  O_10
REMARK    6  A    between atoms: C_9  and  C_18
REMARK    7  A    between atoms: C_12  and  O_14
REMARK    8  A    between atoms: C_15  and  O_17
REMARK    9  A    between atoms: C_18  and  O_19
REMARK                            x       y       z     vdW  Elec       q    Type
REMARK                         _______ _______ _______ _____ _____    ______ ____
ROOT
ATOM      1  C   UNL     1       8.056  -2.952  23.098  0.00  0.00    +0.184 C 
ATOM      2  C   UNL     1       8.759  -3.598  24.308  0.00  0.00    +0.174 C 
ATOM      3  C   UNL     1       8.279  -5.047  24.532  0.00  0.00    +0.151 C 
ATOM      4  C   UNL     1       6.762  -5.147  24.493  0.00  0.00    +0.111 C 
ATOM      5  C   UNL     1       6.203  -4.479  23.241  0.00  0.00    +0.270 C 
ATOM      6  O   UNL     1       6.625  -3.138  23.174  0.00  0.00    -0.331 OA
ENDROOT
BRANCH   2   7
ATOM      7  O   UNL     1      10.179  -3.582  24.126  0.00  0.00    -0.387 OA
ATOM      8  H   UNL     1      10.369  -3.437  23.182  0.00  0.00    +0.210 HD
ENDBRANCH   2   7
BRANCH   3   9
ATOM      9  O   UNL     1       8.733  -5.515  25.806  0.00  0.00    -0.389 OA
ATOM     10  H   UNL     1       9.036  -6.434  25.695  0.00  0.00    +0.210 HD
ENDBRANCH   3   9
BRANCH   5  11
ATOM     11  O   UNL     1       4.763  -4.445  23.329  0.00  0.00    -0.356 OA
ATOM     12  H   UNL     1       4.530  -4.891  24.162  0.00  0.00    +0.213 HD
ENDBRANCH   5  11
BRANCH   5  13
ATOM     13  C   UNL     1       6.480  -5.340  21.963  0.00  0.00    +0.365 C 
ATOM     14  O   UNL     1       7.107  -6.390  21.942  0.00  0.00    -0.245 OA
BRANCH  13  15
ATOM     15  O   UNL     1       5.932  -4.784  20.848  0.00  0.00    -0.477 OA
ATOM     16  H   UNL     1       6.620  -4.192  20.458  0.00  0.00    +0.295 HD
ENDBRANCH  13  15
ENDBRANCH   5  13
BRANCH   1  17
ATOM     17  C   UNL     1       8.297  -1.423  23.009  0.00  0.00    +0.171 C 
BRANCH  17  18
ATOM     18  O   UNL     1       7.017  -0.759  22.933  0.00  0.00    -0.387 OA
ATOM     19  H   UNL     1       6.401  -1.360  23.401  0.00  0.00    +0.210 HD
ENDBRANCH  17  18
BRANCH  17  20
ATOM     20  C   UNL     1       9.127  -0.939  21.817  0.00  0.00    +0.189 C 
BRANCH  20  21
ATOM     21  O   UNL     1      10.327  -1.722  21.759  0.00  0.00    -0.392 OA
ATOM     22  H   UNL     1      10.051  -2.636  21.565  0.00  0.00    +0.210 HD
ENDBRANCH  20  21
ENDBRANCH  17  20
ENDBRANCH   1  17
TORSDOF 9
ENDMDL
MODEL 6
REMARK VINA RESULT:      -5.0      2.560      5.786
REMARK  Name = 
REMARK  9 active torsions:
REMARK  status: ('A' for Active; 'I' for Inactive)
REMARK    1  A    between atoms: O_1  and  C_2
REMARK    2  A    between atoms: C_2  and  C_3
REMARK    3  A    between atoms: C_3  and  O_5
REMARK    4  A    between atoms: C_3  and  C_6
REMARK    5  A    between atoms: C_9  and  O_10
REMARK    6  A    between atoms: C_9  and  C_18
REMARK    7  A    between atoms: C_12  and  O_14
REMARK    8  A    between atoms: C_15  and  O_17
REMARK    9  A    between atoms: C_18  and  O_19
REMARK                            x       y       z     vdW  Elec       q    Type
REMARK                         _______ _______ _______ _____ _____    ______ ____
ROOT
ATOM      1  C   UNL     1       9.141   0.475  22.809  0.00  0.00    +0.184 C 
ATOM      2  C   UNL     1       8.887   1.046  24.218  0.00  0.00    +0.174 C 
ATOM      3  C   UNL     1       8.891  -0.067  25.287  0.00  0.00    +0.151 C 
ATOM      4  C   UNL     1       8.034  -1.250  24.867  0.00  0.00    +0.111 C 
ATOM      5  C   UNL     1       8.399  -1.718  23.463  0.00  0.00    +0.270 C 
ATOM      6  O   UNL     1       8.279  -0.655  22.548  0.00  0.00    -0.331 OA
ENDROOT
BRANCH   2   7
ATOM      7  O   UNL     1       9.874   2.031  24.541  0.00  0.00    -0.387 OA
ATOM      8  H   UNL     1       9.547   2.565  25.287  0.00  0.00    +0.210 HD
ENDBRANCH   2   7
BRANCH   3   9
ATOM      9  O   UNL     1       8.384   0.447  26.522  0.00  0.00    -0.389 OA
ATOM     10  H   UNL     1       7.854   1.239  26.321  0.00  0.00    +0.210 HD
ENDBRANCH   3   9
BRANCH   5  11
ATOM     11  O   UNL     1       7.453  -2.722  23.040  0.00  0.00    -0.356 OA
ATOM     12  H   UNL     1       7.805  -3.576  23.349  0.00  0.00    +0.213 HD
ENDBRANCH   5  11
BRANCH   5  13
ATOM     13  C   UNL     1       9.774  -2.469  23.450  0.00  0.00    +0.365 C 
ATOM     14  O   UNL     1      10.085  -3.383  24.201  0.00  0.00    -0.245 OA
BRANCH  13  15
ATOM     15  O   UNL     1      10.607  -1.987  22.488  0.00  0.00    -0.477 OA
ATOM     16  H   UNL     1      10.473  -2.551  21.688  0.00  0.00    +0.295 HD
ENDBRANCH  13  15
ENDBRANCH   5  13
BRANCH   1  17
ATOM     17  C   UNL     1       8.869   1.506  21.684  0.00  0.00    +0.171 C 
BRANCH  17  18
ATOM     18  O   UNL     1      10.059   2.302  21.492  0.00  0.00    -0.387 OA
ATOM     19  H   UNL     1       9.813   3.193  21.818  0.00  0.00    +0.210 HD
ENDBRANCH  17  18
BRANCH  17  20
ATOM     20  C   UNL     1       7.711   2.479  21.925  0.00  0.00    +0.189 C 
BRANCH  20  21
ATOM     21  O   UNL     1       8.264   3.753  22.282  0.00  0.00    -0.392 OA
ATOM     22  H   UNL     1       9.173   3.583  22.588  0.00  0.00    +0.210 HD
ENDBRANCH  20  21
ENDBRANCH  17  20
ENDBRANCH   1  17
TORSDOF 9
ENDMDL
MODEL 7
REMARK VINA RESULT:      -5.0      2.504      5.145
REMARK  Name = 
REMARK  9 active torsions:
REMARK  status: ('A' for Active; 'I' for Inactive)
REMARK    1  A    between atoms: O_1  and  C_2
REMARK    2  A    between atoms: C_2  and  C_3
REMARK    3  A    between atoms: C_3  and  O_5
REMARK    4  A    between atoms: C_3  and  C_6
REMARK    5  A    between atoms: C_9  and  O_10
REMARK    6  A    between atoms: C_9  and  C_18
REMARK    7  A    between atoms: C_12  and  O_14
REMARK    8  A    between atoms: C_15  and  O_17
REMARK    9  A    between atoms: C_18  and  O_19
REMARK                            x       y       z     vdW  Elec       q    Type
REMARK                         _______ _______ _______ _____ _____    ______ ____
ROOT
ATOM      1  C   UNL     1       8.218   0.694  23.105  0.00  0.00    +0.184 C 
ATOM      2  C   UNL     1       6.848   0.024  22.882  0.00  0.00    +0.174 C 
ATOM      3  C   UNL     1       6.951  -1.513  22.976  0.00  0.00    +0.151 C 
ATOM      4  C   UNL     1       8.113  -2.049  22.155  0.00  0.00    +0.111 C 
ATOM      5  C   UNL     1       9.403  -1.306  22.485  0.00  0.00    +0.270 C 
ATOM      6  O   UNL     1       9.234   0.077  22.283  0.00  0.00    -0.331 OA
ENDROOT
BRANCH   2   7
ATOM      7  O   UNL     1       5.897   0.505  23.837  0.00  0.00    -0.387 OA
ATOM      8  H   UNL     1       6.341   1.145  24.421  0.00  0.00    +0.210 HD
ENDBRANCH   2   7
BRANCH   3   9
ATOM      9  O   UNL     1       5.742  -2.109  22.495  0.00  0.00    -0.389 OA
ATOM     10  H   UNL     1       5.933  -3.037  22.273  0.00  0.00    +0.210 HD
ENDBRANCH   3   9
BRANCH   5  11
ATOM     11  O   UNL     1      10.435  -1.724  21.567  0.00  0.00    -0.356 OA
ATOM     12  H   UNL     1      11.138  -1.054  21.624  0.00  0.00    +0.213 HD
ENDBRANCH   5  11
BRANCH   5  13
ATOM     13  C   UNL     1       9.958  -1.722  23.889  0.00  0.00    +0.365 C 
ATOM     14  O   UNL     1      10.180  -0.954  24.815  0.00  0.00    -0.245 OA
BRANCH  13  15
ATOM     15  O   UNL     1      10.169  -3.064  23.974  0.00  0.00    -0.477 OA
ATOM     16  H   UNL     1      10.366  -3.261  24.923  0.00  0.00    +0.295 HD
ENDBRANCH  13  15
ENDBRANCH   5  13
BRANCH   1  17
ATOM     17  C   UNL     1       8.215   2.202  22.744  0.00  0.00    +0.171 C 
BRANCH  17  18
ATOM     18  O   UNL     1       8.643   2.347  21.373  0.00  0.00    -0.387 OA
ATOM     19  H   UNL     1       8.532   3.302  21.182  0.00  0.00    +0.210 HD
ENDBRANCH  17  18
BRANCH  17  20
ATOM     20  C   UNL     1       9.116   3.101  23.595  0.00  0.00    +0.189 C 
BRANCH  20  21
ATOM     21  O   UNL     1      10.020   2.264  24.330  0.00  0.00    -0.392 OA
ATOM     22  H   UNL     1      10.103   1.437  23.822  0.00  0.00    +0.210 HD
ENDBRANCH  20  21
ENDBRANCH  17  20
ENDBRANCH   1  17
TORSDOF 9
ENDMDL
MODEL 8
REMARK VINA RESULT:      -5.0      1.706      4.029
REMARK  Name = 
REMARK  9 active torsions:
REMARK  status: ('A' for Active; 'I' for Inactive)
REMARK    1  A    between atoms: O_1  and  C_2
REMARK    2  A    between atoms: C_2  and  C_3
REMARK    3  A    between atoms: C_3  and  O_5
REMARK    4  A    between atoms: C_3  and  C_6
REMARK    5  A    between atoms: C_9  and  O_10
REMARK    6  A    between atoms: C_9  and  C_18
REMARK    7  A    between atoms: C_12  and  O_14
REMARK    8  A    between atoms: C_15  and  O_17
REMARK    9  A    between atoms: C_18  and  O_19
REMARK                            x       y       z     vdW  Elec       q    Type
REMARK                         _______ _______ _______ _____ _____    ______ ____
ROOT
ATOM      1  C   UNL     1       6.950  -3.962  23.562  0.00  0.00    +0.184 C 
ATOM      2  C   UNL     1       6.968  -5.108  24.592  0.00  0.00    +0.174 C 
ATOM      3  C   UNL     1       7.920  -4.797  25.766  0.00  0.00    +0.151 C 
ATOM      4  C   UNL     1       9.271  -4.301  25.276  0.00  0.00    +0.111 C 
ATOM      5  C   UNL     1       9.104  -3.163  24.276  0.00  0.00    +0.270 C 
ATOM      6  O   UNL     1       8.294  -3.573  23.200  0.00  0.00    -0.331 OA
ENDROOT
BRANCH   2   7
ATOM      7  O   UNL     1       5.648  -5.351  25.090  0.00  0.00    -0.387 OA
ATOM      8  H   UNL     1       5.006  -5.107  24.399  0.00  0.00    +0.210 HD
ENDBRANCH   2   7
BRANCH   3   9
ATOM      9  O   UNL     1       8.125  -5.978  26.548  0.00  0.00    -0.389 OA
ATOM     10  H   UNL     1       7.369  -6.573  26.395  0.00  0.00    +0.210 HD
ENDBRANCH   3   9
BRANCH   5  11
ATOM     11  O   UNL     1      10.392  -2.841  23.710  0.00  0.00    -0.356 OA
ATOM     12  H   UNL     1      10.244  -2.098  23.100  0.00  0.00    +0.213 HD
ENDBRANCH   5  11
BRANCH   5  13
ATOM     13  C   UNL     1       8.665  -1.838  24.986  0.00  0.00    +0.365 C 
ATOM     14  O   UNL     1       8.662  -1.654  26.195  0.00  0.00    -0.245 OA
BRANCH  13  15
ATOM     15  O   UNL     1       8.280  -0.886  24.092  0.00  0.00    -0.477 OA
ATOM     16  H   UNL     1       9.056  -0.288  23.963  0.00  0.00    +0.295 HD
ENDBRANCH  13  15
ENDBRANCH   5  13
BRANCH   1  17
ATOM     17  C   UNL     1       6.233  -4.349  22.244  0.00  0.00    +0.171 C 
BRANCH  17  18
ATOM     18  O   UNL     1       4.808  -4.334  22.474  0.00  0.00    -0.387 OA
ATOM     19  H   UNL     1       4.634  -5.149  22.990  0.00  0.00    +0.210 HD
ENDBRANCH  17  18
BRANCH  17  20
ATOM     20  C   UNL     1       6.581  -5.722  21.663  0.00  0.00    +0.189 C 
BRANCH  20  21
ATOM     21  O   UNL     1       5.376  -6.310  21.153  0.00  0.00    -0.392 OA
ATOM     22  H   UNL     1       5.385  -6.165  20.190  0.00  0.00    +0.210 HD
ENDBRANCH  20  21
ENDBRANCH  17  20
ENDBRANCH   1  17
TORSDOF 9
ENDMDL
MODEL 9
REMARK VINA RESULT:      -5.0      1.572      3.741
REMARK  Name = 
REMARK  9 active torsions:
REMARK  status: ('A' for Active; 'I' for Inactive)
REMARK    1  A    between atoms: O_1  and  C_2
REMARK    2  A    between atoms: C_2  and  C_3
REMARK    3  A    between atoms: C_3  and  O_5
REMARK    4  A    between atoms: C_3  and  C_6
REMARK    5  A    between atoms: C_9  and  O_10
REMARK    6  A    between atoms: C_9  and  C_18
REMARK    7  A    between atoms: C_12  and  O_14
REMARK    8  A    between atoms: C_15  and  O_17
REMARK    9  A    between atoms: C_18  and  O_19
REMARK                            x       y       z     vdW  Elec       q    Type
REMARK                         _______ _______ _______ _____ _____    ______ ____
ROOT
ATOM      1  C   UNL     1       7.113  -3.204  22.717  0.00  0.00    +0.184 C 
ATOM      2  C   UNL     1       7.563  -4.020  23.945  0.00  0.00    +0.174 C 
ATOM      3  C   UNL     1       8.644  -3.273  24.753  0.00  0.00    +0.151 C 
ATOM      4  C   UNL     1       9.745  -2.735  23.853  0.00  0.00    +0.111 C 
ATOM      5  C   UNL     1       9.160  -1.940  22.691  0.00  0.00    +0.270 C 
ATOM      6  O   UNL     1       8.254  -2.735  21.964  0.00  0.00    -0.331 OA
ENDROOT
BRANCH   2   7
ATOM      7  O   UNL     1       6.443  -4.311  24.787  0.00  0.00    -0.387 OA
ATOM      8  H   UNL     1       5.643  -4.356  24.234  0.00  0.00    +0.210 HD
ENDBRANCH   2   7
BRANCH   3   9
ATOM      9  O   UNL     1       9.233  -4.161  25.709  0.00  0.00    -0.389 OA
ATOM     10  H   UNL     1       8.597  -4.878  25.882  0.00  0.00    +0.210 HD
ENDBRANCH   3   9
BRANCH   5  11
ATOM     11  O   UNL     1      10.220  -1.596  21.774  0.00  0.00    -0.356 OA
ATOM     12  H   UNL     1       9.808  -1.072  21.065  0.00  0.00    +0.213 HD
ENDBRANCH   5  11
BRANCH   5  13
ATOM     13  C   UNL     1       8.611  -0.552  23.167  0.00  0.00    +0.365 C 
ATOM     14  O   UNL     1       7.615   0.002  22.723  0.00  0.00    -0.245 OA
BRANCH  13  15
ATOM     15  O   UNL     1       9.377  -0.015  24.156  0.00  0.00    -0.477 OA
ATOM     16  H   UNL     1       8.840  -0.055  24.984  0.00  0.00    +0.295 HD
ENDBRANCH  13  15
ENDBRANCH   5  13
BRANCH   1  17
ATOM     17  C   UNL     1       6.244  -4.028  21.733  0.00  0.00    +0.171 C 
BRANCH  17  18
ATOM     18  O   UNL     1       4.894  -4.079  22.244  0.00  0.00    -0.387 OA
ATOM     19  H   UNL     1       4.995  -3.977  23.213  0.00  0.00    +0.210 HD
ENDBRANCH  17  18
BRANCH  17  20
ATOM     20  C   UNL     1       6.687  -5.473  21.486  0.00  0.00    +0.189 C 
BRANCH  20  21
ATOM     21  O   UNL     1       5.554  -6.329  21.688  0.00  0.00    -0.392 OA
ATOM     22  H   UNL     1       5.205  -6.537  20.803  0.00  0.00    +0.210 HD
ENDBRANCH  20  21
ENDBRANCH  17  20
ENDBRANCH   1  17
TORSDOF 9
ENDMDL
