MODEL 1
REMARK VINA RESULT:      -6.7      0.000      0.000
REMARK  Name = 
REMARK  2 active torsions:
REMARK  status: ('A' for Active; 'I' for Inactive)
REMARK    1  A    between atoms: N_2  and  C_4
REMARK    2  A    between atoms: C_13  and  C_14
REMARK                            x       y       z     vdW  Elec       q    Type
REMARK                         _______ _______ _______ _____ _____    ______ ____
ROOT
ATOM      1  C   UNL     1       6.123  -5.190  21.856  0.00  0.00    +0.274 A 
ATOM      2  C   UNL     1       5.115  -5.788  22.619  0.00  0.00    +0.086 A 
ATOM      3  C   UNL     1       5.213  -5.776  24.012  0.00  0.00    +0.030 A 
ATOM      4  C   UNL     1       6.310  -5.181  24.655  0.00  0.00    +0.043 A 
ATOM      5  N   UNL     1       6.326  -5.274  26.054  0.00  0.00    -0.283 N 
ATOM      6  H   UNL     1       5.473  -5.502  26.549  0.00  0.00    +0.155 HD
ATOM      7  C   UNL     1       7.427  -5.280  26.872  0.00  0.00    +0.239 C 
ATOM      8  C   UNL     1       8.793  -5.285  26.215  0.00  0.00    +0.238 C 
ATOM      9  N   UNL     1       9.043  -4.015  25.549  0.00  0.00    -0.273 NA
ATOM     10  C   UNL     1       8.360  -3.686  24.506  0.00  0.00    +0.075 C 
ATOM     11  O   UNL     1       7.268  -5.395  28.089  0.00  0.00    -0.273 OA
ATOM     12  C   UNL     1       7.293  -4.534  23.884  0.00  0.00    +0.028 A 
ATOM     13  C   UNL     1       7.215  -4.575  22.479  0.00  0.00    +0.096 A 
ENDROOT
BRANCH  10  14
ATOM     14  C   UNL     1       8.663  -2.343  23.903  0.00  0.00    +0.001 A 
ATOM     15  C   UNL     1       7.717  -1.308  23.902  0.00  0.00    +0.010 A 
ATOM     16  C   UNL     1       8.029  -0.073  23.331  0.00  0.00    +0.001 A 
ATOM     17  C   UNL     1       9.293   0.144  22.783  0.00  0.00    +0.000 A 
ATOM     18  C   UNL     1      10.248  -0.871  22.806  0.00  0.00    +0.001 A 
ATOM     19  C   UNL     1       9.936  -2.112  23.365  0.00  0.00    +0.010 A 
ENDBRANCH  10  14
BRANCH   1  21
ATOM     20  O   UNL     1       6.140  -6.239  19.788  0.00  0.00    -0.576 OA
ATOM     21  N   UNL     1       6.010  -5.166  20.392  0.00  0.00    +0.080 N 
ATOM     22  O   UNL     1       5.803  -4.071  19.849  0.00  0.00    +0.041 OA
ENDBRANCH   1  21
TORSDOF 2
ENDMDL
MODEL 2
REMARK VINA RESULT:      -6.3      7.137      9.974
REMARK  Name = 
REMARK  2 active torsions:
REMARK  status: ('A' for Active; 'I' for Inactive)
REMARK    1  A    between atoms: N_2  and  C_4
REMARK    2  A    between atoms: C_13  and  C_14
REMARK                            x       y       z     vdW  Elec       q    Type
REMARK                         _______ _______ _______ _____ _____    ______ ____
ROOT
ATOM      1  C   UNL     1      12.201   5.535  23.429  0.00  0.00    +0.274 A 
ATOM      2  C   UNL     1      12.053   6.468  24.459  0.00  0.00    +0.086 A 
ATOM      3  C   UNL     1      10.848   6.529  25.161  0.00  0.00    +0.030 A 
ATOM      4  C   UNL     1       9.782   5.673  24.842  0.00  0.00    +0.043 A 
ATOM      5  N   UNL     1       8.604   5.858  25.580  0.00  0.00    -0.283 N 
ATOM      6  H   UNL     1       8.636   6.374  26.451  0.00  0.00    +0.155 HD
ATOM      7  C   UNL     1       7.321   5.584  25.178  0.00  0.00    +0.239 C 
ATOM      8  C   UNL     1       7.115   5.119  23.750  0.00  0.00    +0.238 C 
ATOM      9  N   UNL     1       7.675   3.789  23.560  0.00  0.00    -0.273 NA
ATOM     10  C   UNL     1       8.952   3.612  23.609  0.00  0.00    +0.075 C 
ATOM     11  O   UNL     1       6.387   5.832  25.944  0.00  0.00    -0.273 OA
ATOM     12  C   UNL     1       9.954   4.700  23.841  0.00  0.00    +0.028 A 
ATOM     13  C   UNL     1      11.156   4.660  23.109  0.00  0.00    +0.096 A 
ENDROOT
BRANCH  10  14
ATOM     14  C   UNL     1       9.438   2.201  23.435  0.00  0.00    +0.001 A 
ATOM     15  C   UNL     1       9.910   1.448  24.520  0.00  0.00    +0.010 A 
ATOM     16  C   UNL     1      10.358   0.140  24.325  0.00  0.00    +0.001 A 
ATOM     17  C   UNL     1      10.314  -0.431  23.053  0.00  0.00    +0.000 A 
ATOM     18  C   UNL     1       9.820   0.301  21.975  0.00  0.00    +0.001 A 
ATOM     19  C   UNL     1       9.382   1.613  22.164  0.00  0.00    +0.010 A 
ENDBRANCH  10  14
BRANCH   1  21
ATOM     20  O   UNL     1      13.505   5.824  21.533  0.00  0.00    -0.576 OA
ATOM     21  N   UNL     1      13.478   5.439  22.710  0.00  0.00    +0.080 N 
ATOM     22  O   UNL     1      14.448   4.969  23.321  0.00  0.00    +0.041 OA
ENDBRANCH   1  21
TORSDOF 2
ENDMDL
MODEL 3
REMARK VINA RESULT:      -6.1      3.384      4.844
REMARK  Name = 
REMARK  2 active torsions:
REMARK  status: ('A' for Active; 'I' for Inactive)
REMARK    1  A    between atoms: N_2  and  C_4
REMARK    2  A    between atoms: C_13  and  C_14
REMARK                            x       y       z     vdW  Elec       q    Type
REMARK                         _______ _______ _______ _____ _____    ______ ____
ROOT
ATOM      1  C   UNL     1       5.614  -0.355  25.938  0.00  0.00    +0.274 A 
ATOM      2  C   UNL     1       5.596  -1.405  26.861  0.00  0.00    +0.086 A 
ATOM      3  C   UNL     1       6.397  -2.527  26.639  0.00  0.00    +0.030 A 
ATOM      4  C   UNL     1       7.213  -2.618  25.501  0.00  0.00    +0.043 A 
ATOM      5  N   UNL     1       7.935  -3.811  25.357  0.00  0.00    -0.283 N 
ATOM      6  H   UNL     1       8.062  -4.418  26.158  0.00  0.00    +0.155 HD
ATOM      7  C   UNL     1       8.358  -4.390  24.188  0.00  0.00    +0.239 C 
ATOM      8  C   UNL     1       7.930  -3.742  22.886  0.00  0.00    +0.238 C 
ATOM      9  N   UNL     1       8.582  -2.450  22.720  0.00  0.00    -0.273 NA
ATOM     10  C   UNL     1       8.280  -1.469  23.501  0.00  0.00    +0.075 C 
ATOM     11  O   UNL     1       8.964  -5.462  24.234  0.00  0.00    -0.273 OA
ATOM     12  C   UNL     1       7.268  -1.536  24.602  0.00  0.00    +0.028 A 
ATOM     13  C   UNL     1       6.435  -0.420  24.806  0.00  0.00    +0.096 A 
ENDROOT
BRANCH  10  14
ATOM     14  C   UNL     1       9.027  -0.183  23.278  0.00  0.00    +0.001 A 
ATOM     15  C   UNL     1       9.840   0.376  24.274  0.00  0.00    +0.010 A 
ATOM     16  C   UNL     1      10.518   1.573  24.036  0.00  0.00    +0.001 A 
ATOM     17  C   UNL     1      10.408   2.204  22.798  0.00  0.00    +0.000 A 
ATOM     18  C   UNL     1       9.624   1.640  21.793  0.00  0.00    +0.001 A 
ATOM     19  C   UNL     1       8.935   0.449  22.031  0.00  0.00    +0.010 A 
ENDBRANCH  10  14
BRANCH   1  21
ATOM     20  O   UNL     1       4.357   1.447  25.196  0.00  0.00    -0.576 OA
ATOM     21  N   UNL     1       4.802   0.844  26.182  0.00  0.00    +0.080 N 
ATOM     22  O   UNL     1       4.621   1.186  27.359  0.00  0.00    +0.041 OA
ENDBRANCH   1  21
TORSDOF 2
ENDMDL
MODEL 4
REMARK VINA RESULT:      -6.0      4.928      7.406
REMARK  Name = 
REMARK  2 active torsions:
REMARK  status: ('A' for Active; 'I' for Inactive)
REMARK    1  A    between atoms: N_2  and  C_4
REMARK    2  A    between atoms: C_13  and  C_14
REMARK                            x       y       z     vdW  Elec       q    Type
REMARK                         _______ _______ _______ _____ _____    ______ ____
ROOT
ATOM      1  C   UNL     1       7.528   1.509  26.499  0.00  0.00    +0.274 A 
ATOM      2  C   UNL     1       7.873   0.216  26.906  0.00  0.00    +0.086 A 
ATOM      3  C   UNL     1       8.696  -0.562  26.089  0.00  0.00    +0.030 A 
ATOM      4  C   UNL     1       9.173  -0.069  24.865  0.00  0.00    +0.043 A 
ATOM      5  N   UNL     1       9.949  -0.956  24.106  0.00  0.00    -0.283 N 
ATOM      6  H   UNL     1      10.353  -1.772  24.550  0.00  0.00    +0.155 HD
ATOM      7  C   UNL     1      10.094  -0.975  22.742  0.00  0.00    +0.239 C 
ATOM      8  C   UNL     1       9.260  -0.002  21.932  0.00  0.00    +0.238 C 
ATOM      9  N   UNL     1       9.703   1.366  22.164  0.00  0.00    -0.273 NA
ATOM     10  C   UNL     1       9.526   1.916  23.317  0.00  0.00    +0.075 C 
ATOM     11  O   UNL     1      10.798  -1.845  22.226  0.00  0.00    -0.273 OA
ATOM     12  C   UNL     1       8.867   1.251  24.486  0.00  0.00    +0.028 A 
ATOM     13  C   UNL     1       8.010   2.025  25.291  0.00  0.00    +0.096 A 
ENDROOT
BRANCH  10  14
ATOM     14  C   UNL     1      10.044   3.318  23.475  0.00  0.00    +0.001 A 
ATOM     15  C   UNL     1      11.415   3.606  23.413  0.00  0.00    +0.010 A 
ATOM     16  C   UNL     1      11.864   4.919  23.568  0.00  0.00    +0.001 A 
ATOM     17  C   UNL     1      10.948   5.952  23.759  0.00  0.00    +0.000 A 
ATOM     18  C   UNL     1       9.582   5.678  23.794  0.00  0.00    +0.001 A 
ATOM     19  C   UNL     1       9.129   4.365  23.652  0.00  0.00    +0.010 A 
ENDBRANCH  10  14
BRANCH   1  21
ATOM     20  O   UNL     1       7.264   3.191  28.074  0.00  0.00    -0.576 OA
ATOM     21  N   UNL     1       6.693   2.347  27.370  0.00  0.00    +0.080 N 
ATOM     22  O   UNL     1       5.470   2.151  27.355  0.00  0.00    +0.041 OA
ENDBRANCH   1  21
TORSDOF 2
ENDMDL
MODEL 5
REMARK VINA RESULT:      -5.9      4.450      6.593
REMARK  Name = 
REMARK  2 active torsions:
REMARK  status: ('A' for Active; 'I' for Inactive)
REMARK    1  A    between atoms: N_2  and  C_4
REMARK    2  A    between atoms: C_13  and  C_14
REMARK                            x       y       z     vdW  Elec       q    Type
REMARK                         _______ _______ _______ _____ _____    ______ ____
ROOT
ATOM      1  C   UNL     1       9.849   2.041  23.207  0.00  0.00    +0.274 A 
ATOM      2  C   UNL     1       9.832   1.599  21.881  0.00  0.00    +0.086 A 
ATOM      3  C   UNL     1       9.283   0.350  21.582  0.00  0.00    +0.030 A 
ATOM      4  C   UNL     1       8.757  -0.469  22.593  0.00  0.00    +0.043 A 
ATOM      5  N   UNL     1       8.279  -1.721  22.182  0.00  0.00    -0.283 N 
ATOM      6  H   UNL     1       8.079  -1.883  21.203  0.00  0.00    +0.155 HD
ATOM      7  C   UNL     1       8.214  -2.870  22.928  0.00  0.00    +0.239 C 
ATOM      8  C   UNL     1       8.807  -2.839  24.323  0.00  0.00    +0.238 C 
ATOM      9  N   UNL     1       8.011  -1.986  25.196  0.00  0.00    -0.273 NA
ATOM     10  C   UNL     1       7.980  -0.712  25.001  0.00  0.00    +0.075 C 
ATOM     11  O   UNL     1       7.788  -3.902  22.404  0.00  0.00    -0.273 OA
ATOM     12  C   UNL     1       8.729   0.003  23.918  0.00  0.00    +0.028 A 
ATOM     13  C   UNL     1       9.312   1.246  24.227  0.00  0.00    +0.096 A 
ENDROOT
BRANCH  10  14
ATOM     14  C   UNL     1       7.107   0.085  25.929  0.00  0.00    +0.001 A 
ATOM     15  C   UNL     1       5.936   0.711  25.480  0.00  0.00    +0.010 A 
ATOM     16  C   UNL     1       5.149   1.447  26.367  0.00  0.00    +0.001 A 
ATOM     17  C   UNL     1       5.512   1.541  27.711  0.00  0.00    +0.000 A 
ATOM     18  C   UNL     1       6.660   0.898  28.170  0.00  0.00    +0.001 A 
ATOM     19  C   UNL     1       7.456   0.171  27.284  0.00  0.00    +0.010 A 
ENDBRANCH  10  14
BRANCH   1  21
ATOM     20  O   UNL     1       9.590   4.249  23.869  0.00  0.00    -0.576 OA
ATOM     21  N   UNL     1      10.391   3.368  23.526  0.00  0.00    +0.080 N 
ATOM     22  O   UNL     1      11.615   3.529  23.421  0.00  0.00    +0.041 OA
ENDBRANCH   1  21
TORSDOF 2
ENDMDL
MODEL 6
REMARK VINA RESULT:      -5.9      2.769      5.167
REMARK  Name = 
REMARK  2 active torsions:
REMARK  status: ('A' for Active; 'I' for Inactive)
REMARK    1  A    between atoms: N_2  and  C_4
REMARK    2  A    between atoms: C_13  and  C_14
REMARK                            x       y       z     vdW  Elec       q    Type
REMARK                         _______ _______ _______ _____ _____    ______ ____
ROOT
ATOM      1  C   UNL     1       7.767  -3.228  24.244  0.00  0.00    +0.274 A 
ATOM      2  C   UNL     1       8.913  -3.867  24.727  0.00  0.00    +0.086 A 
ATOM      3  C   UNL     1       8.794  -4.797  25.762  0.00  0.00    +0.030 A 
ATOM      4  C   UNL     1       7.544  -5.091  26.329  0.00  0.00    +0.043 A 
ATOM      5  N   UNL     1       7.552  -6.002  27.395  0.00  0.00    -0.283 N 
ATOM      6  H   UNL     1       8.359  -6.596  27.538  0.00  0.00    +0.155 HD
ATOM      7  C   UNL     1       6.655  -6.076  28.430  0.00  0.00    +0.239 C 
ATOM      8  C   UNL     1       5.580  -5.009  28.509  0.00  0.00    +0.238 C 
ATOM      9  N   UNL     1       4.635  -5.155  27.411  0.00  0.00    -0.273 NA
ATOM     10  C   UNL     1       5.011  -4.921  26.200  0.00  0.00    +0.075 C 
ATOM     11  O   UNL     1       6.821  -6.925  29.308  0.00  0.00    -0.273 OA
ATOM     12  C   UNL     1       6.388  -4.485  25.803  0.00  0.00    +0.028 A 
ATOM     13  C   UNL     1       6.509  -3.523  24.783  0.00  0.00    +0.096 A 
ENDROOT
BRANCH  10  14
ATOM     14  C   UNL     1       3.978  -5.129  25.128  0.00  0.00    +0.001 A 
ATOM     15  C   UNL     1       4.151  -6.085  24.116  0.00  0.00    +0.010 A 
ATOM     16  C   UNL     1       3.173  -6.252  23.133  0.00  0.00    +0.001 A 
ATOM     17  C   UNL     1       2.010  -5.484  23.168  0.00  0.00    +0.000 A 
ATOM     18  C   UNL     1       1.818  -4.551  24.186  0.00  0.00    +0.001 A 
ATOM     19  C   UNL     1       2.799  -4.374  25.165  0.00  0.00    +0.010 A 
ENDBRANCH  10  14
BRANCH   1  21
ATOM     20  O   UNL     1       8.909  -2.313  22.445  0.00  0.00    -0.576 OA
ATOM     21  N   UNL     1       7.878  -2.277  23.130  0.00  0.00    +0.080 N 
ATOM     22  O   UNL     1       6.940  -1.487  22.953  0.00  0.00    +0.041 OA
ENDBRANCH   1  21
TORSDOF 2
ENDMDL
MODEL 7
REMARK VINA RESULT:      -5.9      4.568      7.191
REMARK  Name = 
REMARK  2 active torsions:
REMARK  status: ('A' for Active; 'I' for Inactive)
REMARK    1  A    between atoms: N_2  and  C_4
REMARK    2  A    between atoms: C_13  and  C_14
REMARK                            x       y       z     vdW  Elec       q    Type
REMARK                         _______ _______ _______ _____ _____    ______ ____
ROOT
ATOM      1  C   UNL     1       8.928  -0.634  22.533  0.00  0.00    +0.274 A 
ATOM      2  C   UNL     1       9.844   0.181  21.862  0.00  0.00    +0.086 A 
ATOM      3  C   UNL     1       9.622   1.558  21.804  0.00  0.00    +0.030 A 
ATOM      4  C   UNL     1       8.489   2.133  22.402  0.00  0.00    +0.043 A 
ATOM      5  N   UNL     1       8.343   3.517  22.237  0.00  0.00    -0.283 N 
ATOM      6  H   UNL     1       9.141   4.073  21.954  0.00  0.00    +0.155 HD
ATOM      7  C   UNL     1       7.174   4.234  22.225  0.00  0.00    +0.239 C 
ATOM      8  C   UNL     1       5.872   3.459  22.301  0.00  0.00    +0.238 C 
ATOM      9  N   UNL     1       5.721   2.843  23.612  0.00  0.00    -0.273 NA
ATOM     10  C   UNL     1       6.505   1.885  23.971  0.00  0.00    +0.075 C 
ATOM     11  O   UNL     1       7.218   5.452  22.041  0.00  0.00    -0.273 OA
ATOM     12  C   UNL     1       7.598   1.315  23.121  0.00  0.00    +0.028 A 
ATOM     13  C   UNL     1       7.802  -0.078  23.151  0.00  0.00    +0.096 A 
ENDROOT
BRANCH  10  14
ATOM     14  C   UNL     1       6.297   1.333  25.353  0.00  0.00    +0.001 A 
ATOM     15  C   UNL     1       5.232   0.469  25.647  0.00  0.00    +0.010 A 
ATOM     16  C   UNL     1       5.065  -0.024  26.943  0.00  0.00    +0.001 A 
ATOM     17  C   UNL     1       5.972   0.322  27.944  0.00  0.00    +0.000 A 
ATOM     18  C   UNL     1       7.049   1.157  27.653  0.00  0.00    +0.001 A 
ATOM     19  C   UNL     1       7.213   1.662  26.361  0.00  0.00    +0.010 A 
ENDBRANCH  10  14
BRANCH   1  21
ATOM     20  O   UNL     1      10.314  -2.449  22.938  0.00  0.00    -0.576 OA
ATOM     21  N   UNL     1       9.173  -2.080  22.630  0.00  0.00    +0.080 N 
ATOM     22  O   UNL     1       8.227  -2.841  22.385  0.00  0.00    +0.041 OA
ENDBRANCH   1  21
TORSDOF 2
ENDMDL
MODEL 8
REMARK VINA RESULT:      -5.9      2.285      2.543
REMARK  Name = 
REMARK  2 active torsions:
REMARK  status: ('A' for Active; 'I' for Inactive)
REMARK    1  A    between atoms: N_2  and  C_4
REMARK    2  A    between atoms: C_13  and  C_14
REMARK                            x       y       z     vdW  Elec       q    Type
REMARK                         _______ _______ _______ _____ _____    ______ ____
ROOT
ATOM      1  C   UNL     1       6.008  -4.659  22.616  0.00  0.00    +0.274 A 
ATOM      2  C   UNL     1       4.682  -4.769  23.047  0.00  0.00    +0.086 A 
ATOM      3  C   UNL     1       4.216  -3.916  24.050  0.00  0.00    +0.030 A 
ATOM      4  C   UNL     1       5.060  -2.959  24.635  0.00  0.00    +0.043 A 
ATOM      5  N   UNL     1       4.497  -2.193  25.666  0.00  0.00    -0.283 N 
ATOM      6  H   UNL     1       3.490  -2.154  25.767  0.00  0.00    +0.155 HD
ATOM      7  C   UNL     1       5.154  -1.608  26.718  0.00  0.00    +0.239 C 
ATOM      8  C   UNL     1       6.638  -1.883  26.863  0.00  0.00    +0.238 C 
ATOM      9  N   UNL     1       7.381  -1.249  25.782  0.00  0.00    -0.273 NA
ATOM     10  C   UNL     1       7.252  -1.674  24.572  0.00  0.00    +0.075 C 
ATOM     11  O   UNL     1       4.503  -0.985  27.560  0.00  0.00    -0.273 OA
ATOM     12  C   UNL     1       6.376  -2.817  24.160  0.00  0.00    +0.028 A 
ATOM     13  C   UNL     1       6.859  -3.698  23.173  0.00  0.00    +0.096 A 
ENDROOT
BRANCH  10  14
ATOM     14  C   UNL     1       8.031  -0.939  23.518  0.00  0.00    +0.001 A 
ATOM     15  C   UNL     1       7.518   0.203  22.887  0.00  0.00    +0.010 A 
ATOM     16  C   UNL     1       8.266   0.861  21.909  0.00  0.00    +0.001 A 
ATOM     17  C   UNL     1       9.539   0.398  21.574  0.00  0.00    +0.000 A 
ATOM     18  C   UNL     1      10.067  -0.720  22.217  0.00  0.00    +0.001 A 
ATOM     19  C   UNL     1       9.317  -1.388  23.187  0.00  0.00    +0.010 A 
ENDBRANCH  10  14
BRANCH   1  21
ATOM     20  O   UNL     1       5.929  -5.453  20.438  0.00  0.00    -0.576 OA
ATOM     21  N   UNL     1       6.496  -5.528  21.536  0.00  0.00    +0.080 N 
ATOM     22  O   UNL     1       7.438  -6.290  21.794  0.00  0.00    +0.041 OA
ENDBRANCH   1  21
TORSDOF 2
ENDMDL
MODEL 9
REMARK VINA RESULT:      -5.8      3.432      6.094
REMARK  Name = 
REMARK  2 active torsions:
REMARK  status: ('A' for Active; 'I' for Inactive)
REMARK    1  A    between atoms: N_2  and  C_4
REMARK    2  A    between atoms: C_13  and  C_14
REMARK                            x       y       z     vdW  Elec       q    Type
REMARK                         _______ _______ _______ _____ _____    ______ ____
ROOT
ATOM      1  C   UNL     1       5.497  -0.668  25.617  0.00  0.00    +0.274 A 
ATOM      2  C   UNL     1       5.405   0.677  25.247  0.00  0.00    +0.086 A 
ATOM      3  C   UNL     1       6.303   1.194  24.311  0.00  0.00    +0.030 A 
ATOM      4  C   UNL     1       7.300   0.385  23.744  0.00  0.00    +0.043 A 
ATOM      5  N   UNL     1       8.176   1.023  22.854  0.00  0.00    -0.283 N 
ATOM      6  H   UNL     1       7.918   1.917  22.454  0.00  0.00    +0.155 HD
ATOM      7  C   UNL     1       9.475   0.680  22.578  0.00  0.00    +0.239 C 
ATOM      8  C   UNL     1      10.090  -0.452  23.379  0.00  0.00    +0.238 C 
ATOM      9  N   UNL     1       9.465  -1.721  23.030  0.00  0.00    -0.273 NA
ATOM     10  C   UNL     1       8.235  -1.944  23.346  0.00  0.00    +0.075 C 
ATOM     11  O   UNL     1      10.121   1.367  21.784  0.00  0.00    -0.273 OA
ATOM     12  C   UNL     1       7.355  -0.980  24.079  0.00  0.00    +0.028 A 
ATOM     13  C   UNL     1       6.473  -1.495  25.048  0.00  0.00    +0.096 A 
ENDROOT
BRANCH  10  14
ATOM     14  C   UNL     1       7.665  -3.267  22.917  0.00  0.00    +0.001 A 
ATOM     15  C   UNL     1       8.069  -4.470  23.514  0.00  0.00    +0.010 A 
ATOM     16  C   UNL     1       7.522  -5.682  23.090  0.00  0.00    +0.001 A 
ATOM     17  C   UNL     1       6.552  -5.699  22.088  0.00  0.00    +0.000 A 
ATOM     18  C   UNL     1       6.125  -4.505  21.509  0.00  0.00    +0.001 A 
ATOM     19  C   UNL     1       6.679  -3.291  21.922  0.00  0.00    +0.010 A 
ENDBRANCH  10  14
BRANCH   1  21
ATOM     20  O   UNL     1       4.853  -1.240  27.770  0.00  0.00    -0.576 OA
ATOM     21  N   UNL     1       4.533  -1.228  26.574  0.00  0.00    +0.080 N 
ATOM     22  O   UNL     1       3.465  -1.666  26.124  0.00  0.00    +0.041 OA
ENDBRANCH   1  21
TORSDOF 2
ENDMDL
