MODEL 1
REMARK VINA RESULT:      -8.0      0.000      0.000
REMARK  Name = 
REMARK  7 active torsions:
REMARK  status: ('A' for Active; 'I' for Inactive)
REMARK    1  A    between atoms: O_1  and  C_2
REMARK    2  A    between atoms: C_5  and  C_6
REMARK    3  A    between atoms: C_6  and  C_7
REMARK    4  A    between atoms: C_13  and  C_23
REMARK    5  A    between atoms: C_15  and  C_16
REMARK    6  A    between atoms: C_16  and  C_17
REMARK    7  A    between atoms: C_26  and  O_27
REMARK                            x       y       z     vdW  Elec       q    Type
REMARK                         _______ _______ _______ _____ _____    ______ ____
ROOT
ATOM      1  C   UNL     1       6.813  -4.615  26.982  0.00  0.00    +0.223 C 
ATOM      2  N   UNL     1       6.202  -3.564  26.312  0.00  0.00    -0.269 N 
ATOM      3  H   UNL     1       5.270  -3.298  26.607  0.00  0.00    +0.156 HD
ATOM      4  C   UNL     1       6.932  -2.474  25.757  0.00  0.00    +0.147 A 
ATOM      5  C   UNL     1       8.140  -2.578  25.057  0.00  0.00    +0.086 A 
ATOM      6  N   UNL     1       8.854  -1.464  24.677  0.00  0.00    -0.246 NA
ATOM      7  C   UNL     1       8.326  -0.238  24.886  0.00  0.00    +0.089 A 
ATOM      8  C   UNL     1       7.077  -0.164  25.492  0.00  0.00    +0.141 A 
ATOM      9  N   UNL     1       6.359  -1.254  25.929  0.00  0.00    -0.236 NA
ATOM     10  O   UNL     1       8.025  -4.709  27.138  0.00  0.00    -0.275 OA
ENDROOT
BRANCH   7  11
ATOM     11  C   UNL     1       9.184   0.903  24.449  0.00  0.00    +0.002 A 
ATOM     12  C   UNL     1      10.569   0.808  24.207  0.00  0.00    +0.013 A 
ATOM     13  C   UNL     1      11.309   1.909  23.735  0.00  0.00    +0.046 A 
ATOM     14  C   UNL     1      10.682   3.125  23.494  0.00  0.00    +0.117 A 
ATOM     15  C   UNL     1       9.334   3.279  23.768  0.00  0.00    +0.046 A 
ATOM     16  C   UNL     1       8.606   2.179  24.246  0.00  0.00    +0.013 A 
BRANCH  14  17
ATOM     17  O   UNL     1      11.427   4.143  22.985  0.00  0.00    -0.507 OA
ATOM     18  H   UNL     1      11.199   4.965  23.467  0.00  0.00    +0.292 HD
ENDBRANCH  14  17
ENDBRANCH   7  11
BRANCH   1  19
ATOM     19  C   UNL     1       5.875  -5.684  27.545  0.00  0.00    +0.131 C 
BRANCH  19  23
ATOM     20  C   UNL     1       3.246  -7.512  24.658  0.00  0.00    +0.117 A 
ATOM     21  C   UNL     1       4.469  -7.005  24.241  0.00  0.00    +0.045 A 
ATOM     22  C   UNL     1       5.318  -6.394  25.169  0.00  0.00    +0.007 A 
ATOM     23  C   UNL     1       4.945  -6.290  26.520  0.00  0.00    -0.038 A 
ATOM     24  C   UNL     1       3.685  -6.767  26.908  0.00  0.00    +0.007 A 
ATOM     25  C   UNL     1       2.841  -7.384  25.981  0.00  0.00    +0.045 A 
BRANCH  20  26
ATOM     26  O   UNL     1       2.461  -8.139  23.735  0.00  0.00    -0.507 OA
ATOM     27  H   UNL     1       1.840  -7.491  23.365  0.00  0.00    +0.292 HD
ENDBRANCH  20  26
ENDBRANCH  19  23
ENDBRANCH   1  19
BRANCH   5  28
ATOM     28  C   UNL     1       8.633  -3.851  24.407  0.00  0.00    +0.094 C 
BRANCH  28  29
ATOM     29  C   UNL     1       7.638  -4.311  23.351  0.00  0.00    -0.041 A 
ATOM     30  C   UNL     1       6.809  -3.383  22.702  0.00  0.00    +0.004 A 
ATOM     31  C   UNL     1       6.068  -3.766  21.583  0.00  0.00    +0.000 A 
ATOM     32  C   UNL     1       6.141  -5.075  21.110  0.00  0.00    +0.000 A 
ATOM     33  C   UNL     1       6.932  -6.013  21.771  0.00  0.00    +0.000 A 
ATOM     34  C   UNL     1       7.672  -5.636  22.889  0.00  0.00    +0.004 A 
ENDBRANCH  28  29
ENDBRANCH   5  28
TORSDOF 7
ENDMDL
MODEL 2
REMARK VINA RESULT:      -7.7      1.948      8.814
REMARK  Name = 
REMARK  7 active torsions:
REMARK  status: ('A' for Active; 'I' for Inactive)
REMARK    1  A    between atoms: O_1  and  C_2
REMARK    2  A    between atoms: C_5  and  C_6
REMARK    3  A    between atoms: C_6  and  C_7
REMARK    4  A    between atoms: C_13  and  C_23
REMARK    5  A    between atoms: C_15  and  C_16
REMARK    6  A    between atoms: C_16  and  C_17
REMARK    7  A    between atoms: C_26  and  O_27
REMARK                            x       y       z     vdW  Elec       q    Type
REMARK                         _______ _______ _______ _____ _____    ______ ____
ROOT
ATOM      1  C   UNL     1       9.599  -2.612  23.556  0.00  0.00    +0.223 C 
ATOM      2  N   UNL     1       8.306  -2.266  23.189  0.00  0.00    -0.269 N 
ATOM      3  H   UNL     1       8.190  -1.690  22.364  0.00  0.00    +0.156 HD
ATOM      4  C   UNL     1       7.184  -3.109  23.429  0.00  0.00    +0.147 A 
ATOM      5  C   UNL     1       6.949  -3.836  24.602  0.00  0.00    +0.086 A 
ATOM      6  N   UNL     1       5.915  -4.738  24.700  0.00  0.00    -0.246 NA
ATOM      7  C   UNL     1       5.036  -4.851  23.679  0.00  0.00    +0.089 A 
ATOM      8  C   UNL     1       5.233  -4.044  22.564  0.00  0.00    +0.141 A 
ATOM      9  N   UNL     1       6.283  -3.167  22.413  0.00  0.00    -0.236 NA
ATOM     10  O   UNL     1       9.887  -3.655  24.131  0.00  0.00    -0.275 OA
ENDROOT
BRANCH   7  11
ATOM     11  C   UNL     1       3.960  -5.866  23.878  0.00  0.00    +0.002 A 
ATOM     12  C   UNL     1       2.813  -5.976  23.067  0.00  0.00    +0.013 A 
ATOM     13  C   UNL     1       1.865  -6.998  23.271  0.00  0.00    +0.046 A 
ATOM     14  C   UNL     1       2.045  -7.929  24.285  0.00  0.00    +0.117 A 
ATOM     15  C   UNL     1       3.130  -7.828  25.139  0.00  0.00    +0.046 A 
ATOM     16  C   UNL     1       4.065  -6.802  24.934  0.00  0.00    +0.013 A 
BRANCH  14  17
ATOM     17  O   UNL     1       1.133  -8.932  24.407  0.00  0.00    -0.507 OA
ATOM     18  H   UNL     1       0.833  -8.966  25.339  0.00  0.00    +0.292 HD
ENDBRANCH  14  17
ENDBRANCH   7  11
BRANCH   1  19
ATOM     19  C   UNL     1      10.689  -1.603  23.191  0.00  0.00    +0.131 C 
BRANCH  19  23
ATOM     20  C   UNL     1       9.428   2.517  23.025  0.00  0.00    +0.117 A 
ATOM     21  C   UNL     1       9.760   1.954  24.250  0.00  0.00    +0.045 A 
ATOM     22  C   UNL     1      10.152   0.613  24.313  0.00  0.00    +0.007 A 
ATOM     23  C   UNL     1      10.214  -0.169  23.147  0.00  0.00    -0.038 A 
ATOM     24  C   UNL     1       9.828   0.407  21.930  0.00  0.00    +0.007 A 
ATOM     25  C   UNL     1       9.444   1.749  21.867  0.00  0.00    +0.045 A 
BRANCH  20  26
ATOM     26  O   UNL     1       9.090   3.838  22.994  0.00  0.00    -0.507 OA
ATOM     27  H   UNL     1       9.224   4.214  23.879  0.00  0.00    +0.292 HD
ENDBRANCH  20  26
ENDBRANCH  19  23
ENDBRANCH   1  19
BRANCH   5  28
ATOM     28  C   UNL     1       7.587  -3.515  25.936  0.00  0.00    +0.094 C 
BRANCH  28  29
ATOM     29  C   UNL     1       7.151  -2.133  26.399  0.00  0.00    -0.041 A 
ATOM     30  C   UNL     1       5.806  -1.875  26.701  0.00  0.00    +0.004 A 
ATOM     31  C   UNL     1       5.444  -0.688  27.339  0.00  0.00    +0.000 A 
ATOM     32  C   UNL     1       6.418   0.252  27.672  0.00  0.00    +0.000 A 
ATOM     33  C   UNL     1       7.752   0.021  27.342  0.00  0.00    +0.000 A 
ATOM     34  C   UNL     1       8.117  -1.162  26.703  0.00  0.00    +0.004 A 
ENDBRANCH  28  29
ENDBRANCH   5  28
TORSDOF 7
ENDMDL
MODEL 3
REMARK VINA RESULT:      -7.6      1.867      8.784
REMARK  Name = 
REMARK  7 active torsions:
REMARK  status: ('A' for Active; 'I' for Inactive)
REMARK    1  A    between atoms: O_1  and  C_2
REMARK    2  A    between atoms: C_5  and  C_6
REMARK    3  A    between atoms: C_6  and  C_7
REMARK    4  A    between atoms: C_13  and  C_23
REMARK    5  A    between atoms: C_15  and  C_16
REMARK    6  A    between atoms: C_16  and  C_17
REMARK    7  A    between atoms: C_26  and  O_27
REMARK                            x       y       z     vdW  Elec       q    Type
REMARK                         _______ _______ _______ _____ _____    ______ ____
ROOT
ATOM      1  C   UNL     1       9.537  -2.597  23.404  0.00  0.00    +0.223 C 
ATOM      2  N   UNL     1       8.256  -2.340  22.935  0.00  0.00    -0.269 N 
ATOM      3  H   UNL     1       8.169  -1.866  22.043  0.00  0.00    +0.156 HD
ATOM      4  C   UNL     1       7.146  -3.187  23.214  0.00  0.00    +0.147 A 
ATOM      5  C   UNL     1       6.868  -3.782  24.451  0.00  0.00    +0.086 A 
ATOM      6  N   UNL     1       5.856  -4.702  24.600  0.00  0.00    -0.246 NA
ATOM      7  C   UNL     1       5.037  -4.960  23.556  0.00  0.00    +0.089 A 
ATOM      8  C   UNL     1       5.272  -4.280  22.366  0.00  0.00    +0.141 A 
ATOM      9  N   UNL     1       6.303  -3.391  22.167  0.00  0.00    -0.236 NA
ATOM     10  O   UNL     1       9.821  -3.558  24.110  0.00  0.00    -0.275 OA
ENDROOT
BRANCH   7  11
ATOM     11  C   UNL     1       3.980  -5.981  23.818  0.00  0.00    +0.002 A 
ATOM     12  C   UNL     1       2.865  -6.200  22.985  0.00  0.00    +0.013 A 
ATOM     13  C   UNL     1       1.937  -7.224  23.255  0.00  0.00    +0.046 A 
ATOM     14  C   UNL     1       2.104  -8.049  24.359  0.00  0.00    +0.117 A 
ATOM     15  C   UNL     1       3.156  -7.836  25.234  0.00  0.00    +0.046 A 
ATOM     16  C   UNL     1       4.072  -6.809  24.962  0.00  0.00    +0.013 A 
BRANCH  14  17
ATOM     17  O   UNL     1       1.213  -9.060  24.548  0.00  0.00    -0.507 OA
ATOM     18  H   UNL     1       0.308  -8.692  24.484  0.00  0.00    +0.292 HD
ENDBRANCH  14  17
ENDBRANCH   7  11
BRANCH   1  19
ATOM     19  C   UNL     1      10.617  -1.601  22.980  0.00  0.00    +0.131 C 
BRANCH  19  23
ATOM     20  C   UNL     1       9.453   2.550  23.065  0.00  0.00    +0.117 A 
ATOM     21  C   UNL     1       9.756   1.902  24.255  0.00  0.00    +0.045 A 
ATOM     22  C   UNL     1      10.116   0.551  24.236  0.00  0.00    +0.007 A 
ATOM     23  C   UNL     1      10.175  -0.156  23.023  0.00  0.00    -0.038 A 
ATOM     24  C   UNL     1       9.818   0.506  21.841  0.00  0.00    +0.007 A 
ATOM     25  C   UNL     1       9.467   1.858  21.860  0.00  0.00    +0.045 A 
BRANCH  20  26
ATOM     26  O   UNL     1       9.147   3.878  23.116  0.00  0.00    -0.507 OA
ATOM     27  H   UNL     1       9.964   4.390  23.007  0.00  0.00    +0.292 HD
ENDBRANCH  20  26
ENDBRANCH  19  23
ENDBRANCH   1  19
BRANCH   5  28
ATOM     28  C   UNL     1       7.425  -3.289  25.768  0.00  0.00    +0.094 C 
BRANCH  28  29
ATOM     29  C   UNL     1       6.730  -3.999  26.921  0.00  0.00    -0.041 A 
ATOM     30  C   UNL     1       5.523  -3.504  27.438  0.00  0.00    +0.004 A 
ATOM     31  C   UNL     1       4.774  -4.272  28.329  0.00  0.00    +0.000 A 
ATOM     32  C   UNL     1       5.224  -5.533  28.717  0.00  0.00    +0.000 A 
ATOM     33  C   UNL     1       6.440  -6.017  28.238  0.00  0.00    +0.000 A 
ATOM     34  C   UNL     1       7.193  -5.253  27.349  0.00  0.00    +0.004 A 
ENDBRANCH  28  29
ENDBRANCH   5  28
TORSDOF 7
ENDMDL
MODEL 4
REMARK VINA RESULT:      -7.5      1.987      3.636
REMARK  Name = 
REMARK  7 active torsions:
REMARK  status: ('A' for Active; 'I' for Inactive)
REMARK    1  A    between atoms: O_1  and  C_2
REMARK    2  A    between atoms: C_5  and  C_6
REMARK    3  A    between atoms: C_6  and  C_7
REMARK    4  A    between atoms: C_13  and  C_23
REMARK    5  A    between atoms: C_15  and  C_16
REMARK    6  A    between atoms: C_16  and  C_17
REMARK    7  A    between atoms: C_26  and  O_27
REMARK                            x       y       z     vdW  Elec       q    Type
REMARK                         _______ _______ _______ _____ _____    ______ ____
ROOT
ATOM      1  C   UNL     1       7.495  -3.775  22.930  0.00  0.00    +0.223 C 
ATOM      2  N   UNL     1       8.231  -3.239  23.978  0.00  0.00    -0.269 N 
ATOM      3  H   UNL     1       8.940  -3.826  24.402  0.00  0.00    +0.156 HD
ATOM      4  C   UNL     1       8.539  -1.852  24.076  0.00  0.00    +0.147 A 
ATOM      5  C   UNL     1       7.655  -0.802  23.798  0.00  0.00    +0.086 A 
ATOM      6  N   UNL     1       8.073   0.509  23.779  0.00  0.00    -0.246 NA
ATOM      7  C   UNL     1       9.341   0.805  24.143  0.00  0.00    +0.089 A 
ATOM      8  C   UNL     1      10.171  -0.248  24.512  0.00  0.00    +0.141 A 
ATOM      9  N   UNL     1       9.801  -1.574  24.495  0.00  0.00    -0.236 NA
ATOM     10  O   UNL     1       7.033  -3.107  22.013  0.00  0.00    -0.275 OA
ENDROOT
BRANCH   7  11
ATOM     11  C   UNL     1       9.697   2.252  24.076  0.00  0.00    +0.002 A 
ATOM     12  C   UNL     1      10.902   2.749  23.539  0.00  0.00    +0.013 A 
ATOM     13  C   UNL     1      11.150   4.133  23.448  0.00  0.00    +0.046 A 
ATOM     14  C   UNL     1      10.200   5.046  23.888  0.00  0.00    +0.117 A 
ATOM     15  C   UNL     1       9.025   4.602  24.470  0.00  0.00    +0.046 A 
ATOM     16  C   UNL     1       8.790   3.223  24.564  0.00  0.00    +0.013 A 
BRANCH  14  17
ATOM     17  O   UNL     1      10.460   6.372  23.727  0.00  0.00    -0.507 OA
ATOM     18  H   UNL     1      11.076   6.655  24.435  0.00  0.00    +0.292 HD
ENDBRANCH  14  17
ENDBRANCH   7  11
BRANCH   1  19
ATOM     19  C   UNL     1       7.288  -5.290  22.965  0.00  0.00    +0.131 C 
BRANCH  19  23
ATOM     20  C   UNL     1       4.485  -6.696  25.924  0.00  0.00    +0.117 A 
ATOM     21  C   UNL     1       4.143  -6.754  24.580  0.00  0.00    +0.045 A 
ATOM     22  C   UNL     1       5.041  -6.283  23.616  0.00  0.00    +0.007 A 
ATOM     23  C   UNL     1       6.285  -5.751  23.997  0.00  0.00    -0.038 A 
ATOM     24  C   UNL     1       6.587  -5.659  25.362  0.00  0.00    +0.007 A 
ATOM     25  C   UNL     1       5.693  -6.138  26.323  0.00  0.00    +0.045 A 
BRANCH  20  26
ATOM     26  O   UNL     1       3.604  -7.203  26.834  0.00  0.00    -0.507 OA
ATOM     27  H   UNL     1       4.048  -7.262  27.696  0.00  0.00    +0.292 HD
ENDBRANCH  20  26
ENDBRANCH  19  23
ENDBRANCH   1  19
BRANCH   5  28
ATOM     28  C   UNL     1       6.150  -0.948  23.780  0.00  0.00    +0.094 C 
BRANCH  28  29
ATOM     29  C   UNL     1       5.659  -1.414  25.143  0.00  0.00    -0.041 A 
ATOM     30  C   UNL     1       5.889  -0.635  26.287  0.00  0.00    +0.004 A 
ATOM     31  C   UNL     1       5.247  -0.943  27.487  0.00  0.00    +0.000 A 
ATOM     32  C   UNL     1       4.381  -2.032  27.558  0.00  0.00    +0.000 A 
ATOM     33  C   UNL     1       4.176  -2.834  26.436  0.00  0.00    +0.000 A 
ATOM     34  C   UNL     1       4.816  -2.531  25.237  0.00  0.00    +0.004 A 
ENDBRANCH  28  29
ENDBRANCH   5  28
TORSDOF 7
ENDMDL
MODEL 5
REMARK VINA RESULT:      -7.5      2.011      8.896
REMARK  Name = 
REMARK  7 active torsions:
REMARK  status: ('A' for Active; 'I' for Inactive)
REMARK    1  A    between atoms: O_1  and  C_2
REMARK    2  A    between atoms: C_5  and  C_6
REMARK    3  A    between atoms: C_6  and  C_7
REMARK    4  A    between atoms: C_13  and  C_23
REMARK    5  A    between atoms: C_15  and  C_16
REMARK    6  A    between atoms: C_16  and  C_17
REMARK    7  A    between atoms: C_26  and  O_27
REMARK                            x       y       z     vdW  Elec       q    Type
REMARK                         _______ _______ _______ _____ _____    ______ ____
ROOT
ATOM      1  C   UNL     1       9.350  -1.319  22.639  0.00  0.00    +0.223 C 
ATOM      2  N   UNL     1       7.978  -1.273  22.429  0.00  0.00    -0.269 N 
ATOM      3  H   UNL     1       7.649  -0.846  21.572  0.00  0.00    +0.156 HD
ATOM      4  C   UNL     1       7.089  -2.271  22.920  0.00  0.00    +0.147 A 
ATOM      5  C   UNL     1       7.151  -2.864  24.186  0.00  0.00    +0.086 A 
ATOM      6  N   UNL     1       6.342  -3.922  24.531  0.00  0.00    -0.246 NA
ATOM      7  C   UNL     1       5.387  -4.333  23.667  0.00  0.00    +0.089 A 
ATOM      8  C   UNL     1       5.279  -3.662  22.454  0.00  0.00    +0.141 A 
ATOM      9  N   UNL     1       6.102  -2.633  22.058  0.00  0.00    -0.236 NA
ATOM     10  O   UNL     1       9.911  -2.203  23.275  0.00  0.00    -0.275 OA
ENDROOT
BRANCH   7  11
ATOM     11  C   UNL     1       4.572  -5.495  24.130  0.00  0.00    +0.002 A 
ATOM     12  C   UNL     1       3.467  -6.018  23.430  0.00  0.00    +0.013 A 
ATOM     13  C   UNL     1       2.778  -7.157  23.890  0.00  0.00    +0.046 A 
ATOM     14  C   UNL     1       3.182  -7.798  25.055  0.00  0.00    +0.117 A 
ATOM     15  C   UNL     1       4.229  -7.288  25.802  0.00  0.00    +0.046 A 
ATOM     16  C   UNL     1       4.904  -6.148  25.341  0.00  0.00    +0.013 A 
BRANCH  14  17
ATOM     17  O   UNL     1       2.522  -8.927  25.429  0.00  0.00    -0.507 OA
ATOM     18  H   UNL     1       2.155  -8.789  26.327  0.00  0.00    +0.292 HD
ENDBRANCH  14  17
ENDBRANCH   7  11
BRANCH   1  19
ATOM     19  C   UNL     1      10.159  -0.182  22.012  0.00  0.00    +0.131 C 
BRANCH  19  23
ATOM     20  C   UNL     1       8.762   3.720  23.198  0.00  0.00    +0.117 A 
ATOM     21  C   UNL     1       8.040   2.993  22.261  0.00  0.00    +0.045 A 
ATOM     22  C   UNL     1       8.498   1.735  21.859  0.00  0.00    +0.007 A 
ATOM     23  C   UNL     1       9.682   1.199  22.394  0.00  0.00    -0.038 A 
ATOM     24  C   UNL     1      10.419   1.972  23.302  0.00  0.00    +0.007 A 
ATOM     25  C   UNL     1       9.956   3.226  23.709  0.00  0.00    +0.045 A 
BRANCH  20  26
ATOM     26  O   UNL     1       8.266   4.925  23.599  0.00  0.00    -0.507 OA
ATOM     27  H   UNL     1       8.282   5.536  22.844  0.00  0.00    +0.292 HD
ENDBRANCH  20  26
ENDBRANCH  19  23
ENDBRANCH   1  19
BRANCH   5  28
ATOM     28  C   UNL     1       7.868  -2.253  25.370  0.00  0.00    +0.094 C 
BRANCH  28  29
ATOM     29  C   UNL     1       7.273  -0.888  25.687  0.00  0.00    -0.041 A 
ATOM     30  C   UNL     1       8.095   0.246  25.760  0.00  0.00    +0.004 A 
ATOM     31  C   UNL     1       7.529   1.520  25.821  0.00  0.00    +0.000 A 
ATOM     32  C   UNL     1       6.143   1.671  25.818  0.00  0.00    +0.000 A 
ATOM     33  C   UNL     1       5.319   0.548  25.783  0.00  0.00    +0.000 A 
ATOM     34  C   UNL     1       5.880  -0.726  25.724  0.00  0.00    +0.004 A 
ENDBRANCH  28  29
ENDBRANCH   5  28
TORSDOF 7
ENDMDL
MODEL 6
REMARK VINA RESULT:      -7.4      2.464      3.505
REMARK  Name = 
REMARK  7 active torsions:
REMARK  status: ('A' for Active; 'I' for Inactive)
REMARK    1  A    between atoms: O_1  and  C_2
REMARK    2  A    between atoms: C_5  and  C_6
REMARK    3  A    between atoms: C_6  and  C_7
REMARK    4  A    between atoms: C_13  and  C_23
REMARK    5  A    between atoms: C_15  and  C_16
REMARK    6  A    between atoms: C_16  and  C_17
REMARK    7  A    between atoms: C_26  and  O_27
REMARK                            x       y       z     vdW  Elec       q    Type
REMARK                         _______ _______ _______ _____ _____    ______ ____
ROOT
ATOM      1  C   UNL     1       4.904  -1.554  25.995  0.00  0.00    +0.223 C 
ATOM      2  N   UNL     1       5.580  -1.404  24.792  0.00  0.00    -0.269 N 
ATOM      3  H   UNL     1       5.088  -1.657  23.943  0.00  0.00    +0.156 HD
ATOM      4  C   UNL     1       6.559  -0.392  24.577  0.00  0.00    +0.147 A 
ATOM      5  C   UNL     1       7.545  -0.008  25.493  0.00  0.00    +0.086 A 
ATOM      6  N   UNL     1       8.362   1.076  25.265  0.00  0.00    -0.246 NA
ATOM      7  C   UNL     1       8.288   1.722  24.080  0.00  0.00    +0.089 A 
ATOM      8  C   UNL     1       7.369   1.257  23.146  0.00  0.00    +0.141 A 
ATOM      9  N   UNL     1       6.503   0.208  23.359  0.00  0.00    -0.236 NA
ATOM     10  O   UNL     1       5.100  -0.848  26.977  0.00  0.00    -0.275 OA
ENDROOT
BRANCH   7  11
ATOM     11  C   UNL     1       9.206   2.889  23.937  0.00  0.00    +0.002 A 
ATOM     12  C   UNL     1       8.864   4.214  24.274  0.00  0.00    +0.013 A 
ATOM     13  C   UNL     1       9.800   5.262  24.175  0.00  0.00    +0.046 A 
ATOM     14  C   UNL     1      11.094   5.008  23.739  0.00  0.00    +0.117 A 
ATOM     15  C   UNL     1      11.459   3.731  23.347  0.00  0.00    +0.046 A 
ATOM     16  C   UNL     1      10.518   2.695  23.442  0.00  0.00    +0.013 A 
BRANCH  14  17
ATOM     17  O   UNL     1      11.979   6.041  23.714  0.00  0.00    -0.507 OA
ATOM     18  H   UNL     1      11.825   6.601  24.503  0.00  0.00    +0.292 HD
ENDBRANCH  14  17
ENDBRANCH   7  11
BRANCH   1  19
ATOM     19  C   UNL     1       3.860  -2.672  26.040  0.00  0.00    +0.131 C 
BRANCH  19  23
ATOM     20  C   UNL     1       5.200  -6.398  27.746  0.00  0.00    +0.117 A 
ATOM     21  C   UNL     1       5.028  -5.294  28.570  0.00  0.00    +0.045 A 
ATOM     22  C   UNL     1       4.611  -4.077  28.020  0.00  0.00    +0.007 A 
ATOM     23  C   UNL     1       4.365  -3.963  26.641  0.00  0.00    -0.038 A 
ATOM     24  C   UNL     1       4.592  -5.078  25.823  0.00  0.00    +0.007 A 
ATOM     25  C   UNL     1       5.000  -6.295  26.375  0.00  0.00    +0.045 A 
BRANCH  20  26
ATOM     26  O   UNL     1       5.566  -7.579  28.321  0.00  0.00    -0.507 OA
ATOM     27  H   UNL     1       6.536  -7.621  28.354  0.00  0.00    +0.292 HD
ENDBRANCH  20  26
ENDBRANCH  19  23
ENDBRANCH   1  19
BRANCH   5  28
ATOM     28  C   UNL     1       8.008  -0.870  26.647  0.00  0.00    +0.094 C 
BRANCH  28  29
ATOM     29  C   UNL     1       8.501  -2.211  26.125  0.00  0.00    -0.041 A 
ATOM     30  C   UNL     1       8.045  -3.409  26.696  0.00  0.00    +0.004 A 
ATOM     31  C   UNL     1       8.314  -4.630  26.076  0.00  0.00    +0.000 A 
ATOM     32  C   UNL     1       9.045  -4.666  24.889  0.00  0.00    +0.000 A 
ATOM     33  C   UNL     1       9.534  -3.484  24.335  0.00  0.00    +0.000 A 
ATOM     34  C   UNL     1       9.269  -2.263  24.952  0.00  0.00    +0.004 A 
ENDBRANCH  28  29
ENDBRANCH   5  28
TORSDOF 7
ENDMDL
MODEL 7
REMARK VINA RESULT:      -7.4      1.739      2.606
REMARK  Name = 
REMARK  7 active torsions:
REMARK  status: ('A' for Active; 'I' for Inactive)
REMARK    1  A    between atoms: O_1  and  C_2
REMARK    2  A    between atoms: C_5  and  C_6
REMARK    3  A    between atoms: C_6  and  C_7
REMARK    4  A    between atoms: C_13  and  C_23
REMARK    5  A    between atoms: C_15  and  C_16
REMARK    6  A    between atoms: C_16  and  C_17
REMARK    7  A    between atoms: C_26  and  O_27
REMARK                            x       y       z     vdW  Elec       q    Type
REMARK                         _______ _______ _______ _____ _____    ______ ____
ROOT
ATOM      1  C   UNL     1       5.402  -1.660  26.413  0.00  0.00    +0.223 C 
ATOM      2  N   UNL     1       5.478  -1.045  25.171  0.00  0.00    -0.269 N 
ATOM      3  H   UNL     1       4.609  -0.872  24.680  0.00  0.00    +0.156 HD
ATOM      4  C   UNL     1       6.493  -0.104  24.836  0.00  0.00    +0.147 A 
ATOM      5  C   UNL     1       7.849  -0.219  25.165  0.00  0.00    +0.086 A 
ATOM      6  N   UNL     1       8.740   0.802  24.929  0.00  0.00    -0.246 NA
ATOM      7  C   UNL     1       8.323   1.902  24.263  0.00  0.00    +0.089 A 
ATOM      8  C   UNL     1       6.995   1.949  23.857  0.00  0.00    +0.141 A 
ATOM      9  N   UNL     1       6.065   0.969  24.119  0.00  0.00    -0.236 NA
ATOM     10  O   UNL     1       6.206  -1.465  27.318  0.00  0.00    -0.275 OA
ENDROOT
BRANCH   7  11
ATOM     11  C   UNL     1       9.363   2.956  24.069  0.00  0.00    +0.002 A 
ATOM     12  C   UNL     1      10.662   2.709  23.582  0.00  0.00    +0.013 A 
ATOM     13  C   UNL     1      11.575   3.759  23.361  0.00  0.00    +0.046 A 
ATOM     14  C   UNL     1      11.209   5.073  23.620  0.00  0.00    +0.117 A 
ATOM     15  C   UNL     1       9.961   5.357  24.149  0.00  0.00    +0.046 A 
ATOM     16  C   UNL     1       9.061   4.305  24.373  0.00  0.00    +0.013 A 
BRANCH  14  17
ATOM     17  O   UNL     1      12.104   6.058  23.338  0.00  0.00    -0.507 OA
ATOM     18  H   UNL     1      12.684   6.183  24.118  0.00  0.00    +0.292 HD
ENDBRANCH  14  17
ENDBRANCH   7  11
BRANCH   1  19
ATOM     19  C   UNL     1       4.227  -2.618  26.614  0.00  0.00    +0.131 C 
BRANCH  19  23
ATOM     20  C   UNL     1       4.492  -6.352  24.474  0.00  0.00    +0.117 A 
ATOM     21  C   UNL     1       4.969  -6.277  25.776  0.00  0.00    +0.045 A 
ATOM     22  C   UNL     1       4.903  -5.063  26.469  0.00  0.00    +0.007 A 
ATOM     23  C   UNL     1       4.357  -3.921  25.860  0.00  0.00    -0.038 A 
ATOM     24  C   UNL     1       3.926  -4.010  24.529  0.00  0.00    +0.007 A 
ATOM     25  C   UNL     1       3.984  -5.224  23.841  0.00  0.00    +0.045 A 
BRANCH  20  26
ATOM     26  O   UNL     1       4.533  -7.560  23.843  0.00  0.00    -0.507 OA
ATOM     27  H   UNL     1       5.002  -8.192  24.411  0.00  0.00    +0.292 HD
ENDBRANCH  20  26
ENDBRANCH  19  23
ENDBRANCH   1  19
BRANCH   5  28
ATOM     28  C   UNL     1       8.521  -1.524  25.529  0.00  0.00    +0.094 C 
BRANCH  28  29
ATOM     29  C   UNL     1       8.282  -2.552  24.433  0.00  0.00    -0.041 A 
ATOM     30  C   UNL     1       8.077  -3.902  24.756  0.00  0.00    +0.004 A 
ATOM     31  C   UNL     1       7.633  -4.797  23.782  0.00  0.00    +0.000 A 
ATOM     32  C   UNL     1       7.399  -4.356  22.481  0.00  0.00    +0.000 A 
ATOM     33  C   UNL     1       7.637  -3.025  22.142  0.00  0.00    +0.000 A 
ATOM     34  C   UNL     1       8.081  -2.128  23.111  0.00  0.00    +0.004 A 
ENDBRANCH  28  29
ENDBRANCH   5  28
TORSDOF 7
ENDMDL
MODEL 8
REMARK VINA RESULT:      -7.2      2.489      9.376
REMARK  Name = 
REMARK  7 active torsions:
REMARK  status: ('A' for Active; 'I' for Inactive)
REMARK    1  A    between atoms: O_1  and  C_2
REMARK    2  A    between atoms: C_5  and  C_6
REMARK    3  A    between atoms: C_6  and  C_7
REMARK    4  A    between atoms: C_13  and  C_23
REMARK    5  A    between atoms: C_15  and  C_16
REMARK    6  A    between atoms: C_16  and  C_17
REMARK    7  A    between atoms: C_26  and  O_27
REMARK                            x       y       z     vdW  Elec       q    Type
REMARK                         _______ _______ _______ _____ _____    ______ ____
ROOT
ATOM      1  C   UNL     1       5.695   3.052  23.678  0.00  0.00    +0.223 C 
ATOM      2  N   UNL     1       6.015   2.220  24.742  0.00  0.00    -0.269 N 
ATOM      3  H   UNL     1       5.810   2.554  25.677  0.00  0.00    +0.156 HD
ATOM      4  C   UNL     1       5.982   0.799  24.649  0.00  0.00    +0.147 A 
ATOM      5  C   UNL     1       6.446   0.045  23.564  0.00  0.00    +0.086 A 
ATOM      6  N   UNL     1       6.247  -1.314  23.491  0.00  0.00    -0.246 NA
ATOM      7  C   UNL     1       5.688  -1.959  24.539  0.00  0.00    +0.089 A 
ATOM      8  C   UNL     1       5.327  -1.201  25.647  0.00  0.00    +0.141 A 
ATOM      9  N   UNL     1       5.466   0.166  25.734  0.00  0.00    -0.236 NA
ATOM     10  O   UNL     1       5.376   2.643  22.567  0.00  0.00    -0.275 OA
ENDROOT
BRANCH   7  11
ATOM     11  C   UNL     1       5.505  -3.428  24.354  0.00  0.00    +0.002 A 
ATOM     12  C   UNL     1       5.859  -4.398  25.312  0.00  0.00    +0.013 A 
ATOM     13  C   UNL     1       5.601  -5.767  25.102  0.00  0.00    +0.046 A 
ATOM     14  C   UNL     1       4.983  -6.193  23.933  0.00  0.00    +0.117 A 
ATOM     15  C   UNL     1       4.666  -5.280  22.941  0.00  0.00    +0.046 A 
ATOM     16  C   UNL     1       4.934  -3.920  23.156  0.00  0.00    +0.013 A 
BRANCH  14  17
ATOM     17  O   UNL     1       4.704  -7.518  23.798  0.00  0.00    -0.507 OA
ATOM     18  H   UNL     1       4.111  -7.633  23.027  0.00  0.00    +0.292 HD
ENDBRANCH  14  17
ENDBRANCH   7  11
BRANCH   1  19
ATOM     19  C   UNL     1       5.749   4.554  23.964  0.00  0.00    +0.131 C 
BRANCH  19  23
ATOM     20  C   UNL     1       9.784   6.030  24.334  0.00  0.00    +0.117 A 
ATOM     21  C   UNL     1       9.098   5.628  25.472  0.00  0.00    +0.045 A 
ATOM     22  C   UNL     1       7.782   5.165  25.361  0.00  0.00    +0.007 A 
ATOM     23  C   UNL     1       7.150   5.104  24.108  0.00  0.00    -0.038 A 
ATOM     24  C   UNL     1       7.845   5.560  22.980  0.00  0.00    +0.007 A 
ATOM     25  C   UNL     1       9.162   6.014  23.091  0.00  0.00    +0.045 A 
BRANCH  20  26
ATOM     26  O   UNL     1      11.078   6.435  24.473  0.00  0.00    -0.507 OA
ATOM     27  H   UNL     1      11.570   5.747  24.950  0.00  0.00    +0.292 HD
ENDBRANCH  20  26
ENDBRANCH  19  23
ENDBRANCH   1  19
BRANCH   5  28
ATOM     28  C   UNL     1       7.431   0.560  22.538  0.00  0.00    +0.094 C 
BRANCH  28  29
ATOM     29  C   UNL     1       8.724   0.974  23.225  0.00  0.00    -0.041 A 
ATOM     30  C   UNL     1       9.462   0.045  23.973  0.00  0.00    +0.004 A 
ATOM     31  C   UNL     1      10.751   0.359  24.408  0.00  0.00    +0.000 A 
ATOM     32  C   UNL     1      11.308   1.601  24.107  0.00  0.00    +0.000 A 
ATOM     33  C   UNL     1      10.567   2.544  23.397  0.00  0.00    +0.000 A 
ATOM     34  C   UNL     1       9.280   2.236  22.963  0.00  0.00    +0.004 A 
ENDBRANCH  28  29
ENDBRANCH   5  28
TORSDOF 7
ENDMDL
MODEL 9
REMARK VINA RESULT:      -7.1      2.401      8.792
REMARK  Name = 
REMARK  7 active torsions:
REMARK  status: ('A' for Active; 'I' for Inactive)
REMARK    1  A    between atoms: O_1  and  C_2
REMARK    2  A    between atoms: C_5  and  C_6
REMARK    3  A    between atoms: C_6  and  C_7
REMARK    4  A    between atoms: C_13  and  C_23
REMARK    5  A    between atoms: C_15  and  C_16
REMARK    6  A    between atoms: C_16  and  C_17
REMARK    7  A    between atoms: C_26  and  O_27
REMARK                            x       y       z     vdW  Elec       q    Type
REMARK                         _______ _______ _______ _____ _____    ______ ____
ROOT
ATOM      1  C   UNL     1       6.427   1.438  26.052  0.00  0.00    +0.223 C 
ATOM      2  N   UNL     1       7.016   0.238  26.425  0.00  0.00    -0.269 N 
ATOM      3  H   UNL     1       7.453   0.194  27.339  0.00  0.00    +0.156 HD
ATOM      4  C   UNL     1       6.534  -1.029  25.988  0.00  0.00    +0.147 A 
ATOM      5  C   UNL     1       6.103  -1.330  24.691  0.00  0.00    +0.086 A 
ATOM      6  N   UNL     1       5.517  -2.537  24.385  0.00  0.00    -0.246 NA
ATOM      7  C   UNL     1       5.455  -3.500  25.331  0.00  0.00    +0.089 A 
ATOM      8  C   UNL     1       5.982  -3.212  26.585  0.00  0.00    +0.141 A 
ATOM      9  N   UNL     1       6.530  -2.000  26.939  0.00  0.00    -0.236 NA
ATOM     10  O   UNL     1       5.459   1.515  25.304  0.00  0.00    -0.275 OA
ENDROOT
BRANCH   7  11
ATOM     11  C   UNL     1       4.791  -4.767  24.903  0.00  0.00    +0.002 A 
ATOM     12  C   UNL     1       4.877  -5.985  25.606  0.00  0.00    +0.013 A 
ATOM     13  C   UNL     1       4.173  -7.129  25.182  0.00  0.00    +0.046 A 
ATOM     14  C   UNL     1       3.369  -7.078  24.050  0.00  0.00    +0.117 A 
ATOM     15  C   UNL     1       3.297  -5.918  23.299  0.00  0.00    +0.046 A 
ATOM     16  C   UNL     1       4.007  -4.785  23.724  0.00  0.00    +0.013 A 
BRANCH  14  17
ATOM     17  O   UNL     1       2.665  -8.192  23.711  0.00  0.00    -0.507 OA
ATOM     18  H   UNL     1       2.298  -8.065  22.812  0.00  0.00    +0.292 HD
ENDBRANCH  14  17
ENDBRANCH   7  11
BRANCH   1  19
ATOM     19  C   UNL     1       7.053   2.702  26.642  0.00  0.00    +0.131 C 
BRANCH  19  23
ATOM     20  C   UNL     1       9.582   4.895  23.924  0.00  0.00    +0.117 A 
ATOM     21  C   UNL     1       8.770   5.589  24.810  0.00  0.00    +0.045 A 
ATOM     22  C   UNL     1       7.934   4.884  25.682  0.00  0.00    +0.007 A 
ATOM     23  C   UNL     1       7.909   3.479  25.668  0.00  0.00    -0.038 A 
ATOM     24  C   UNL     1       8.701   2.801  24.732  0.00  0.00    +0.007 A 
ATOM     25  C   UNL     1       9.543   3.507  23.868  0.00  0.00    +0.045 A 
BRANCH  20  26
ATOM     26  O   UNL     1      10.416   5.612  23.118  0.00  0.00    -0.507 OA
ATOM     27  H   UNL     1      10.451   6.527  23.442  0.00  0.00    +0.292 HD
ENDBRANCH  20  26
ENDBRANCH  19  23
ENDBRANCH   1  19
BRANCH   5  28
ATOM     28  C   UNL     1       6.477  -0.523  23.467  0.00  0.00    +0.094 C 
BRANCH  28  29
ATOM     29  C   UNL     1       7.960  -0.692  23.171  0.00  0.00    -0.041 A 
ATOM     30  C   UNL     1       8.670  -1.784  23.692  0.00  0.00    +0.004 A 
ATOM     31  C   UNL     1       9.960  -2.064  23.239  0.00  0.00    +0.000 A 
ATOM     32  C   UNL     1      10.553  -1.254  22.271  0.00  0.00    +0.000 A 
ATOM     33  C   UNL     1       9.869  -0.145  21.776  0.00  0.00    +0.000 A 
ATOM     34  C   UNL     1       8.582   0.139  22.227  0.00  0.00    +0.004 A 
ENDBRANCH  28  29
ENDBRANCH   5  28
TORSDOF 7
ENDMDL
