MODEL 1
REMARK VINA RESULT:      -4.4      0.000      0.000
REMARK  Name = 
REMARK  8 active torsions:
REMARK  status: ('A' for Active; 'I' for Inactive)
REMARK    1  A    between atoms: N_1  and  C_2
REMARK    2  A    between atoms: C_2  and  C_4
REMARK    3  A    between atoms: C_2  and  C_10
REMARK    4  A    between atoms: C_4  and  S_5
REMARK    5  A    between atoms: S_5  and  C_6
REMARK    6  A    between atoms: C_6  and  C_7
REMARK    7  A    between atoms: C_7  and  O_8
REMARK    8  A    between atoms: C_10  and  O_11
REMARK                            x       y       z     vdW  Elec       q    Type
REMARK                         _______ _______ _______ _____ _____    ______ ____
ROOT
ATOM      1  C   UNK     1       8.988  -4.676  25.272  0.00  0.00    +0.171 C 
ENDROOT
BRANCH   1   2
ATOM      2  N   UNK     1       9.990  -5.790  25.283  0.00  0.00    -0.318 NA
ATOM      3  H   UNK     1      10.480  -5.766  26.185  0.00  0.00    +0.119 HD
ATOM      4  H   UNK     1       9.455  -6.663  25.331  0.00  0.00    +0.119 HD
ENDBRANCH   1   2
BRANCH   1   5
ATOM      5  C   UNK     1       8.186  -4.745  26.578  0.00  0.00    +0.323 C 
ATOM      6  O   UNK     1       7.632  -3.803  27.118  0.00  0.00    -0.249 OA
BRANCH   5   7
ATOM      7  O   UNK     1       8.191  -6.007  27.083  0.00  0.00    -0.480 OA
ATOM      8  H   UNK     1       9.069  -6.126  27.525  0.00  0.00    +0.295 HD
ENDBRANCH   5   7
ENDBRANCH   1   5
BRANCH   1   9
ATOM      9  C   UNK     1       8.042  -4.707  24.063  0.00  0.00    +0.099 C 
BRANCH   9  10
ATOM     10  S   UNK     1       8.062  -3.098  23.185  0.00  0.00    -0.147 S 
BRANCH  10  11
ATOM     11  C   UNK     1       9.694  -2.491  23.755  0.00  0.00    +0.189 C 
BRANCH  11  12
ATOM     12  C   UNK     1      10.215  -1.348  22.902  0.00  0.00    +0.315 C 
ATOM     13  O   UNK     1      10.534  -0.263  23.370  0.00  0.00    -0.250 OA
BRANCH  12  14
ATOM     14  O   UNK     1      10.310  -1.610  21.578  0.00  0.00    -0.480 OA
ATOM     15  H   UNK     1      10.305  -2.578  21.418  0.00  0.00    +0.295 HD
ENDBRANCH  12  14
ENDBRANCH  11  12
ENDBRANCH  10  11
ENDBRANCH   9  10
ENDBRANCH   1   9
TORSDOF 8
ENDMDL
MODEL 2
REMARK VINA RESULT:      -4.4      1.948      2.296
REMARK  Name = 
REMARK  8 active torsions:
REMARK  status: ('A' for Active; 'I' for Inactive)
REMARK    1  A    between atoms: N_1  and  C_2
REMARK    2  A    between atoms: C_2  and  C_4
REMARK    3  A    between atoms: C_2  and  C_10
REMARK    4  A    between atoms: C_4  and  S_5
REMARK    5  A    between atoms: S_5  and  C_6
REMARK    6  A    between atoms: C_6  and  C_7
REMARK    7  A    between atoms: C_7  and  O_8
REMARK    8  A    between atoms: C_10  and  O_11
REMARK                            x       y       z     vdW  Elec       q    Type
REMARK                         _______ _______ _______ _____ _____    ______ ____
ROOT
ATOM      1  C   UNK     1       8.074  -4.721  26.072  0.00  0.00    +0.171 C 
ENDROOT
BRANCH   1   2
ATOM      2  N   UNK     1       8.121  -5.687  27.216  0.00  0.00    -0.318 NA
ATOM      3  H   UNK     1       7.215  -5.650  27.699  0.00  0.00    +0.119 HD
ATOM      4  H   UNK     1       8.128  -6.627  26.804  0.00  0.00    +0.119 HD
ENDBRANCH   1   2
BRANCH   1   5
ATOM      5  C   UNK     1       8.952  -5.276  24.944  0.00  0.00    +0.323 C 
ATOM      6  O   UNK     1       8.603  -5.427  23.785  0.00  0.00    -0.249 OA
BRANCH   5   7
ATOM      7  O   UNK     1      10.185  -5.609  25.409  0.00  0.00    -0.480 OA
ATOM      8  H   UNK     1      10.461  -6.419  24.911  0.00  0.00    +0.295 HD
ENDBRANCH   5   7
ENDBRANCH   1   5
BRANCH   1   9
ATOM      9  C   UNK     1       8.520  -3.300  26.445  0.00  0.00    +0.099 C 
BRANCH   9  10
ATOM     10  S   UNK     1       7.898  -2.084  25.222  0.00  0.00    -0.147 S 
BRANCH  10  11
ATOM     11  C   UNK     1       9.495  -1.626  24.449  0.00  0.00    +0.189 C 
BRANCH  11  12
ATOM     12  C   UNK     1       9.562  -2.023  22.985  0.00  0.00    +0.315 C 
ATOM     13  O   UNK     1      10.528  -1.774  22.275  0.00  0.00    -0.250 OA
BRANCH  12  14
ATOM     14  O   UNK     1       8.479  -2.681  22.512  0.00  0.00    -0.480 OA
ATOM     15  H   UNK     1       8.424  -3.579  22.905  0.00  0.00    +0.295 HD
ENDBRANCH  12  14
ENDBRANCH  11  12
ENDBRANCH  10  11
ENDBRANCH   9  10
ENDBRANCH   1   9
TORSDOF 8
ENDMDL
MODEL 3
REMARK VINA RESULT:      -4.2      2.849      3.166
REMARK  Name = 
REMARK  8 active torsions:
REMARK  status: ('A' for Active; 'I' for Inactive)
REMARK    1  A    between atoms: N_1  and  C_2
REMARK    2  A    between atoms: C_2  and  C_4
REMARK    3  A    between atoms: C_2  and  C_10
REMARK    4  A    between atoms: C_4  and  S_5
REMARK    5  A    between atoms: S_5  and  C_6
REMARK    6  A    between atoms: C_6  and  C_7
REMARK    7  A    between atoms: C_7  and  O_8
REMARK    8  A    between atoms: C_10  and  O_11
REMARK                            x       y       z     vdW  Elec       q    Type
REMARK                         _______ _______ _______ _____ _____    ______ ____
ROOT
ATOM      1  C   UNK     1       8.942  -4.472  25.847  0.00  0.00    +0.171 C 
ENDROOT
BRANCH   1   2
ATOM      2  N   UNK     1       9.735  -5.226  24.823  0.00  0.00    -0.318 NA
ATOM      3  H   UNK     1       9.089  -5.536  24.088  0.00  0.00    +0.119 HD
ATOM      4  H   UNK     1      10.321  -4.535  24.342  0.00  0.00    +0.119 HD
ENDBRANCH   1   2
BRANCH   1   5
ATOM      5  C   UNK     1       7.752  -5.345  26.264  0.00  0.00    +0.323 C 
ATOM      6  O   UNK     1       6.731  -5.505  25.617  0.00  0.00    -0.249 OA
BRANCH   5   7
ATOM      7  O   UNK     1       7.968  -5.911  27.481  0.00  0.00    -0.480 OA
ATOM      8  H   UNK     1       8.421  -6.775  27.310  0.00  0.00    +0.295 HD
ENDBRANCH   5   7
ENDBRANCH   1   5
BRANCH   1   9
ATOM      9  C   UNK     1       8.452  -3.100  25.362  0.00  0.00    +0.099 C 
BRANCH   9  10
ATOM     10  S   UNK     1       8.705  -2.926  23.553  0.00  0.00    -0.147 S 
BRANCH  10  11
ATOM     11  C   UNK     1       6.965  -3.110  23.012  0.00  0.00    +0.189 C 
BRANCH  11  12
ATOM     12  C   UNK     1       6.734  -4.398  22.240  0.00  0.00    +0.315 C 
ATOM     13  O   UNK     1       5.966  -4.473  21.290  0.00  0.00    -0.250 OA
BRANCH  12  14
ATOM     14  O   UNK     1       7.444  -5.466  22.670  0.00  0.00    -0.480 OA
ATOM     15  H   UNK     1       7.258  -5.644  23.617  0.00  0.00    +0.295 HD
ENDBRANCH  12  14
ENDBRANCH  11  12
ENDBRANCH  10  11
ENDBRANCH   9  10
ENDBRANCH   1   9
TORSDOF 8
ENDMDL
MODEL 4
REMARK VINA RESULT:      -4.2      4.230      5.952
REMARK  Name = 
REMARK  8 active torsions:
REMARK  status: ('A' for Active; 'I' for Inactive)
REMARK    1  A    between atoms: N_1  and  C_2
REMARK    2  A    between atoms: C_2  and  C_4
REMARK    3  A    between atoms: C_2  and  C_10
REMARK    4  A    between atoms: C_4  and  S_5
REMARK    5  A    between atoms: S_5  and  C_6
REMARK    6  A    between atoms: C_6  and  C_7
REMARK    7  A    between atoms: C_7  and  O_8
REMARK    8  A    between atoms: C_10  and  O_11
REMARK                            x       y       z     vdW  Elec       q    Type
REMARK                         _______ _______ _______ _____ _____    ______ ____
ROOT
ATOM      1  C   UNK     1      10.035   1.982  23.956  0.00  0.00    +0.171 C 
ENDROOT
BRANCH   1   2
ATOM      2  N   UNK     1       9.010   2.351  24.985  0.00  0.00    -0.318 NA
ATOM      3  H   UNK     1       8.906   1.555  25.627  0.00  0.00    +0.119 HD
ATOM      4  H   UNK     1       9.437   3.072  25.577  0.00  0.00    +0.119 HD
ENDBRANCH   1   2
BRANCH   1   5
ATOM      5  C   UNK     1       9.343   1.944  22.588  0.00  0.00    +0.323 C 
ATOM      6  O   UNK     1       8.164   1.698  22.399  0.00  0.00    -0.249 OA
BRANCH   5   7
ATOM      7  O   UNK     1      10.230   2.196  21.589  0.00  0.00    -0.480 OA
ATOM      8  H   UNK     1      10.109   1.476  20.921  0.00  0.00    +0.295 HD
ENDBRANCH   5   7
ENDBRANCH   1   5
BRANCH   1   9
ATOM      9  C   UNK     1      10.738   0.646  24.236  0.00  0.00    +0.099 C 
BRANCH   9  10
ATOM     10  S   UNK     1       9.553  -0.580  24.909  0.00  0.00    -0.147 S 
BRANCH  10  11
ATOM     11  C   UNK     1       9.904  -1.964  23.762  0.00  0.00    +0.189 C 
BRANCH  11  12
ATOM     12  C   UNK     1       9.299  -1.741  22.387  0.00  0.00    +0.315 C 
ATOM     13  O   UNK     1       8.092  -1.773  22.181  0.00  0.00    -0.250 OA
BRANCH  12  14
ATOM     14  O   UNK     1      10.186  -1.495  21.396  0.00  0.00    -0.480 OA
ATOM     15  H   UNK     1      10.548  -2.336  21.043  0.00  0.00    +0.295 HD
ENDBRANCH  12  14
ENDBRANCH  11  12
ENDBRANCH  10  11
ENDBRANCH   9  10
ENDBRANCH   1   9
TORSDOF 8
ENDMDL
MODEL 5
REMARK VINA RESULT:      -4.1      2.857      3.520
REMARK  Name = 
REMARK  8 active torsions:
REMARK  status: ('A' for Active; 'I' for Inactive)
REMARK    1  A    between atoms: N_1  and  C_2
REMARK    2  A    between atoms: C_2  and  C_4
REMARK    3  A    between atoms: C_2  and  C_10
REMARK    4  A    between atoms: C_4  and  S_5
REMARK    5  A    between atoms: S_5  and  C_6
REMARK    6  A    between atoms: C_6  and  C_7
REMARK    7  A    between atoms: C_7  and  O_8
REMARK    8  A    between atoms: C_10  and  O_11
REMARK                            x       y       z     vdW  Elec       q    Type
REMARK                         _______ _______ _______ _____ _____    ______ ____
ROOT
ATOM      1  C   UNK     1       8.044  -4.855  25.865  0.00  0.00    +0.171 C 
ENDROOT
BRANCH   1   2
ATOM      2  N   UNK     1       8.158  -5.667  27.119  0.00  0.00    -0.318 NA
ATOM      3  H   UNK     1       8.224  -6.656  26.851  0.00  0.00    +0.119 HD
ATOM      4  H   UNK     1       9.085  -5.469  27.512  0.00  0.00    +0.119 HD
ENDBRANCH   1   2
BRANCH   1   5
ATOM      5  C   UNK     1       9.441  -4.741  25.244  0.00  0.00    +0.323 C 
ATOM      6  O   UNK     1       9.776  -3.926  24.400  0.00  0.00    -0.249 OA
BRANCH   5   7
ATOM      7  O   UNK     1      10.272  -5.696  25.740  0.00  0.00    -0.480 OA
ATOM      8  H   UNK     1      10.434  -6.335  25.001  0.00  0.00    +0.295 HD
ENDBRANCH   5   7
ENDBRANCH   1   5
BRANCH   1   9
ATOM      9  C   UNK     1       7.443  -3.459  26.086  0.00  0.00    +0.099 C 
BRANCH   9  10
ATOM     10  S   UNK     1       5.820  -3.313  25.246  0.00  0.00    -0.147 S 
BRANCH  10  11
ATOM     11  C   UNK     1       6.074  -4.565  23.933  0.00  0.00    +0.189 C 
BRANCH  11  12
ATOM     12  C   UNK     1       6.354  -3.934  22.581  0.00  0.00    +0.315 C 
ATOM     13  O   UNK     1       5.499  -3.821  21.712  0.00  0.00    -0.250 OA
BRANCH  12  14
ATOM     14  O   UNK     1       7.620  -3.495  22.397  0.00  0.00    -0.480 OA
ATOM     15  H   UNK     1       7.703  -3.038  21.532  0.00  0.00    +0.295 HD
ENDBRANCH  12  14
ENDBRANCH  11  12
ENDBRANCH  10  11
ENDBRANCH   9  10
ENDBRANCH   1   9
TORSDOF 8
ENDMDL
MODEL 6
REMARK VINA RESULT:      -4.1      3.587      5.872
REMARK  Name = 
REMARK  8 active torsions:
REMARK  status: ('A' for Active; 'I' for Inactive)
REMARK    1  A    between atoms: N_1  and  C_2
REMARK    2  A    between atoms: C_2  and  C_4
REMARK    3  A    between atoms: C_2  and  C_10
REMARK    4  A    between atoms: C_4  and  S_5
REMARK    5  A    between atoms: S_5  and  C_6
REMARK    6  A    between atoms: C_6  and  C_7
REMARK    7  A    between atoms: C_7  and  O_8
REMARK    8  A    between atoms: C_10  and  O_11
REMARK                            x       y       z     vdW  Elec       q    Type
REMARK                         _______ _______ _______ _____ _____    ______ ____
ROOT
ATOM      1  C   UNK     1       7.993   1.336  22.775  0.00  0.00    +0.171 C 
ENDROOT
BRANCH   1   2
ATOM      2  N   UNK     1       6.929   0.290  22.645  0.00  0.00    -0.318 NA
ATOM      3  H   UNK     1       7.255  -0.555  23.129  0.00  0.00    +0.119 HD
ATOM      4  H   UNK     1       6.142   0.601  23.225  0.00  0.00    +0.119 HD
ENDBRANCH   1   2
BRANCH   1   5
ATOM      5  C   UNK     1       9.053   1.072  21.699  0.00  0.00    +0.323 C 
ATOM      6  O   UNK     1       9.239   0.007  21.135  0.00  0.00    -0.249 OA
BRANCH   5   7
ATOM      7  O   UNK     1       9.795   2.187  21.465  0.00  0.00    -0.480 OA
ATOM      8  H   UNK     1      10.740   1.892  21.435  0.00  0.00    +0.295 HD
ENDBRANCH   5   7
ENDBRANCH   1   5
BRANCH   1   9
ATOM      9  C   UNK     1       8.644   1.386  24.165  0.00  0.00    +0.099 C 
BRANCH   9  10
ATOM     10  S   UNK     1       8.395  -0.200  25.053  0.00  0.00    -0.147 S 
BRANCH  10  11
ATOM     11  C   UNK     1       9.886  -1.085  24.463  0.00  0.00    +0.189 C 
BRANCH  11  12
ATOM     12  C   UNK     1       9.547  -2.404  23.793  0.00  0.00    +0.315 C 
ATOM     13  O   UNK     1      10.012  -3.474  24.163  0.00  0.00    -0.250 OA
BRANCH  12  14
ATOM     14  O   UNK     1       8.683  -2.322  22.755  0.00  0.00    -0.480 OA
ATOM     15  H   UNK     1       9.172  -2.285  21.905  0.00  0.00    +0.295 HD
ENDBRANCH  12  14
ENDBRANCH  11  12
ENDBRANCH  10  11
ENDBRANCH   9  10
ENDBRANCH   1   9
TORSDOF 8
ENDMDL
MODEL 7
REMARK VINA RESULT:      -4.1      3.878      4.815
REMARK  Name = 
REMARK  8 active torsions:
REMARK  status: ('A' for Active; 'I' for Inactive)
REMARK    1  A    between atoms: N_1  and  C_2
REMARK    2  A    between atoms: C_2  and  C_4
REMARK    3  A    between atoms: C_2  and  C_10
REMARK    4  A    between atoms: C_4  and  S_5
REMARK    5  A    between atoms: S_5  and  C_6
REMARK    6  A    between atoms: C_6  and  C_7
REMARK    7  A    between atoms: C_7  and  O_8
REMARK    8  A    between atoms: C_10  and  O_11
REMARK                            x       y       z     vdW  Elec       q    Type
REMARK                         _______ _______ _______ _____ _____    ______ ____
ROOT
ATOM      1  C   UNK     1       8.403  -1.189  22.964  0.00  0.00    +0.171 C 
ENDROOT
BRANCH   1   2
ATOM      2  N   UNK     1       7.396  -2.230  22.579  0.00  0.00    -0.318 NA
ATOM      3  H   UNK     1       6.630  -1.760  22.082  0.00  0.00    +0.119 HD
ATOM      4  H   UNK     1       7.832  -2.802  21.848  0.00  0.00    +0.119 HD
ENDBRANCH   1   2
BRANCH   1   5
ATOM      5  C   UNK     1       9.754  -1.588  22.357  0.00  0.00    +0.323 C 
ATOM      6  O   UNK     1      10.537  -2.388  22.838  0.00  0.00    -0.249 OA
BRANCH   5   7
ATOM      7  O   UNK     1       9.988  -0.905  21.204  0.00  0.00    -0.480 OA
ATOM      8  H   UNK     1       9.246  -1.133  20.590  0.00  0.00    +0.295 HD
ENDBRANCH   5   7
ENDBRANCH   1   5
BRANCH   1   9
ATOM      9  C   UNK     1       8.537  -0.991  24.480  0.00  0.00    +0.099 C 
BRANCH   9  10
ATOM     10  S   UNK     1       9.627   0.437  24.852  0.00  0.00    -0.147 S 
BRANCH  10  11
ATOM     11  C   UNK     1       8.932   1.634  23.653  0.00  0.00    +0.189 C 
BRANCH  11  12
ATOM     12  C   UNK     1      10.009   2.317  22.829  0.00  0.00    +0.315 C 
ATOM     13  O   UNK     1      10.869   3.034  23.325  0.00  0.00    -0.250 OA
BRANCH  12  14
ATOM     14  O   UNK     1       9.963   2.074  21.499  0.00  0.00    -0.480 OA
ATOM     15  H   UNK     1      10.432   2.780  21.005  0.00  0.00    +0.295 HD
ENDBRANCH  12  14
ENDBRANCH  11  12
ENDBRANCH  10  11
ENDBRANCH   9  10
ENDBRANCH   1   9
TORSDOF 8
ENDMDL
MODEL 8
REMARK VINA RESULT:      -4.1      3.214      5.590
REMARK  Name = 
REMARK  8 active torsions:
REMARK  status: ('A' for Active; 'I' for Inactive)
REMARK    1  A    between atoms: N_1  and  C_2
REMARK    2  A    between atoms: C_2  and  C_4
REMARK    3  A    between atoms: C_2  and  C_10
REMARK    4  A    between atoms: C_4  and  S_5
REMARK    5  A    between atoms: S_5  and  C_6
REMARK    6  A    between atoms: C_6  and  C_7
REMARK    7  A    between atoms: C_7  and  O_8
REMARK    8  A    between atoms: C_10  and  O_11
REMARK                            x       y       z     vdW  Elec       q    Type
REMARK                         _______ _______ _______ _____ _____    ______ ____
ROOT
ATOM      1  C   UNK     1       8.008  -5.409  25.687  0.00  0.00    +0.171 C 
ENDROOT
BRANCH   1   2
ATOM      2  N   UNK     1       8.092  -5.669  27.160  0.00  0.00    -0.318 NA
ATOM      3  H   UNK     1       9.078  -5.829  27.398  0.00  0.00    +0.119 HD
ATOM      4  H   UNK     1       7.881  -4.779  27.625  0.00  0.00    +0.119 HD
ENDBRANCH   1   2
BRANCH   1   5
ATOM      5  C   UNK     1       9.380  -4.912  25.213  0.00  0.00    +0.323 C 
ATOM      6  O   UNK     1       9.568  -4.006  24.419  0.00  0.00    -0.249 OA
BRANCH   5   7
ATOM      7  O   UNK     1      10.380  -5.638  25.779  0.00  0.00    -0.480 OA
ATOM      8  H   UNK     1      10.332  -5.467  26.753  0.00  0.00    +0.295 HD
ENDBRANCH   5   7
ENDBRANCH   1   5
BRANCH   1   9
ATOM      9  C   UNK     1       6.914  -4.404  25.298  0.00  0.00    +0.099 C 
BRANCH   9  10
ATOM     10  S   UNK     1       5.649  -4.282  26.621  0.00  0.00    -0.147 S 
BRANCH  10  11
ATOM     11  C   UNK     1       4.323  -5.266  25.828  0.00  0.00    +0.189 C 
BRANCH  11  12
ATOM     12  C   UNK     1       4.595  -6.759  25.895  0.00  0.00    +0.315 C 
ATOM     13  O   UNK     1       4.307  -7.526  24.986  0.00  0.00    -0.250 OA
BRANCH  12  14
ATOM     14  O   UNK     1       5.187  -7.190  27.032  0.00  0.00    -0.480 OA
ATOM     15  H   UNK     1       6.119  -7.444  26.858  0.00  0.00    +0.295 HD
ENDBRANCH  12  14
ENDBRANCH  11  12
ENDBRANCH  10  11
ENDBRANCH   9  10
ENDBRANCH   1   9
TORSDOF 8
ENDMDL
MODEL 9
REMARK VINA RESULT:      -4.1      3.992      6.136
REMARK  Name = 
REMARK  8 active torsions:
REMARK  status: ('A' for Active; 'I' for Inactive)
REMARK    1  A    between atoms: N_1  and  C_2
REMARK    2  A    between atoms: C_2  and  C_4
REMARK    3  A    between atoms: C_2  and  C_10
REMARK    4  A    between atoms: C_4  and  S_5
REMARK    5  A    between atoms: S_5  and  C_6
REMARK    6  A    between atoms: C_6  and  C_7
REMARK    7  A    between atoms: C_7  and  O_8
REMARK    8  A    between atoms: C_10  and  O_11
REMARK                            x       y       z     vdW  Elec       q    Type
REMARK                         _______ _______ _______ _____ _____    ______ ____
ROOT
ATOM      1  C   UNK     1       9.272   2.414  22.816  0.00  0.00    +0.171 C 
ENDROOT
BRANCH   1   2
ATOM      2  N   UNK     1       9.496   1.820  21.459  0.00  0.00    -0.318 NA
ATOM      3  H   UNK     1       9.410   0.800  21.542  0.00  0.00    +0.119 HD
ATOM      4  H   UNK     1       8.683   2.077  20.890  0.00  0.00    +0.119 HD
ENDBRANCH   1   2
BRANCH   1   5
ATOM      5  C   UNK     1      10.637   2.580  23.495  0.00  0.00    +0.323 C 
ATOM      6  O   UNK     1      11.362   3.555  23.397  0.00  0.00    -0.249 OA
BRANCH   5   7
ATOM      7  O   UNK     1      10.958   1.471  24.214  0.00  0.00    -0.480 OA
ATOM      8  H   UNK     1      11.472   1.788  24.999  0.00  0.00    +0.295 HD
ENDBRANCH   5   7
ENDBRANCH   1   5
BRANCH   1   9
ATOM      9  C   UNK     1       8.331   1.587  23.704  0.00  0.00    +0.099 C 
BRANCH   9  10
ATOM     10  S   UNK     1       7.789   0.067  22.833  0.00  0.00    -0.147 S 
BRANCH  10  11
ATOM     11  C   UNK     1       8.522  -1.176  23.961  0.00  0.00    +0.189 C 
BRANCH  11  12
ATOM     12  C   UNK     1       9.806  -1.770  23.410  0.00  0.00    +0.315 C 
ATOM     13  O   UNK     1      10.223  -2.871  23.743  0.00  0.00    -0.250 OA
BRANCH  12  14
ATOM     14  O   UNK     1      10.462  -1.000  22.512  0.00  0.00    -0.480 OA
ATOM     15  H   UNK     1      10.903  -1.559  21.837  0.00  0.00    +0.295 HD
ENDBRANCH  12  14
ENDBRANCH  11  12
ENDBRANCH  10  11
ENDBRANCH   9  10
ENDBRANCH   1   9
TORSDOF 8
ENDMDL
