MODEL 1
REMARK VINA RESULT:      -3.1      0.000      0.000
REMARK  Name = 
REMARK  3 active torsions:
REMARK  status: ('A' for Active; 'I' for Inactive)
REMARK    1  A    between atoms: C_1  and  C_2
REMARK    2  A    between atoms: C_2  and  C_4
REMARK    3  A    between atoms: C_4  and  O_5
REMARK                            x       y       z     vdW  Elec       q    Type
REMARK                         _______ _______ _______ _____ _____    ______ ____
ROOT
ATOM      1  C   UNL     1       9.254  -5.136  25.272  0.00  0.00    +0.372 C 
ATOM      2  O   UNL     1       8.824  -5.267  24.144  0.00  0.00    -0.242 OA
ENDROOT
BRANCH   1   4
ATOM      3  C   UNL     1       8.394  -2.931  26.287  0.00  0.00    +0.099 C 
ATOM      4  C   UNL     1       8.493  -4.421  26.383  0.00  0.00    +0.236 C 
ATOM      5  O   UNL     1       8.012  -5.112  27.278  0.00  0.00    -0.285 OA
ENDBRANCH   1   4
BRANCH   1   6
ATOM      6  O   UNL     1      10.441  -5.582  25.725  0.00  0.00    -0.475 OA
ATOM      7  H   UNL     1      11.135  -4.908  25.530  0.00  0.00    +0.295 HD
ENDBRANCH   1   6
TORSDOF 2
ENDMDL
MODEL 2
REMARK VINA RESULT:      -3.1      6.564      7.283
REMARK  Name = 
REMARK  3 active torsions:
REMARK  status: ('A' for Active; 'I' for Inactive)
REMARK    1  A    between atoms: C_1  and  C_2
REMARK    2  A    between atoms: C_2  and  C_4
REMARK    3  A    between atoms: C_4  and  O_5
REMARK                            x       y       z     vdW  Elec       q    Type
REMARK                         _______ _______ _______ _____ _____    ______ ____
ROOT
ATOM      1  C   UNL     1       9.996   1.159  22.171  0.00  0.00    +0.372 C 
ATOM      2  O   UNL     1       9.985  -0.018  21.873  0.00  0.00    -0.242 OA
ENDROOT
BRANCH   1   4
ATOM      3  C   UNL     1      10.737   0.659  24.586  0.00  0.00    +0.099 C 
ATOM      4  C   UNL     1      10.476   1.678  23.522  0.00  0.00    +0.236 C 
ATOM      5  O   UNL     1      10.617   2.892  23.648  0.00  0.00    -0.285 OA
ENDBRANCH   1   4
BRANCH   1   6
ATOM      6  O   UNL     1       9.598   2.180  21.389  0.00  0.00    -0.475 OA
ATOM      7  H   UNL     1       8.645   2.368  21.564  0.00  0.00    +0.295 HD
ENDBRANCH   1   6
TORSDOF 2
ENDMDL
MODEL 3
REMARK VINA RESULT:      -3.1      4.703      5.488
REMARK  Name = 
REMARK  3 active torsions:
REMARK  status: ('A' for Active; 'I' for Inactive)
REMARK    1  A    between atoms: C_1  and  C_2
REMARK    2  A    between atoms: C_2  and  C_4
REMARK    3  A    between atoms: C_4  and  O_5
REMARK                            x       y       z     vdW  Elec       q    Type
REMARK                         _______ _______ _______ _____ _____    ______ ____
ROOT
ATOM      1  C   UNL     1      10.220  -1.481  22.778  0.00  0.00    +0.372 C 
ATOM      2  O   UNL     1      10.197  -2.397  23.575  0.00  0.00    -0.242 OA
ENDROOT
BRANCH   1   4
ATOM      3  C   UNL     1      10.549   0.271  24.636  0.00  0.00    +0.099 C 
ATOM      4  C   UNL     1      10.316  -0.015  23.186  0.00  0.00    +0.236 C 
ATOM      5  O   UNL     1      10.197   0.830  22.303  0.00  0.00    -0.285 OA
ENDBRANCH   1   4
BRANCH   1   6
ATOM      6  O   UNL     1      10.166  -1.595  21.437  0.00  0.00    -0.475 OA
ATOM      7  H   UNL     1       9.221  -1.583  21.150  0.00  0.00    +0.295 HD
ENDBRANCH   1   6
TORSDOF 2
ENDMDL
MODEL 4
REMARK VINA RESULT:      -3.0      6.462      7.176
REMARK  Name = 
REMARK  3 active torsions:
REMARK  status: ('A' for Active; 'I' for Inactive)
REMARK    1  A    between atoms: C_1  and  C_2
REMARK    2  A    between atoms: C_2  and  C_4
REMARK    3  A    between atoms: C_4  and  O_5
REMARK                            x       y       z     vdW  Elec       q    Type
REMARK                         _______ _______ _______ _____ _____    ______ ____
ROOT
ATOM      1  C   UNL     1      10.231   1.796  22.726  0.00  0.00    +0.372 C 
ATOM      2  O   UNL     1      10.543   2.420  23.720  0.00  0.00    -0.242 OA
ENDROOT
BRANCH   1   4
ATOM      3  C   UNL     1       9.444  -0.317  21.483  0.00  0.00    +0.099 C 
ATOM      4  C   UNL     1      10.075   0.279  22.701  0.00  0.00    +0.236 C 
ATOM      5  O   UNL     1      10.477  -0.350  23.677  0.00  0.00    -0.285 OA
ENDBRANCH   1   4
BRANCH   1   6
ATOM      6  O   UNL     1       9.976   2.316  21.511  0.00  0.00    -0.475 OA
ATOM      7  H   UNL     1       9.973   1.590  20.843  0.00  0.00    +0.295 HD
ENDBRANCH   1   6
TORSDOF 2
ENDMDL
MODEL 5
REMARK VINA RESULT:      -3.0      1.497      2.283
REMARK  Name = 
REMARK  3 active torsions:
REMARK  status: ('A' for Active; 'I' for Inactive)
REMARK    1  A    between atoms: C_1  and  C_2
REMARK    2  A    between atoms: C_2  and  C_4
REMARK    3  A    between atoms: C_4  and  O_5
REMARK                            x       y       z     vdW  Elec       q    Type
REMARK                         _______ _______ _______ _____ _____    ______ ____
ROOT
ATOM      1  C   UNL     1       9.221  -5.025  25.549  0.00  0.00    +0.372 C 
ATOM      2  O   UNL     1       8.350  -5.379  26.317  0.00  0.00    -0.242 OA
ENDROOT
BRANCH   1   4
ATOM      3  C   UNL     1       7.662  -3.421  24.273  0.00  0.00    +0.099 C 
ATOM      4  C   UNL     1       9.059  -3.864  24.574  0.00  0.00    +0.236 C 
ATOM      5  O   UNL     1      10.080  -3.370  24.103  0.00  0.00    -0.285 OA
ENDBRANCH   1   4
BRANCH   1   6
ATOM      6  O   UNL     1      10.443  -5.577  25.426  0.00  0.00    -0.475 OA
ATOM      7  H   UNL     1      11.108  -4.988  25.856  0.00  0.00    +0.295 HD
ENDBRANCH   1   6
TORSDOF 2
ENDMDL
MODEL 6
REMARK VINA RESULT:      -2.9      5.291      6.014
REMARK  Name = 
REMARK  3 active torsions:
REMARK  status: ('A' for Active; 'I' for Inactive)
REMARK    1  A    between atoms: C_1  and  C_2
REMARK    2  A    between atoms: C_2  and  C_4
REMARK    3  A    between atoms: C_4  and  O_5
REMARK                            x       y       z     vdW  Elec       q    Type
REMARK                         _______ _______ _______ _____ _____    ______ ____
ROOT
ATOM      1  C   UNL     1       9.937   0.209  22.015  0.00  0.00    +0.372 C 
ATOM      2  O   UNL     1       9.908   1.396  21.762  0.00  0.00    -0.242 OA
ENDROOT
BRANCH   1   4
ATOM      3  C   UNL     1      10.813   0.623  24.401  0.00  0.00    +0.099 C 
ATOM      4  C   UNL     1      10.292  -0.349  23.389  0.00  0.00    +0.236 C 
ATOM      5  O   UNL     1      10.128  -1.552  23.575  0.00  0.00    -0.285 OA
ENDBRANCH   1   4
BRANCH   1   6
ATOM      6  O   UNL     1       9.669  -0.792  21.155  0.00  0.00    -0.475 OA
ATOM      7  H   UNL     1       9.147  -0.435  20.397  0.00  0.00    +0.295 HD
ENDBRANCH   1   6
TORSDOF 2
ENDMDL
MODEL 7
REMARK VINA RESULT:      -2.8      3.770      4.107
REMARK  Name = 
REMARK  3 active torsions:
REMARK  status: ('A' for Active; 'I' for Inactive)
REMARK    1  A    between atoms: C_1  and  C_2
REMARK    2  A    between atoms: C_2  and  C_4
REMARK    3  A    between atoms: C_4  and  O_5
REMARK                            x       y       z     vdW  Elec       q    Type
REMARK                         _______ _______ _______ _____ _____    ______ ____
ROOT
ATOM      1  C   UNL     1      10.188  -1.981  23.384  0.00  0.00    +0.372 C 
ATOM      2  O   UNL     1      10.471  -1.752  22.225  0.00  0.00    -0.242 OA
ENDROOT
BRANCH   1   4
ATOM      3  C   UNL     1      10.646   0.369  24.330  0.00  0.00    +0.099 C 
ATOM      4  C   UNL     1       9.845  -0.893  24.395  0.00  0.00    +0.236 C 
ATOM      5  O   UNL     1       8.939  -1.122  25.192  0.00  0.00    -0.285 OA
ENDBRANCH   1   4
BRANCH   1   6
ATOM      6  O   UNL     1      10.128  -3.197  23.960  0.00  0.00    -0.475 OA
ATOM      7  H   UNL     1       9.712  -3.833  23.330  0.00  0.00    +0.295 HD
ENDBRANCH   1   6
TORSDOF 2
ENDMDL
MODEL 8
REMARK VINA RESULT:      -2.8      1.907      2.601
REMARK  Name = 
REMARK  3 active torsions:
REMARK  status: ('A' for Active; 'I' for Inactive)
REMARK    1  A    between atoms: C_1  and  C_2
REMARK    2  A    between atoms: C_2  and  C_4
REMARK    3  A    between atoms: C_4  and  O_5
REMARK                            x       y       z     vdW  Elec       q    Type
REMARK                         _______ _______ _______ _____ _____    ______ ____
ROOT
ATOM      1  C   UNL     1       8.156  -5.070  26.658  0.00  0.00    +0.372 C 
ATOM      2  O   UNL     1       9.059  -4.262  26.739  0.00  0.00    -0.242 OA
ENDROOT
BRANCH   1   4
ATOM      3  C   UNL     1       7.944  -4.923  24.096  0.00  0.00    +0.099 C 
ATOM      4  C   UNL     1       7.303  -5.252  25.407  0.00  0.00    +0.236 C 
ATOM      5  O   UNL     1       6.153  -5.656  25.557  0.00  0.00    -0.285 OA
ENDBRANCH   1   4
BRANCH   1   6
ATOM      6  O   UNL     1       7.762  -5.920  27.625  0.00  0.00    -0.475 OA
ATOM      7  H   UNL     1       8.503  -6.537  27.834  0.00  0.00    +0.295 HD
ENDBRANCH   1   6
TORSDOF 2
ENDMDL
MODEL 9
REMARK VINA RESULT:      -2.8      4.917      5.584
REMARK  Name = 
REMARK  3 active torsions:
REMARK  status: ('A' for Active; 'I' for Inactive)
REMARK    1  A    between atoms: C_1  and  C_2
REMARK    2  A    between atoms: C_2  and  C_4
REMARK    3  A    between atoms: C_4  and  O_5
REMARK                            x       y       z     vdW  Elec       q    Type
REMARK                         _______ _______ _______ _____ _____    ______ ____
ROOT
ATOM      1  C   UNL     1       9.236  -1.508  22.278  0.00  0.00    +0.372 C 
ATOM      2  O   UNL     1       8.765  -2.408  22.943  0.00  0.00    -0.242 OA
ENDROOT
BRANCH   1   4
ATOM      3  C   UNL     1       9.589   0.994  21.782  0.00  0.00    +0.099 C 
ATOM      4  C   UNL     1       8.680  -0.088  22.272  0.00  0.00    +0.236 C 
ATOM      5  O   UNL     1       7.528   0.072  22.666  0.00  0.00    -0.285 OA
ENDBRANCH   1   4
BRANCH   1   6
ATOM      6  O   UNL     1      10.298  -1.602  21.455  0.00  0.00    -0.475 OA
ATOM      7  H   UNL     1      11.094  -1.238  21.913  0.00  0.00    +0.295 HD
ENDBRANCH   1   6
TORSDOF 2
ENDMDL
