MODEL 1
REMARK VINA RESULT:      -5.1      0.000      0.000
REMARK  Name = 
REMARK  9 active torsions:
REMARK  status: ('A' for Active; 'I' for Inactive)
REMARK    1  A    between atoms: O_1  and  C_2
REMARK    2  A    between atoms: C_2  and  C_3
REMARK    3  A    between atoms: C_2  and  P_10
REMARK    4  A    between atoms: C_2  and  P_14
REMARK    5  A    between atoms: C_3  and  C_4
REMARK    6  A    between atoms: P_10  and  O_11
REMARK    7  A    between atoms: P_10  and  O_12
REMARK    8  A    between atoms: P_14  and  O_15
REMARK    9  A    between atoms: P_14  and  O_16
REMARK                            x       y       z     vdW  Elec       q    Type
REMARK                         _______ _______ _______ _____ _____    ______ ____
ROOT
ATOM      1  C   UNL     1       8.188  -3.984  24.797  0.00  0.00    +0.271 C 
ENDROOT
BRANCH   1   2
ATOM      2  O   UNL     1       9.585  -4.172  24.368  0.00  0.00    -0.367 OA
ATOM      3  H   UNL     1       9.953  -3.318  24.087  0.00  0.00    +0.212 HD
ENDBRANCH   1   2
BRANCH   1   4
ATOM      4  P   UNL     1       7.861  -4.918  26.336  0.00  0.00    +0.371 P 
ATOM      5  O   UNL     1       7.585  -5.707  27.639  0.00  0.00    -0.255 OA
BRANCH   4   6
ATOM      6  O   UNL     1       9.041  -4.021  27.079  0.00  0.00    -0.322 OA
ATOM      7  H   UNL     1       9.813  -4.607  27.190  0.00  0.00    +0.220 HD
ENDBRANCH   4   6
BRANCH   4   8
ATOM      8  O   UNL     1       8.943  -6.078  25.850  0.00  0.00    -0.322 OA
ATOM      9  H   UNL     1       9.824  -5.658  25.819  0.00  0.00    +0.220 HD
ENDBRANCH   4   8
ENDBRANCH   1   4
BRANCH   1  10
ATOM     10  P   UNL     1       7.143  -4.645  23.449  0.00  0.00    +0.371 P 
ATOM     11  O   UNL     1       6.256  -5.204  22.308  0.00  0.00    -0.255 OA
BRANCH  10  12
ATOM     12  O   UNL     1       6.341  -5.570  24.551  0.00  0.00    -0.322 OA
ATOM     13  H   UNL     1       6.727  -5.360  25.430  0.00  0.00    +0.220 HD
ENDBRANCH  10  12
BRANCH  10  14
ATOM     14  O   UNL     1       8.224  -5.812  23.063  0.00  0.00    -0.322 OA
ATOM     15  H   UNL     1       8.302  -5.816  22.085  0.00  0.00    +0.220 HD
ENDBRANCH  10  14
ENDBRANCH   1  10
BRANCH   1  16
ATOM     16  C   UNL     1       7.991  -2.457  25.031  0.00  0.00    +0.097 C 
BRANCH  16  17
ATOM     17  C   UNL     1       8.730  -1.542  24.083  0.00  0.00    -0.025 A 
ATOM     18  C   UNL     1       8.339  -1.377  22.757  0.00  0.00    +0.007 A 
ATOM     19  C   UNL     1       9.052  -0.513  21.935  0.00  0.00    +0.020 A 
ATOM     20  C   UNL     1      10.137   0.164  22.464  0.00  0.00    +0.111 A 
ATOM     21  N   UNL     1      10.551   0.036  23.736  0.00  0.00    -0.263 NA
ATOM     22  C   UNL     1       9.828  -0.804  24.526  0.00  0.00    +0.114 A 
ENDBRANCH  16  17
ENDBRANCH   1  16
TORSDOF 9
ENDMDL
MODEL 2
REMARK VINA RESULT:      -5.1      1.766      3.379
REMARK  Name = 
REMARK  9 active torsions:
REMARK  status: ('A' for Active; 'I' for Inactive)
REMARK    1  A    between atoms: O_1  and  C_2
REMARK    2  A    between atoms: C_2  and  C_3
REMARK    3  A    between atoms: C_2  and  P_10
REMARK    4  A    between atoms: C_2  and  P_14
REMARK    5  A    between atoms: C_3  and  C_4
REMARK    6  A    between atoms: P_10  and  O_11
REMARK    7  A    between atoms: P_10  and  O_12
REMARK    8  A    between atoms: P_14  and  O_15
REMARK    9  A    between atoms: P_14  and  O_16
REMARK                            x       y       z     vdW  Elec       q    Type
REMARK                         _______ _______ _______ _____ _____    ______ ____
ROOT
ATOM      1  C   UNL     1       8.105  -2.709  23.541  0.00  0.00    +0.271 C 
ENDROOT
BRANCH   1   2
ATOM      2  O   UNL     1       7.737  -1.585  24.418  0.00  0.00    -0.367 OA
ATOM      3  H   UNL     1       7.534  -1.923  25.306  0.00  0.00    +0.212 HD
ENDBRANCH   1   2
BRANCH   1   4
ATOM      4  P   UNL     1       6.721  -3.120  22.414  0.00  0.00    +0.371 P 
ATOM      5  O   UNL     1       5.551  -3.466  21.462  0.00  0.00    -0.255 OA
BRANCH   4   6
ATOM      6  O   UNL     1       6.083  -1.622  22.725  0.00  0.00    -0.322 OA
ATOM      7  H   UNL     1       6.033  -1.532  23.695  0.00  0.00    +0.220 HD
ENDBRANCH   4   6
BRANCH   4   8
ATOM      8  O   UNL     1       5.908  -3.814  23.683  0.00  0.00    -0.322 OA
ATOM      9  H   UNL     1       6.504  -4.477  24.081  0.00  0.00    +0.220 HD
ENDBRANCH   4   8
ENDBRANCH   1   4
BRANCH   1  10
ATOM     10  P   UNL     1       8.438  -4.133  24.640  0.00  0.00    +0.371 P 
ATOM     11  O   UNL     1       8.721  -5.339  25.571  0.00  0.00    -0.255 OA
BRANCH  10  12
ATOM     12  O   UNL     1      10.053  -3.909  24.409  0.00  0.00    -0.322 OA
ATOM     13  H   UNL     1      10.386  -3.424  25.195  0.00  0.00    +0.220 HD
ENDBRANCH  10  12
BRANCH  10  14
ATOM     14  O   UNL     1       8.284  -5.221  23.425  0.00  0.00    -0.322 OA
ATOM     15  H   UNL     1       8.326  -4.717  22.585  0.00  0.00    +0.220 HD
ENDBRANCH  10  14
ENDBRANCH   1  10
BRANCH   1  16
ATOM     16  C   UNL     1       9.355  -2.256  22.729  0.00  0.00    +0.097 C 
BRANCH  16  17
ATOM     17  C   UNL     1       9.651  -0.775  22.744  0.00  0.00    -0.025 A 
ATOM     18  C   UNL     1       9.229   0.076  21.727  0.00  0.00    +0.007 A 
ATOM     19  C   UNL     1       9.522   1.432  21.802  0.00  0.00    +0.020 A 
ATOM     20  C   UNL     1      10.229   1.900  22.896  0.00  0.00    +0.111 A 
ATOM     21  N   UNL     1      10.656   1.117  23.901  0.00  0.00    -0.263 NA
ATOM     22  C   UNL     1      10.344  -0.205  23.813  0.00  0.00    +0.114 A 
ENDBRANCH  16  17
ENDBRANCH   1  16
TORSDOF 9
ENDMDL
MODEL 3
REMARK VINA RESULT:      -5.1      1.139      3.096
REMARK  Name = 
REMARK  9 active torsions:
REMARK  status: ('A' for Active; 'I' for Inactive)
REMARK    1  A    between atoms: O_1  and  C_2
REMARK    2  A    between atoms: C_2  and  C_3
REMARK    3  A    between atoms: C_2  and  P_10
REMARK    4  A    between atoms: C_2  and  P_14
REMARK    5  A    between atoms: C_3  and  C_4
REMARK    6  A    between atoms: P_10  and  O_11
REMARK    7  A    between atoms: P_10  and  O_12
REMARK    8  A    between atoms: P_14  and  O_15
REMARK    9  A    between atoms: P_14  and  O_16
REMARK                            x       y       z     vdW  Elec       q    Type
REMARK                         _______ _______ _______ _____ _____    ______ ____
ROOT
ATOM      1  C   UNL     1       7.803  -3.772  24.750  0.00  0.00    +0.271 C 
ENDROOT
BRANCH   1   2
ATOM      2  O   UNL     1       7.104  -2.507  25.035  0.00  0.00    -0.367 OA
ATOM      3  H   UNL     1       6.145  -2.662  25.034  0.00  0.00    +0.212 HD
ENDBRANCH   1   2
BRANCH   1   4
ATOM      4  P   UNL     1       6.994  -4.650  23.362  0.00  0.00    +0.371 P 
ATOM      5  O   UNL     1       6.308  -5.392  22.190  0.00  0.00    -0.255 OA
BRANCH   4   6
ATOM      6  O   UNL     1       6.267  -5.642  24.473  0.00  0.00    -0.322 OA
ATOM      7  H   UNL     1       6.027  -6.463  24.003  0.00  0.00    +0.220 HD
ENDBRANCH   4   6
BRANCH   4   8
ATOM      8  O   UNL     1       8.318  -5.641  23.231  0.00  0.00    -0.322 OA
ATOM      9  H   UNL     1       8.957  -5.193  22.644  0.00  0.00    +0.220 HD
ENDBRANCH   4   8
ENDBRANCH   1   4
BRANCH   1  10
ATOM     10  P   UNL     1       7.676  -4.785  26.268  0.00  0.00    +0.371 P 
ATOM     11  O   UNL     1       7.568  -5.642  27.554  0.00  0.00    -0.255 OA
BRANCH  10  12
ATOM     12  O   UNL     1       8.541  -3.642  27.079  0.00  0.00    -0.322 OA
ATOM     13  H   UNL     1       9.490  -3.849  26.934  0.00  0.00    +0.220 HD
ENDBRANCH  10  12
BRANCH  10  14
ATOM     14  O   UNL     1       8.986  -5.687  25.882  0.00  0.00    -0.322 OA
ATOM     15  H   UNL     1       9.399  -5.269  25.096  0.00  0.00    +0.220 HD
ENDBRANCH  10  14
ENDBRANCH   1  10
BRANCH   1  16
ATOM     16  C   UNL     1       9.270  -3.401  24.381  0.00  0.00    +0.097 C 
BRANCH  16  17
ATOM     17  C   UNL     1       9.468  -2.048  23.740  0.00  0.00    -0.025 A 
ATOM     18  C   UNL     1       9.830  -0.924  24.477  0.00  0.00    +0.007 A 
ATOM     19  C   UNL     1      10.009   0.292  23.829  0.00  0.00    +0.020 A 
ATOM     20  C   UNL     1       9.821   0.349  22.459  0.00  0.00    +0.111 A 
ATOM     21  N   UNL     1       9.472  -0.708  21.707  0.00  0.00    -0.263 NA
ATOM     22  C   UNL     1       9.318  -1.892  22.361  0.00  0.00    +0.114 A 
ENDBRANCH  16  17
ENDBRANCH   1  16
TORSDOF 9
ENDMDL
MODEL 4
REMARK VINA RESULT:      -5.1      5.446      6.569
REMARK  Name = 
REMARK  9 active torsions:
REMARK  status: ('A' for Active; 'I' for Inactive)
REMARK    1  A    between atoms: O_1  and  C_2
REMARK    2  A    between atoms: C_2  and  C_3
REMARK    3  A    between atoms: C_2  and  P_10
REMARK    4  A    between atoms: C_2  and  P_14
REMARK    5  A    between atoms: C_3  and  C_4
REMARK    6  A    between atoms: P_10  and  O_11
REMARK    7  A    between atoms: P_10  and  O_12
REMARK    8  A    between atoms: P_14  and  O_15
REMARK    9  A    between atoms: P_14  and  O_16
REMARK                            x       y       z     vdW  Elec       q    Type
REMARK                         _______ _______ _______ _____ _____    ______ ____
ROOT
ATOM      1  C   UNL     1       8.908   1.486  23.172  0.00  0.00    +0.271 C 
ENDROOT
BRANCH   1   2
ATOM      2  O   UNL     1       8.515   0.947  24.485  0.00  0.00    -0.367 OA
ATOM      3  H   UNL     1       8.165   0.048  24.372  0.00  0.00    +0.212 HD
ENDBRANCH   1   2
BRANCH   1   4
ATOM      4  P   UNL     1      10.258   2.708  23.361  0.00  0.00    +0.371 P 
ATOM      5  O   UNL     1      11.400   3.741  23.520  0.00  0.00    -0.255 OA
BRANCH   4   6
ATOM      6  O   UNL     1      10.658   2.445  21.775  0.00  0.00    -0.322 OA
ATOM      7  H   UNL     1      11.145   1.600  21.742  0.00  0.00    +0.220 HD
ENDBRANCH   4   6
BRANCH   4   8
ATOM      8  O   UNL     1      11.263   1.499  23.894  0.00  0.00    -0.322 OA
ATOM      9  H   UNL     1      10.698   0.743  24.144  0.00  0.00    +0.220 HD
ENDBRANCH   4   8
ENDBRANCH   1   4
BRANCH   1  10
ATOM     10  P   UNL     1       7.426   2.317  22.492  0.00  0.00    +0.371 P 
ATOM     11  O   UNL     1       6.171   3.020  21.917  0.00  0.00    -0.255 OA
BRANCH  10  12
ATOM     12  O   UNL     1       7.893   1.869  20.979  0.00  0.00    -0.322 OA
ATOM     13  H   UNL     1       8.744   2.325  20.799  0.00  0.00    +0.220 HD
ENDBRANCH  10  12
BRANCH  10  14
ATOM     14  O   UNL     1       8.164   3.777  22.429  0.00  0.00    -0.322 OA
ATOM     15  H   UNL     1       8.609   3.834  21.556  0.00  0.00    +0.220 HD
ENDBRANCH  10  14
ENDBRANCH   1  10
BRANCH   1  16
ATOM     16  C   UNL     1       9.380   0.277  22.312  0.00  0.00    +0.097 C 
BRANCH  16  17
ATOM     17  C   UNL     1       9.039  -1.091  22.852  0.00  0.00    -0.025 A 
ATOM     18  C   UNL     1       7.766  -1.639  22.732  0.00  0.00    +0.007 A 
ATOM     19  C   UNL     1       7.514  -2.908  23.240  0.00  0.00    +0.020 A 
ATOM     20  C   UNL     1       8.548  -3.595  23.853  0.00  0.00    +0.111 A 
ATOM     21  N   UNL     1       9.792  -3.107  23.992  0.00  0.00    -0.263 NA
ATOM     22  C   UNL     1      10.018  -1.869  23.473  0.00  0.00    +0.114 A 
ENDBRANCH  16  17
ENDBRANCH   1  16
TORSDOF 9
ENDMDL
MODEL 5
REMARK VINA RESULT:      -5.0      1.708      2.358
REMARK  Name = 
REMARK  9 active torsions:
REMARK  status: ('A' for Active; 'I' for Inactive)
REMARK    1  A    between atoms: O_1  and  C_2
REMARK    2  A    between atoms: C_2  and  C_3
REMARK    3  A    between atoms: C_2  and  P_10
REMARK    4  A    between atoms: C_2  and  P_14
REMARK    5  A    between atoms: C_3  and  C_4
REMARK    6  A    between atoms: P_10  and  O_11
REMARK    7  A    between atoms: P_10  and  O_12
REMARK    8  A    between atoms: P_14  and  O_15
REMARK    9  A    between atoms: P_14  and  O_16
REMARK                            x       y       z     vdW  Elec       q    Type
REMARK                         _______ _______ _______ _____ _____    ______ ____
ROOT
ATOM      1  C   UNL     1       6.916  -4.667  23.481  0.00  0.00    +0.271 C 
ENDROOT
BRANCH   1   2
ATOM      2  O   UNL     1       8.346  -5.000  23.601  0.00  0.00    -0.367 OA
ATOM      3  H   UNL     1       8.729  -4.511  24.347  0.00  0.00    +0.212 HD
ENDBRANCH   1   2
BRANCH   1   4
ATOM      4  P   UNL     1       5.940  -5.576  24.736  0.00  0.00    +0.371 P 
ATOM      5  O   UNL     1       5.115  -6.344  25.796  0.00  0.00    -0.255 OA
BRANCH   4   6
ATOM      6  O   UNL     1       4.772  -4.407  24.610  0.00  0.00    -0.322 OA
ATOM      7  H   UNL     1       4.358  -4.515  23.732  0.00  0.00    +0.220 HD
ENDBRANCH   4   6
BRANCH   4   8
ATOM      8  O   UNL     1       6.739  -4.755  25.937  0.00  0.00    -0.322 OA
ATOM      9  H   UNL     1       6.082  -4.187  26.384  0.00  0.00    +0.220 HD
ENDBRANCH   4   8
ENDBRANCH   1   4
BRANCH   1  10
ATOM     10  P   UNL     1       6.401  -5.198  21.808  0.00  0.00    +0.371 P 
ATOM     11  O   UNL     1       5.967  -5.648  20.391  0.00  0.00    -0.255 OA
BRANCH  10  12
ATOM     12  O   UNL     1       5.310  -3.966  21.773  0.00  0.00    -0.322 OA
ATOM     13  H   UNL     1       5.715  -3.245  21.243  0.00  0.00    +0.220 HD
ENDBRANCH  10  12
BRANCH  10  14
ATOM     14  O   UNL     1       5.336  -6.298  22.388  0.00  0.00    -0.322 OA
ATOM     15  H   UNL     1       5.008  -6.810  21.618  0.00  0.00    +0.220 HD
ENDBRANCH  10  14
ENDBRANCH   1  10
BRANCH   1  16
ATOM     16  C   UNL     1       6.792  -3.130  23.701  0.00  0.00    +0.097 C 
BRANCH  16  17
ATOM     17  C   UNL     1       8.038  -2.322  23.426  0.00  0.00    -0.025 A 
ATOM     18  C   UNL     1       8.443  -1.998  22.135  0.00  0.00    +0.007 A 
ATOM     19  C   UNL     1       9.593  -1.242  21.945  0.00  0.00    +0.020 A 
ATOM     20  C   UNL     1      10.307  -0.829  23.057  0.00  0.00    +0.111 A 
ATOM     21  N   UNL     1       9.956  -1.117  24.321  0.00  0.00    -0.263 NA
ATOM     22  C   UNL     1       8.817  -1.845  24.482  0.00  0.00    +0.114 A 
ENDBRANCH  16  17
ENDBRANCH   1  16
TORSDOF 9
ENDMDL
MODEL 6
REMARK VINA RESULT:      -4.9      4.854      5.966
REMARK  Name = 
REMARK  9 active torsions:
REMARK  status: ('A' for Active; 'I' for Inactive)
REMARK    1  A    between atoms: O_1  and  C_2
REMARK    2  A    between atoms: C_2  and  C_3
REMARK    3  A    between atoms: C_2  and  P_10
REMARK    4  A    between atoms: C_2  and  P_14
REMARK    5  A    between atoms: C_3  and  C_4
REMARK    6  A    between atoms: P_10  and  O_11
REMARK    7  A    between atoms: P_10  and  O_12
REMARK    8  A    between atoms: P_14  and  O_15
REMARK    9  A    between atoms: P_14  and  O_16
REMARK                            x       y       z     vdW  Elec       q    Type
REMARK                         _______ _______ _______ _____ _____    ______ ____
ROOT
ATOM      1  C   UNL     1       8.884   0.717  23.043  0.00  0.00    +0.271 C 
ENDROOT
BRANCH   1   2
ATOM      2  O   UNL     1       7.783   1.123  22.152  0.00  0.00    -0.367 OA
ATOM      3  H   UNL     1       8.140   1.335  21.275  0.00  0.00    +0.212 HD
ENDBRANCH   1   2
BRANCH   1   4
ATOM      4  P   UNL     1       8.242   0.308  24.708  0.00  0.00    +0.371 P 
ATOM      5  O   UNL     1       7.697  -0.038  26.115  0.00  0.00    -0.255 OA
BRANCH   4   6
ATOM      6  O   UNL     1       6.943   1.291  24.399  0.00  0.00    -0.322 OA
ATOM      7  H   UNL     1       6.455   0.888  23.656  0.00  0.00    +0.220 HD
ENDBRANCH   4   6
BRANCH   4   8
ATOM      8  O   UNL     1       9.130   1.556  25.346  0.00  0.00    -0.322 OA
ATOM      9  H   UNL     1       8.986   1.549  26.311  0.00  0.00    +0.220 HD
ENDBRANCH   4   8
ENDBRANCH   1   4
BRANCH   1  10
ATOM     10  P   UNL     1      10.009   2.155  23.160  0.00  0.00    +0.371 P 
ATOM     11  O   UNL     1      10.962   3.372  23.261  0.00  0.00    -0.255 OA
BRANCH  10  12
ATOM     12  O   UNL     1       8.705   3.157  23.086  0.00  0.00    -0.322 OA
ATOM     13  H   UNL     1       8.540   3.337  22.135  0.00  0.00    +0.220 HD
ENDBRANCH  10  12
BRANCH  10  14
ATOM     14  O   UNL     1      10.286   2.183  21.547  0.00  0.00    -0.322 OA
ATOM     15  H   UNL     1       9.978   3.055  21.220  0.00  0.00    +0.220 HD
ENDBRANCH  10  14
ENDBRANCH   1  10
BRANCH   1  16
ATOM     16  C   UNL     1       9.551  -0.531  22.393  0.00  0.00    +0.097 C 
BRANCH  16  17
ATOM     17  C   UNL     1       9.086  -1.873  22.909  0.00  0.00    -0.025 A 
ATOM     18  C   UNL     1       7.909  -2.469  22.468  0.00  0.00    +0.007 A 
ATOM     19  C   UNL     1       7.539  -3.710  22.972  0.00  0.00    +0.020 A 
ATOM     20  C   UNL     1       8.360  -4.321  23.903  0.00  0.00    +0.111 A 
ATOM     21  N   UNL     1       9.504  -3.784  24.358  0.00  0.00    -0.263 NA
ATOM     22  C   UNL     1       9.854  -2.575  23.839  0.00  0.00    +0.114 A 
ENDBRANCH  16  17
ENDBRANCH   1  16
TORSDOF 9
ENDMDL
MODEL 7
REMARK VINA RESULT:      -4.9      1.800      2.529
REMARK  Name = 
REMARK  9 active torsions:
REMARK  status: ('A' for Active; 'I' for Inactive)
REMARK    1  A    between atoms: O_1  and  C_2
REMARK    2  A    between atoms: C_2  and  C_3
REMARK    3  A    between atoms: C_2  and  P_10
REMARK    4  A    between atoms: C_2  and  P_14
REMARK    5  A    between atoms: C_3  and  C_4
REMARK    6  A    between atoms: P_10  and  O_11
REMARK    7  A    between atoms: P_10  and  O_12
REMARK    8  A    between atoms: P_14  and  O_15
REMARK    9  A    between atoms: P_14  and  O_16
REMARK                            x       y       z     vdW  Elec       q    Type
REMARK                         _______ _______ _______ _____ _____    ______ ____
ROOT
ATOM      1  C   UNL     1       7.988  -2.719  23.559  0.00  0.00    +0.271 C 
ENDROOT
BRANCH   1   2
ATOM      2  O   UNL     1       9.030  -2.410  22.565  0.00  0.00    -0.367 OA
ATOM      3  H   UNL     1       9.023  -1.458  22.376  0.00  0.00    +0.212 HD
ENDBRANCH   1   2
BRANCH   1   4
ATOM      4  P   UNL     1       8.578  -4.000  24.726  0.00  0.00    +0.371 P 
ATOM      5  O   UNL     1       9.078  -5.083  25.713  0.00  0.00    -0.255 OA
BRANCH   4   6
ATOM      6  O   UNL     1      10.123  -3.695  24.210  0.00  0.00    -0.322 OA
ATOM      7  H   UNL     1      10.531  -3.105  24.871  0.00  0.00    +0.220 HD
ENDBRANCH   4   6
BRANCH   4   8
ATOM      8  O   UNL     1       8.337  -5.157  23.562  0.00  0.00    -0.322 OA
ATOM      9  H   UNL     1       8.765  -4.839  22.744  0.00  0.00    +0.220 HD
ENDBRANCH   4   8
ENDBRANCH   1   4
BRANCH   1  10
ATOM     10  P   UNL     1       6.555  -3.363  22.621  0.00  0.00    +0.371 P 
ATOM     11  O   UNL     1       5.343  -3.909  21.826  0.00  0.00    -0.255 OA
BRANCH  10  12
ATOM     12  O   UNL     1       5.900  -1.853  22.623  0.00  0.00    -0.322 OA
ATOM     13  H   UNL     1       5.447  -1.742  23.487  0.00  0.00    +0.220 HD
ENDBRANCH  10  12
BRANCH  10  14
ATOM     14  O   UNL     1       5.772  -3.845  23.976  0.00  0.00    -0.322 OA
ATOM     15  H   UNL     1       6.456  -3.988  24.665  0.00  0.00    +0.220 HD
ENDBRANCH  10  14
ENDBRANCH   1  10
BRANCH   1  16
ATOM     16  C   UNL     1       7.679  -1.392  24.314  0.00  0.00    +0.097 C 
BRANCH  16  17
ATOM     17  C   UNL     1       8.703  -0.292  24.162  0.00  0.00    -0.025 A 
ATOM     18  C   UNL     1       9.893  -0.281  24.883  0.00  0.00    +0.007 A 
ATOM     19  C   UNL     1      10.801   0.753  24.692  0.00  0.00    +0.020 A 
ATOM     20  C   UNL     1      10.493   1.748  23.781  0.00  0.00    +0.111 A 
ATOM     21  N   UNL     1       9.358   1.780  23.063  0.00  0.00    -0.263 NA
ATOM     22  C   UNL     1       8.490   0.749  23.256  0.00  0.00    +0.114 A 
ENDBRANCH  16  17
ENDBRANCH   1  16
TORSDOF 9
ENDMDL
MODEL 8
REMARK VINA RESULT:      -4.9      3.616      5.232
REMARK  Name = 
REMARK  9 active torsions:
REMARK  status: ('A' for Active; 'I' for Inactive)
REMARK    1  A    between atoms: O_1  and  C_2
REMARK    2  A    between atoms: C_2  and  C_3
REMARK    3  A    between atoms: C_2  and  P_10
REMARK    4  A    between atoms: C_2  and  P_14
REMARK    5  A    between atoms: C_3  and  C_4
REMARK    6  A    between atoms: P_10  and  O_11
REMARK    7  A    between atoms: P_10  and  O_12
REMARK    8  A    between atoms: P_14  and  O_15
REMARK    9  A    between atoms: P_14  and  O_16
REMARK                            x       y       z     vdW  Elec       q    Type
REMARK                         _______ _______ _______ _____ _____    ______ ____
ROOT
ATOM      1  C   UNL     1       6.634  -3.782  23.960  0.00  0.00    +0.271 C 
ENDROOT
BRANCH   1   2
ATOM      2  O   UNL     1       5.523  -3.285  24.790  0.00  0.00    -0.367 OA
ATOM      3  H   UNL     1       4.698  -3.322  24.280  0.00  0.00    +0.212 HD
ENDBRANCH   1   2
BRANCH   1   4
ATOM      4  P   UNL     1       8.115  -2.728  24.178  0.00  0.00    +0.371 P 
ATOM      5  O   UNL     1       9.367  -1.836  24.361  0.00  0.00    -0.255 OA
BRANCH   4   6
ATOM      6  O   UNL     1       8.065  -2.400  22.554  0.00  0.00    -0.322 OA
ATOM      7  H   UNL     1       8.120  -3.257  22.091  0.00  0.00    +0.220 HD
ENDBRANCH   4   6
BRANCH   4   8
ATOM      8  O   UNL     1       9.082  -4.058  23.957  0.00  0.00    -0.322 OA
ATOM      9  H   UNL     1       9.869  -3.941  24.522  0.00  0.00    +0.220 HD
ENDBRANCH   4   8
ENDBRANCH   1   4
BRANCH   1  10
ATOM     10  P   UNL     1       6.065  -3.682  22.224  0.00  0.00    +0.371 P 
ATOM     11  O   UNL     1       5.583  -3.596  20.755  0.00  0.00    -0.255 OA
BRANCH  10  12
ATOM     12  O   UNL     1       4.770  -4.620  22.615  0.00  0.00    -0.322 OA
ATOM     13  H   UNL     1       5.001  -5.541  22.363  0.00  0.00    +0.220 HD
ENDBRANCH  10  12
BRANCH  10  14
ATOM     14  O   UNL     1       6.999  -4.941  21.753  0.00  0.00    -0.322 OA
ATOM     15  H   UNL     1       6.583  -5.754  22.110  0.00  0.00    +0.220 HD
ENDBRANCH  10  14
ENDBRANCH   1  10
BRANCH   1  16
ATOM     16  C   UNL     1       6.927  -5.239  24.426  0.00  0.00    +0.097 C 
BRANCH  16  17
ATOM     17  C   UNL     1       6.450  -5.597  25.814  0.00  0.00    -0.025 A 
ATOM     18  C   UNL     1       5.274  -6.309  26.034  0.00  0.00    +0.007 A 
ATOM     19  C   UNL     1       4.892  -6.618  27.333  0.00  0.00    +0.020 A 
ATOM     20  C   UNL     1       5.701  -6.207  28.379  0.00  0.00    +0.111 A 
ATOM     21  N   UNL     1       6.843  -5.519  28.215  0.00  0.00    -0.263 NA
ATOM     22  C   UNL     1       7.204  -5.241  26.933  0.00  0.00    +0.114 A 
ENDBRANCH  16  17
ENDBRANCH   1  16
TORSDOF 9
ENDMDL
MODEL 9
REMARK VINA RESULT:      -4.8      5.285      6.342
REMARK  Name = 
REMARK  9 active torsions:
REMARK  status: ('A' for Active; 'I' for Inactive)
REMARK    1  A    between atoms: O_1  and  C_2
REMARK    2  A    between atoms: C_2  and  C_3
REMARK    3  A    between atoms: C_2  and  P_10
REMARK    4  A    between atoms: C_2  and  P_14
REMARK    5  A    between atoms: C_3  and  C_4
REMARK    6  A    between atoms: P_10  and  O_11
REMARK    7  A    between atoms: P_10  and  O_12
REMARK    8  A    between atoms: P_14  and  O_15
REMARK    9  A    between atoms: P_14  and  O_16
REMARK                            x       y       z     vdW  Elec       q    Type
REMARK                         _______ _______ _______ _____ _____    ______ ____
ROOT
ATOM      1  C   UNL     1       8.604   1.689  22.610  0.00  0.00    +0.271 C 
ENDROOT
BRANCH   1   2
ATOM      2  O   UNL     1       9.287   2.282  21.447  0.00  0.00    -0.367 OA
ATOM      3  H   UNL     1       8.663   2.345  20.706  0.00  0.00    +0.212 HD
ENDBRANCH   1   2
BRANCH   1   4
ATOM      4  P   UNL     1       8.624  -0.138  22.501  0.00  0.00    +0.371 P 
ATOM      5  O   UNL     1       8.639  -1.683  22.409  0.00  0.00    -0.255 OA
BRANCH   4   6
ATOM      6  O   UNL     1       8.374  -0.194  24.138  0.00  0.00    -0.322 OA
ATOM      7  H   UNL     1       9.181  -0.575  24.534  0.00  0.00    +0.220 HD
ENDBRANCH   4   6
BRANCH   4   8
ATOM      8  O   UNL     1      10.274  -0.120  22.677  0.00  0.00    -0.322 OA
ATOM      9  H   UNL     1      10.643  -0.722  22.002  0.00  0.00    +0.220 HD
ENDBRANCH   4   8
ENDBRANCH   1   4
BRANCH   1  10
ATOM     10  P   UNL     1       6.875   2.284  22.551  0.00  0.00    +0.371 P 
ATOM     11  O   UNL     1       5.411   2.789  22.500  0.00  0.00    -0.255 OA
BRANCH  10  12
ATOM     12  O   UNL     1       6.860   2.346  24.196  0.00  0.00    -0.322 OA
ATOM     13  H   UNL     1       5.983   2.703  24.457  0.00  0.00    +0.220 HD
ENDBRANCH  10  12
BRANCH  10  14
ATOM     14  O   UNL     1       6.262   0.768  22.472  0.00  0.00    -0.322 OA
ATOM     15  H   UNL     1       5.996   0.616  21.541  0.00  0.00    +0.220 HD
ENDBRANCH  10  14
ENDBRANCH   1  10
BRANCH   1  16
ATOM     16  C   UNL     1       9.373   2.170  23.876  0.00  0.00    +0.097 C 
BRANCH  16  17
ATOM     17  C   UNL     1      10.120   3.476  23.739  0.00  0.00    -0.025 A 
ATOM     18  C   UNL     1       9.510   4.706  23.967  0.00  0.00    +0.007 A 
ATOM     19  C   UNL     1      10.252   5.873  23.836  0.00  0.00    +0.020 A 
ATOM     20  C   UNL     1      11.586   5.777  23.481  0.00  0.00    +0.111 A 
ATOM     21  N   UNL     1      12.217   4.613  23.252  0.00  0.00    -0.263 NA
ATOM     22  C   UNL     1      11.474   3.482  23.401  0.00  0.00    +0.114 A 
ENDBRANCH  16  17
ENDBRANCH   1  16
TORSDOF 9
ENDMDL
