MODEL 1
REMARK VINA RESULT:      -7.8      0.000      0.000
REMARK  Name = 
REMARK  3 active torsions:
REMARK  status: ('A' for Active; 'I' for Inactive)
REMARK    1  A    between atoms: N_1  and  S_2
REMARK    2  A    between atoms: S_2  and  C_5
REMARK    3  A    between atoms: C_11  and  C_18
REMARK                            x       y       z     vdW  Elec       q    Type
REMARK                         _______ _______ _______ _____ _____    ______ ____
ROOT
ATOM      1  C   UNL     1       5.232  -5.608  25.009  0.00  0.00    +0.125 A 
ATOM      2  C   UNL     1       6.478  -5.253  25.537  0.00  0.00    +0.060 A 
ATOM      3  C   UNL     1       7.333  -4.444  24.781  0.00  0.00    +0.128 A 
ATOM      4  C   UNL     1       6.982  -3.943  23.518  0.00  0.00    +0.056 A 
ATOM      5  N   UNL     1       7.851  -3.155  22.728  0.00  0.00    -0.326 N 
ATOM      6  H   UNL     1       7.362  -2.615  22.021  0.00  0.00    +0.148 HD
ATOM      7  C   UNL     1       8.825  -2.402  23.497  0.00  0.00    +0.163 C 
ATOM      8  N   UNL     1       9.701  -3.390  24.110  0.00  0.00    -0.170 NA
ATOM      9  H   UNL     1      10.612  -3.050  24.403  0.00  0.00    +0.150 HD
ATOM     10  C   UNL     1       5.748  -4.351  22.995  0.00  0.00    +0.047 A 
ATOM     11  S   UNL     1       8.917  -4.050  25.451  0.00  0.00    +0.062 S 
ATOM     12  O   UNL     1       8.733  -2.973  26.403  0.00  0.00    -0.153 OA
ATOM     13  O   UNL     1       9.599  -5.267  25.797  0.00  0.00    -0.153 OA
ATOM     14  C   UNL     1       4.866  -5.163  23.735  0.00  0.00    +0.069 A 
ATOM     15 CL   UNL     1       3.354  -5.535  22.985  0.00  0.00    -0.081 Cl
ENDROOT
BRANCH   7  16
ATOM     16  C   UNL     1       9.600  -1.334  22.680  0.00  0.00    +0.033 C 
ATOM     17  C   UNL     1       8.660  -0.221  22.098  0.00  0.00    +0.018 C 
ATOM     18  C   UNL     1       9.451   0.933  21.485  0.00  0.00    -0.027 C 
ATOM     19  C   UNL     1      10.027   1.615  22.490  0.00  0.00    -0.027 C 
ATOM     20  C   UNL     1       9.696   0.868  23.750  0.00  0.00    +0.012 C 
ATOM     21  C   UNL     1       8.251   0.521  23.380  0.00  0.00    +0.015 C 
ATOM     22  C   UNL     1      10.479  -0.468  23.645  0.00  0.00    +0.015 C 
ENDBRANCH   7  16
BRANCH   1  23
ATOM     23  S   UNL     1       4.196  -6.677  25.958  0.00  0.00    +0.057 S 
ATOM     24  O   UNL     1       3.102  -5.910  26.510  0.00  0.00    -0.153 OA
ATOM     25  O   UNL     1       3.972  -7.892  25.208  0.00  0.00    -0.153 OA
BRANCH  23  26
ATOM     26  N   UNL     1       5.172  -7.142  27.241  0.00  0.00    -0.203 NA
ATOM     27  H   UNL     1       5.836  -6.396  27.456  0.00  0.00    +0.144 HD
ATOM     28  H   UNL     1       4.585  -7.404  28.036  0.00  0.00    +0.144 HD
ENDBRANCH  23  26
ENDBRANCH   1  23
TORSDOF 3
ENDMDL
MODEL 2
REMARK VINA RESULT:      -7.4      2.640      3.011
REMARK  Name = 
REMARK  3 active torsions:
REMARK  status: ('A' for Active; 'I' for Inactive)
REMARK    1  A    between atoms: N_1  and  S_2
REMARK    2  A    between atoms: S_2  and  C_5
REMARK    3  A    between atoms: C_11  and  C_18
REMARK                            x       y       z     vdW  Elec       q    Type
REMARK                         _______ _______ _______ _____ _____    ______ ____
ROOT
ATOM      1  C   UNL     1       6.517  -3.991  26.020  0.00  0.00    +0.125 A 
ATOM      2  C   UNL     1       7.717  -3.425  25.577  0.00  0.00    +0.060 A 
ATOM      3  C   UNL     1       7.678  -2.394  24.633  0.00  0.00    +0.128 A 
ATOM      4  C   UNL     1       6.476  -1.875  24.127  0.00  0.00    +0.056 A 
ATOM      5  N   UNL     1       6.423  -0.859  23.146  0.00  0.00    -0.326 N 
ATOM      6  H   UNL     1       5.530  -0.377  23.123  0.00  0.00    +0.148 HD
ATOM      7  C   UNL     1       7.582   0.017  23.142  0.00  0.00    +0.163 C 
ATOM      8  N   UNL     1       8.707  -0.811  22.734  0.00  0.00    -0.170 NA
ATOM      9  H   UNL     1       9.511  -0.312  22.365  0.00  0.00    +0.150 HD
ATOM     10  C   UNL     1       5.292  -2.490  24.553  0.00  0.00    +0.047 A 
ATOM     11  S   UNL     1       9.208  -1.731  24.058  0.00  0.00    +0.062 S 
ATOM     12  O   UNL     1       9.686  -0.800  25.061  0.00  0.00    -0.153 OA
ATOM     13  O   UNL     1      10.028  -2.801  23.557  0.00  0.00    -0.153 OA
ATOM     14  C   UNL     1       5.301  -3.529  25.505  0.00  0.00    +0.069 A 
ATOM     15 CL   UNL     1       3.760  -4.149  25.980  0.00  0.00    -0.081 Cl
ENDROOT
BRANCH   7  16
ATOM     16  C   UNL     1       7.421   1.289  22.268  0.00  0.00    +0.033 C 
ATOM     17  C   UNL     1       6.368   2.293  22.852  0.00  0.00    +0.018 C 
ATOM     18  C   UNL     1       6.376   3.628  22.107  0.00  0.00    -0.027 C 
ATOM     19  C   UNL     1       7.513   4.269  22.427  0.00  0.00    -0.027 C 
ATOM     20  C   UNL     1       8.294   3.331  23.302  0.00  0.00    +0.012 C 
ATOM     21  C   UNL     1       7.103   2.798  24.103  0.00  0.00    +0.015 C 
ATOM     22  C   UNL     1       8.716   2.165  22.369  0.00  0.00    +0.015 C 
ENDBRANCH   7  16
BRANCH   1  23
ATOM     23  S   UNL     1       6.596  -5.330  27.167  0.00  0.00    +0.057 S 
ATOM     24  O   UNL     1       6.244  -4.847  28.484  0.00  0.00    -0.153 OA
ATOM     25  O   UNL     1       5.951  -6.482  26.581  0.00  0.00    -0.153 OA
BRANCH  23  26
ATOM     26  N   UNL     1       8.225  -5.727  27.204  0.00  0.00    -0.203 NA
ATOM     27  H   UNL     1       8.373  -6.619  26.730  0.00  0.00    +0.144 HD
ATOM     28  H   UNL     1       8.770  -4.960  26.805  0.00  0.00    +0.144 HD
ENDBRANCH  23  26
ENDBRANCH   1  23
TORSDOF 3
ENDMDL
MODEL 3
REMARK VINA RESULT:      -7.4      1.843      2.125
REMARK  Name = 
REMARK  3 active torsions:
REMARK  status: ('A' for Active; 'I' for Inactive)
REMARK    1  A    between atoms: N_1  and  S_2
REMARK    2  A    between atoms: S_2  and  C_5
REMARK    3  A    between atoms: C_11  and  C_18
REMARK                            x       y       z     vdW  Elec       q    Type
REMARK                         _______ _______ _______ _____ _____    ______ ____
ROOT
ATOM      1  C   UNL     1       5.528  -4.896  23.506  0.00  0.00    +0.125 A 
ATOM      2  C   UNL     1       5.894  -3.993  24.510  0.00  0.00    +0.060 A 
ATOM      3  C   UNL     1       7.000  -3.161  24.310  0.00  0.00    +0.128 A 
ATOM      4  C   UNL     1       7.748  -3.169  23.122  0.00  0.00    +0.056 A 
ATOM      5  N   UNL     1       8.889  -2.358  22.921  0.00  0.00    -0.326 N 
ATOM      6  H   UNL     1       9.118  -2.233  21.940  0.00  0.00    +0.148 HD
ATOM      7  C   UNL     1       8.887  -1.133  23.700  0.00  0.00    +0.163 C 
ATOM      8  N   UNL     1       8.986  -1.545  25.093  0.00  0.00    -0.170 NA
ATOM      9  H   UNL     1       9.323  -0.838  25.739  0.00  0.00    +0.150 HD
ATOM     10  C   UNL     1       7.387  -4.112  22.152  0.00  0.00    +0.047 A 
ATOM     11  S   UNL     1       7.466  -2.066  25.611  0.00  0.00    +0.062 S 
ATOM     12  O   UNL     1       6.585  -0.917  25.553  0.00  0.00    -0.153 OA
ATOM     13  O   UNL     1       7.656  -2.822  26.820  0.00  0.00    -0.153 OA
ATOM     14  C   UNL     1       6.277  -4.961  22.326  0.00  0.00    +0.069 A 
ATOM     15 CL   UNL     1       5.917  -6.032  21.018  0.00  0.00    -0.081 Cl
ENDROOT
BRANCH   7  16
ATOM     16  C   UNL     1       9.983  -0.113  23.294  0.00  0.00    +0.033 C 
ATOM     17  C   UNL     1       9.420   1.063  22.423  0.00  0.00    +0.018 C 
ATOM     18  C   UNL     1      10.455   2.167  22.212  0.00  0.00    -0.027 C 
ATOM     19  C   UNL     1      10.620   2.803  23.385  0.00  0.00    -0.027 C 
ATOM     20  C   UNL     1       9.771   2.071  24.385  0.00  0.00    +0.012 C 
ATOM     21  C   UNL     1       8.577   1.822  23.459  0.00  0.00    +0.015 C 
ATOM     22  C   UNL     1      10.453   0.688  24.557  0.00  0.00    +0.015 C 
ENDBRANCH   7  16
BRANCH   1  23
ATOM     23  S   UNL     1       4.165  -5.976  23.807  0.00  0.00    +0.057 S 
ATOM     24  O   UNL     1       3.155  -5.759  22.796  0.00  0.00    -0.153 OA
ATOM     25  O   UNL     1       4.675  -7.295  24.104  0.00  0.00    -0.153 OA
BRANCH  23  26
ATOM     26  N   UNL     1       3.535  -5.426  25.262  0.00  0.00    -0.203 NA
ATOM     27  H   UNL     1       3.043  -6.187  25.733  0.00  0.00    +0.144 HD
ATOM     28  H   UNL     1       4.285  -5.017  25.823  0.00  0.00    +0.144 HD
ENDBRANCH  23  26
ENDBRANCH   1  23
TORSDOF 3
ENDMDL
MODEL 4
REMARK VINA RESULT:      -7.2      2.625      3.143
REMARK  Name = 
REMARK  3 active torsions:
REMARK  status: ('A' for Active; 'I' for Inactive)
REMARK    1  A    between atoms: N_1  and  S_2
REMARK    2  A    between atoms: S_2  and  C_5
REMARK    3  A    between atoms: C_11  and  C_18
REMARK                            x       y       z     vdW  Elec       q    Type
REMARK                         _______ _______ _______ _____ _____    ______ ____
ROOT
ATOM      1  C   UNL     1       5.063  -4.831  25.889  0.00  0.00    +0.125 A 
ATOM      2  C   UNL     1       5.472  -4.528  24.586  0.00  0.00    +0.060 A 
ATOM      3  C   UNL     1       5.931  -3.239  24.297  0.00  0.00    +0.128 A 
ATOM      4  C   UNL     1       6.030  -2.235  25.273  0.00  0.00    +0.056 A 
ATOM      5  N   UNL     1       6.459  -0.918  24.987  0.00  0.00    -0.326 N 
ATOM      6  H   UNL     1       6.783  -0.420  25.810  0.00  0.00    +0.148 HD
ATOM      7  C   UNL     1       7.341  -0.822  23.838  0.00  0.00    +0.163 C 
ATOM      8  N   UNL     1       6.535  -1.190  22.683  0.00  0.00    -0.170 NA
ATOM      9  H   UNL     1       6.881  -0.869  21.783  0.00  0.00    +0.150 HD
ATOM     10  C   UNL     1       5.573  -2.552  26.558  0.00  0.00    +0.047 A 
ATOM     11  S   UNL     1       6.396  -2.872  22.636  0.00  0.00    +0.062 S 
ATOM     12  O   UNL     1       7.730  -3.399  22.429  0.00  0.00    -0.153 OA
ATOM     13  O   UNL     1       5.304  -3.193  21.758  0.00  0.00    -0.153 OA
ATOM     14  C   UNL     1       5.107  -3.843  26.877  0.00  0.00    +0.069 A 
ATOM     15 CL   UNL     1       4.631  -4.103  28.518  0.00  0.00    -0.081 Cl
ENDROOT
BRANCH   7  16
ATOM     16  C   UNL     1       8.033   0.558  23.674  0.00  0.00    +0.033 C 
ATOM     17  C   UNL     1       9.585   0.483  23.887  0.00  0.00    +0.018 C 
ATOM     18  C   UNL     1      10.277   1.793  23.514  0.00  0.00    -0.027 C 
ATOM     19  C   UNL     1      10.230   1.914  22.176  0.00  0.00    -0.027 C 
ATOM     20  C   UNL     1       9.435   0.743  21.674  0.00  0.00    +0.012 C 
ATOM     21  C   UNL     1      10.018  -0.296  22.636  0.00  0.00    +0.015 C 
ATOM     22  C   UNL     1       7.987   0.996  22.171  0.00  0.00    +0.015 C 
ENDBRANCH   7  16
BRANCH   1  23
ATOM     23  S   UNL     1       4.432  -6.448  26.213  0.00  0.00    +0.057 S 
ATOM     24  O   UNL     1       5.334  -7.138  27.108  0.00  0.00    -0.153 OA
ATOM     25  O   UNL     1       3.016  -6.347  26.486  0.00  0.00    -0.153 OA
BRANCH  23  26
ATOM     26  N   UNL     1       4.525  -7.218  24.726  0.00  0.00    -0.203 NA
ATOM     27  H   UNL     1       3.930  -6.735  24.051  0.00  0.00    +0.144 HD
ATOM     28  H   UNL     1       5.503  -7.277  24.435  0.00  0.00    +0.144 HD
ENDBRANCH  23  26
ENDBRANCH   1  23
TORSDOF 3
ENDMDL
MODEL 5
REMARK VINA RESULT:      -7.1      2.311      2.597
REMARK  Name = 
REMARK  3 active torsions:
REMARK  status: ('A' for Active; 'I' for Inactive)
REMARK    1  A    between atoms: N_1  and  S_2
REMARK    2  A    between atoms: S_2  and  C_5
REMARK    3  A    between atoms: C_11  and  C_18
REMARK                            x       y       z     vdW  Elec       q    Type
REMARK                         _______ _______ _______ _____ _____    ______ ____
ROOT
ATOM      1  C   UNL     1       6.031  -4.388  27.232  0.00  0.00    +0.125 A 
ATOM      2  C   UNL     1       7.023  -4.669  26.286  0.00  0.00    +0.060 A 
ATOM      3  C   UNL     1       7.215  -3.788  25.217  0.00  0.00    +0.128 A 
ATOM      4  C   UNL     1       6.472  -2.607  25.065  0.00  0.00    +0.056 A 
ATOM      5  N   UNL     1       6.632  -1.728  23.970  0.00  0.00    -0.326 N 
ATOM      6  H   UNL     1       6.280  -0.794  24.157  0.00  0.00    +0.148 HD
ATOM      7  C   UNL     1       7.954  -1.765  23.372  0.00  0.00    +0.163 C 
ATOM      8  N   UNL     1       8.091  -3.090  22.785  0.00  0.00    -0.170 NA
ATOM      9  H   UNL     1       8.796  -3.180  22.059  0.00  0.00    +0.150 HD
ATOM     10  C   UNL     1       5.456  -2.373  26.000  0.00  0.00    +0.047 A 
ATOM     11  S   UNL     1       8.441  -4.192  24.014  0.00  0.00    +0.062 S 
ATOM     12  O   UNL     1       9.730  -3.817  24.561  0.00  0.00    -0.153 OA
ATOM     13  O   UNL     1       8.183  -5.510  23.502  0.00  0.00    -0.153 OA
ATOM     14  C   UNL     1       5.241  -3.242  27.089  0.00  0.00    +0.069 A 
ATOM     15 CL   UNL     1       3.992  -2.792  28.194  0.00  0.00    -0.081 Cl
ENDROOT
BRANCH   7  16
ATOM     16  C   UNL     1       8.232  -0.624  22.357  0.00  0.00    +0.033 C 
ATOM     17  C   UNL     1       8.065   0.801  22.990  0.00  0.00    +0.018 C 
ATOM     18  C   UNL     1       8.548   1.904  22.051  0.00  0.00    -0.027 C 
ATOM     19  C   UNL     1       9.888   1.832  21.987  0.00  0.00    -0.027 C 
ATOM     20  C   UNL     1      10.285   0.635  22.804  0.00  0.00    +0.012 C 
ATOM     21  C   UNL     1       9.275   0.847  23.936  0.00  0.00    +0.015 C 
ATOM     22  C   UNL     1       9.759  -0.588  22.008  0.00  0.00    +0.015 C 
ENDBRANCH   7  16
BRANCH   1  23
ATOM     23  S   UNL     1       5.769  -5.544  28.539  0.00  0.00    +0.057 S 
ATOM     24  O   UNL     1       5.796  -4.845  29.804  0.00  0.00    -0.153 OA
ATOM     25  O   UNL     1       4.676  -6.417  28.174  0.00  0.00    -0.153 OA
BRANCH  23  26
ATOM     26  N   UNL     1       7.131  -6.523  28.484  0.00  0.00    -0.203 NA
ATOM     27  H   UNL     1       7.611  -6.494  29.385  0.00  0.00    +0.144 HD
ATOM     28  H   UNL     1       6.859  -7.465  28.199  0.00  0.00    +0.144 HD
ENDBRANCH  23  26
ENDBRANCH   1  23
TORSDOF 3
ENDMDL
MODEL 6
REMARK VINA RESULT:      -6.9      4.045      7.574
REMARK  Name = 
REMARK  3 active torsions:
REMARK  status: ('A' for Active; 'I' for Inactive)
REMARK    1  A    between atoms: N_1  and  S_2
REMARK    2  A    between atoms: S_2  and  C_5
REMARK    3  A    between atoms: C_11  and  C_18
REMARK                            x       y       z     vdW  Elec       q    Type
REMARK                         _______ _______ _______ _____ _____    ______ ____
ROOT
ATOM      1  C   UNL     1       8.664   1.378  23.904  0.00  0.00    +0.125 A 
ATOM      2  C   UNL     1       8.951   0.086  23.451  0.00  0.00    +0.060 A 
ATOM      3  C   UNL     1       8.760  -0.998  24.314  0.00  0.00    +0.128 A 
ATOM      4  C   UNL     1       8.259  -0.849  25.617  0.00  0.00    +0.056 A 
ATOM      5  N   UNL     1       8.095  -1.932  26.511  0.00  0.00    -0.326 N 
ATOM      6  H   UNL     1       7.443  -1.730  27.262  0.00  0.00    +0.148 HD
ATOM      7  C   UNL     1       7.883  -3.211  25.856  0.00  0.00    +0.163 C 
ATOM      8  N   UNL     1       9.123  -3.513  25.157  0.00  0.00    -0.170 NA
ATOM      9  H   UNL     1       9.273  -4.491  24.926  0.00  0.00    +0.150 HD
ATOM     10  C   UNL     1       8.022   0.458  26.059  0.00  0.00    +0.047 A 
ATOM     11  S   UNL     1       9.174  -2.610  23.731  0.00  0.00    +0.062 S 
ATOM     12  O   UNL     1       8.078  -3.071  22.903  0.00  0.00    -0.153 OA
ATOM     13  O   UNL     1      10.534  -2.609  23.266  0.00  0.00    -0.153 OA
ATOM     14  C   UNL     1       8.204   1.568  25.211  0.00  0.00    +0.069 A 
ATOM     15 CL   UNL     1       7.814   3.115  25.877  0.00  0.00    -0.081 Cl
ENDROOT
BRANCH   7  16
ATOM     16  C   UNL     1       7.433  -4.352  26.807  0.00  0.00    +0.033 C 
ATOM     17  C   UNL     1       5.993  -4.124  27.384  0.00  0.00    +0.018 C 
ATOM     18  C   UNL     1       5.479  -5.348  28.139  0.00  0.00    -0.027 C 
ATOM     19  C   UNL     1       5.221  -6.309  27.236  0.00  0.00    -0.027 C 
ATOM     20  C   UNL     1       5.645  -5.761  25.904  0.00  0.00    +0.012 C 
ATOM     21  C   UNL     1       5.135  -4.334  26.127  0.00  0.00    +0.015 C 
ATOM     22  C   UNL     1       7.191  -5.661  25.982  0.00  0.00    +0.015 C 
ENDBRANCH   7  16
BRANCH   1  23
ATOM     23  S   UNL     1       8.968   2.734  22.816  0.00  0.00    +0.057 S 
ATOM     24  O   UNL     1       7.706   3.297  22.393  0.00  0.00    -0.153 OA
ATOM     25  O   UNL     1      10.018   3.553  23.378  0.00  0.00    -0.153 OA
BRANCH  23  26
ATOM     26  N   UNL     1       9.665   2.015  21.469  0.00  0.00    -0.203 NA
ATOM     27  H   UNL     1       8.989   1.991  20.704  0.00  0.00    +0.144 HD
ATOM     28  H   UNL     1      10.529   2.506  21.232  0.00  0.00    +0.144 HD
ENDBRANCH  23  26
ENDBRANCH   1  23
TORSDOF 3
ENDMDL
MODEL 7
REMARK VINA RESULT:      -6.7      1.993      2.341
REMARK  Name = 
REMARK  3 active torsions:
REMARK  status: ('A' for Active; 'I' for Inactive)
REMARK    1  A    between atoms: N_1  and  S_2
REMARK    2  A    between atoms: S_2  and  C_5
REMARK    3  A    between atoms: C_11  and  C_18
REMARK                            x       y       z     vdW  Elec       q    Type
REMARK                         _______ _______ _______ _____ _____    ______ ____
ROOT
ATOM      1  C   UNL     1       4.612  -5.135  25.445  0.00  0.00    +0.125 A 
ATOM      2  C   UNL     1       5.705  -5.152  24.571  0.00  0.00    +0.060 A 
ATOM      3  C   UNL     1       6.225  -3.940  24.105  0.00  0.00    +0.128 A 
ATOM      4  C   UNL     1       5.715  -2.694  24.503  0.00  0.00    +0.056 A 
ATOM      5  N   UNL     1       6.207  -1.463  24.011  0.00  0.00    -0.326 N 
ATOM      6  H   UNL     1       5.976  -0.677  24.610  0.00  0.00    +0.148 HD
ATOM      7  C   UNL     1       7.595  -1.511  23.587  0.00  0.00    +0.163 C 
ATOM      8  N   UNL     1       7.630  -2.394  22.430  0.00  0.00    -0.170 NA
ATOM      9  H   UNL     1       8.434  -2.287  21.818  0.00  0.00    +0.150 HD
ATOM     10  C   UNL     1       4.594  -2.708  25.342  0.00  0.00    +0.047 A 
ATOM     11  S   UNL     1       7.573  -3.993  22.969  0.00  0.00    +0.062 S 
ATOM     12  O   UNL     1       8.782  -4.222  23.735  0.00  0.00    -0.153 OA
ATOM     13  O   UNL     1       7.213  -4.816  21.847  0.00  0.00    -0.153 OA
ATOM     14  C   UNL     1       4.050  -3.913  25.828  0.00  0.00    +0.069 A 
ATOM     15 CL   UNL     1       2.704  -3.770  26.902  0.00  0.00    -0.081 Cl
ENDROOT
BRANCH   7  16
ATOM     16  C   UNL     1       8.228  -0.123  23.305  0.00  0.00    +0.033 C 
ATOM     17  C   UNL     1       8.500   0.694  24.616  0.00  0.00    +0.018 C 
ATOM     18  C   UNL     1       9.315   1.957  24.345  0.00  0.00    -0.027 C 
ATOM     19  C   UNL     1      10.568   1.579  24.040  0.00  0.00    -0.027 C 
ATOM     20  C   UNL     1      10.562   0.077  24.021  0.00  0.00    +0.012 C 
ATOM     21  C   UNL     1       9.650  -0.115  25.236  0.00  0.00    +0.015 C 
ATOM     22  C   UNL     1       9.697  -0.307  22.792  0.00  0.00    +0.015 C 
ENDBRANCH   7  16
BRANCH   1  23
ATOM     23  S   UNL     1       3.939  -6.679  25.972  0.00  0.00    +0.057 S 
ATOM     24  O   UNL     1       2.625  -6.457  26.532  0.00  0.00    -0.153 OA
ATOM     25  O   UNL     1       4.170  -7.663  24.939  0.00  0.00    -0.153 OA
BRANCH  23  26
ATOM     26  N   UNL     1       4.943  -7.142  27.233  0.00  0.00    -0.203 NA
ATOM     27  H   UNL     1       5.916  -7.122  26.923  0.00  0.00    +0.144 HD
ATOM     28  H   UNL     1       4.763  -6.548  28.045  0.00  0.00    +0.144 HD
ENDBRANCH  23  26
ENDBRANCH   1  23
TORSDOF 3
ENDMDL
MODEL 8
REMARK VINA RESULT:      -6.7      5.413      8.504
REMARK  Name = 
REMARK  3 active torsions:
REMARK  status: ('A' for Active; 'I' for Inactive)
REMARK    1  A    between atoms: N_1  and  S_2
REMARK    2  A    between atoms: S_2  and  C_5
REMARK    3  A    between atoms: C_11  and  C_18
REMARK                            x       y       z     vdW  Elec       q    Type
REMARK                         _______ _______ _______ _____ _____    ______ ____
ROOT
ATOM      1  C   UNL     1       9.102   4.349  24.352  0.00  0.00    +0.125 A 
ATOM      2  C   UNL     1       9.839   3.211  24.007  0.00  0.00    +0.060 A 
ATOM      3  C   UNL     1       9.380   1.953  24.410  0.00  0.00    +0.128 A 
ATOM      4  C   UNL     1       8.186   1.777  25.127  0.00  0.00    +0.056 A 
ATOM      5  N   UNL     1       7.729   0.514  25.572  0.00  0.00    -0.326 N 
ATOM      6  H   UNL     1       6.735   0.502  25.775  0.00  0.00    +0.148 HD
ATOM      7  C   UNL     1       8.193  -0.599  24.763  0.00  0.00    +0.163 C 
ATOM      8  N   UNL     1       9.635  -0.657  24.951  0.00  0.00    -0.170 NA
ATOM      9  H   UNL     1      10.073  -1.547  24.734  0.00  0.00    +0.150 HD
ATOM     10  C   UNL     1       7.492   2.935  25.497  0.00  0.00    +0.047 A 
ATOM     11  S   UNL     1      10.353   0.540  24.001  0.00  0.00    +0.062 S 
ATOM     12  O   UNL     1      10.075   0.203  22.619  0.00  0.00    -0.153 OA
ATOM     13  O   UNL     1      11.693   0.733  24.485  0.00  0.00    -0.153 OA
ATOM     14  C   UNL     1       7.930   4.215  25.103  0.00  0.00    +0.069 A 
ATOM     15 CL   UNL     1       6.939   5.547  25.584  0.00  0.00    -0.081 Cl
ENDROOT
BRANCH   7  16
ATOM     16  C   UNL     1       7.491  -1.949  25.066  0.00  0.00    +0.033 C 
ATOM     17  C   UNL     1       6.580  -2.434  23.885  0.00  0.00    +0.018 C 
ATOM     18  C   UNL     1       6.069  -3.857  24.104  0.00  0.00    -0.027 C 
ATOM     19  C   UNL     1       7.111  -4.694  23.957  0.00  0.00    -0.027 C 
ATOM     20  C   UNL     1       8.318  -3.829  23.733  0.00  0.00    +0.012 C 
ATOM     21  C   UNL     1       7.635  -2.798  22.829  0.00  0.00    +0.015 C 
ATOM     22  C   UNL     1       8.550  -3.103  25.083  0.00  0.00    +0.015 C 
ENDBRANCH   7  16
BRANCH   1  23
ATOM     23  S   UNL     1       9.733   5.929  23.881  0.00  0.00    +0.057 S 
ATOM     24  O   UNL     1       8.795   6.567  22.985  0.00  0.00    -0.153 OA
ATOM     25  O   UNL     1      10.235   6.598  25.060  0.00  0.00    -0.153 OA
BRANCH  23  26
ATOM     26  N   UNL     1      11.102   5.560  22.985  0.00  0.00    -0.203 NA
ATOM     27  H   UNL     1      10.838   5.014  22.164  0.00  0.00    +0.144 HD
ATOM     28  H   UNL     1      11.599   6.423  22.756  0.00  0.00    +0.144 HD
ENDBRANCH  23  26
ENDBRANCH   1  23
TORSDOF 3
ENDMDL
MODEL 9
REMARK VINA RESULT:      -6.6      3.378      7.363
REMARK  Name = 
REMARK  3 active torsions:
REMARK  status: ('A' for Active; 'I' for Inactive)
REMARK    1  A    between atoms: N_1  and  S_2
REMARK    2  A    between atoms: S_2  and  C_5
REMARK    3  A    between atoms: C_11  and  C_18
REMARK                            x       y       z     vdW  Elec       q    Type
REMARK                         _______ _______ _______ _____ _____    ______ ____
ROOT
ATOM      1  C   UNL     1       8.418  -1.096  23.140  0.00  0.00    +0.125 A 
ATOM      2  C   UNL     1       8.468  -2.494  23.146  0.00  0.00    +0.060 A 
ATOM      3  C   UNL     1       7.501  -3.208  23.862  0.00  0.00    +0.128 A 
ATOM      4  C   UNL     1       6.455  -2.579  24.556  0.00  0.00    +0.056 A 
ATOM      5  N   UNL     1       5.493  -3.287  25.313  0.00  0.00    -0.326 N 
ATOM      6  H   UNL     1       4.646  -2.752  25.476  0.00  0.00    +0.148 HD
ATOM      7  C   UNL     1       5.269  -4.647  24.857  0.00  0.00    +0.163 C 
ATOM      8  N   UNL     1       6.512  -5.363  25.105  0.00  0.00    -0.170 NA
ATOM      9  H   UNL     1       6.436  -6.374  25.156  0.00  0.00    +0.150 HD
ATOM     10  C   UNL     1       6.455  -1.179  24.570  0.00  0.00    +0.047 A 
ATOM     11  S   UNL     1       7.615  -4.967  23.890  0.00  0.00    +0.062 S 
ATOM     12  O   UNL     1       7.064  -5.461  22.645  0.00  0.00    -0.153 OA
ATOM     13  O   UNL     1       8.923  -5.349  24.351  0.00  0.00    -0.153 OA
ATOM     14  C   UNL     1       7.415  -0.434  23.856  0.00  0.00    +0.069 A 
ATOM     15 CL   UNL     1       7.254   1.285  23.918  0.00  0.00    -0.081 Cl
ENDROOT
BRANCH   7  16
ATOM     16  C   UNL     1       4.035  -5.342  25.492  0.00  0.00    +0.033 C 
ATOM     17  C   UNL     1       2.755  -5.241  24.592  0.00  0.00    +0.018 C 
ATOM     18  C   UNL     1       1.614  -6.107  25.122  0.00  0.00    -0.027 C 
ATOM     19  C   UNL     1       1.945  -7.393  24.915  0.00  0.00    -0.027 C 
ATOM     20  C   UNL     1       3.331  -7.384  24.337  0.00  0.00    +0.012 C 
ATOM     21  C   UNL     1       3.139  -6.167  23.428  0.00  0.00    +0.015 C 
ATOM     22  C   UNL     1       4.245  -6.894  25.491  0.00  0.00    +0.015 C 
ENDBRANCH   7  16
BRANCH   1  23
ATOM     23  S   UNL     1       9.684  -0.217  22.278  0.00  0.00    +0.057 S 
ATOM     24  O   UNL     1       9.095   0.489  21.163  0.00  0.00    -0.153 OA
ATOM     25  O   UNL     1      10.525   0.451  23.244  0.00  0.00    -0.153 OA
BRANCH  23  26
ATOM     26  N   UNL     1      10.649  -1.433  21.641  0.00  0.00    -0.203 NA
ATOM     27  H   UNL     1      10.157  -1.895  20.874  0.00  0.00    +0.144 HD
ATOM     28  H   UNL     1      11.551  -1.040  21.366  0.00  0.00    +0.144 HD
ENDBRANCH  23  26
ENDBRANCH   1  23
TORSDOF 3
ENDMDL
