MODEL 1
REMARK VINA RESULT:      -6.3      0.000      0.000
REMARK  Name = 
REMARK  29 active torsions:
REMARK  status: ('A' for Active; 'I' for Inactive)
REMARK    1  A    between atoms: C_1  and  C_2
REMARK    2  A    between atoms: C_5  and  O_7
REMARK    3  A    between atoms: O_7  and  C_8
REMARK    4  A    between atoms: C_10  and  C_12
REMARK    5  A    between atoms: C_12  and  O_13
REMARK    6  A    between atoms: C_15  and  O_17
REMARK    7  A    between atoms: C_18  and  O_20
REMARK    8  A    between atoms: C_21  and  O_23
REMARK    9  A    between atoms: C_24  and  O_26
REMARK   10  A    between atoms: C_27  and  O_29
REMARK   11  A    between atoms: C_30  and  N_32
REMARK   12  A    between atoms: N_32  and  C_33
REMARK   13  A    between atoms: C_36  and  C_37
REMARK   14  A    between atoms: C_37  and  O_38
REMARK   15  A    between atoms: C_39  and  O_41
REMARK   16  A    between atoms: O_41  and  C_42
REMARK   17  A    between atoms: C_45  and  C_47
REMARK   18  A    between atoms: C_47  and  O_48
REMARK   19  A    between atoms: C_49  and  O_51
REMARK   20  A    between atoms: O_51  and  C_52
REMARK   21  A    between atoms: C_55  and  C_57
REMARK   22  A    between atoms: C_57  and  O_58
REMARK   23  A    between atoms: C_59  and  O_61
REMARK   24  A    between atoms: C_62  and  O_64
REMARK   25  A    between atoms: C_65  and  O_67
REMARK   26  A    between atoms: C_68  and  O_70
REMARK   27  A    between atoms: C_71  and  O_73
REMARK   28  A    between atoms: C_74  and  O_76
REMARK   29  A    between atoms: C_77  and  O_79
REMARK                            x       y       z     vdW  Elec       q    Type
REMARK                         _______ _______ _______ _____ _____    ______ ____
ROOT
ATOM      1  C   UNL     1       9.144   2.287  23.076  0.00  0.00    +0.109 C 
ATOM      2  C   UNL     1       9.544   3.647  23.763  0.00  0.00    +0.166 C 
ATOM      3  C   UNL     1       8.461   4.743  23.882  0.00  0.00    +0.178 C 
ATOM      4  C   UNL     1       6.989   4.269  23.923  0.00  0.00    +0.180 C 
ATOM      5  C   UNL     1       6.723   3.096  23.032  0.00  0.00    -0.016 C 
ATOM      6  C   UNL     1       7.690   2.223  22.686  0.00  0.00    -0.002 C 
ENDROOT
BRANCH   1   7
ATOM      7  N   UNL     1       9.614   1.110  23.869  0.00  0.00    -0.300 NA
ATOM      8  H   UNL     1      10.472   0.762  23.442  0.00  0.00    +0.123 HD
BRANCH   7  11
ATOM      9  C   UNL     1       8.286  -1.364  26.222  0.00  0.00    +0.039 C 
ATOM     10  C   UNL     1       9.214  -1.150  25.036  0.00  0.00    +0.138 C 
ATOM     11  C   UNL     1       8.662  -0.048  24.038  0.00  0.00    +0.114 C 
ATOM     12  C   UNL     1       8.167  -0.667  22.707  0.00  0.00    +0.167 C 
ATOM     13  C   UNL     1       8.805  -2.017  22.330  0.00  0.00    +0.200 C 
ATOM     14  C   UNL     1       8.742  -3.034  23.509  0.00  0.00    +0.282 C 
ATOM     15  O   UNL     1       9.503  -2.475  24.573  0.00  0.00    -0.344 OA
BRANCH  13  16
ATOM     16  O   UNL     1      10.165  -1.791  21.911  0.00  0.00    -0.384 OA
ATOM     17  H   UNL     1      10.658  -2.634  21.986  0.00  0.00    +0.210 HD
ENDBRANCH  13  16
BRANCH  12  18
ATOM     18  O   UNL     1       6.735  -0.749  22.755  0.00  0.00    -0.387 OA
ATOM     19  H   UNL     1       6.382   0.146  22.614  0.00  0.00    +0.210 HD
ENDBRANCH  12  18
BRANCH  14  20
ATOM     20  O   UNL     1       7.373  -3.442  23.761  0.00  0.00    -0.340 OA
BRANCH  20  21
ATOM     21  C   UNL     1       7.037  -4.746  24.304  0.00  0.00    +0.183 C 
ATOM     22  C   UNL     1       7.608  -4.803  25.764  0.00  0.00    +0.179 C 
ATOM     23  C   UNL     1       6.746  -5.331  26.941  0.00  0.00    +0.201 C 
ATOM     24  C   UNL     1       5.441  -6.017  26.523  0.00  0.00    +0.279 C 
ATOM     25  O   UNL     1       5.405  -6.387  25.152  0.00  0.00    -0.341 OA
ATOM     26  C   UNL     1       5.573  -5.263  24.246  0.00  0.00    +0.178 C 
BRANCH  24  27
ATOM     27  O   UNL     1       5.167  -7.171  27.329  0.00  0.00    -0.365 OA
ATOM     28  H   UNL     1       4.266  -7.026  27.662  0.00  0.00    +0.213 HD
ENDBRANCH  24  27
BRANCH  23  29
ATOM     29  O   UNL     1       7.508  -6.169  27.844  0.00  0.00    -0.384 OA
ATOM     30  H   UNL     1       7.160  -6.021  28.742  0.00  0.00    +0.210 HD
ENDBRANCH  23  29
BRANCH  22  31
ATOM     31  O   UNL     1       8.846  -5.554  25.714  0.00  0.00    -0.386 OA
ATOM     32  H   UNL     1       9.367  -5.210  24.975  0.00  0.00    +0.210 HD
ENDBRANCH  22  31
BRANCH  26  33
ATOM     33  C   UNL     1       4.401  -4.292  24.426  0.00  0.00    +0.190 C 
BRANCH  33  34
ATOM     34  O   UNL     1       4.912  -2.982  24.750  0.00  0.00    -0.392 OA
ATOM     35  H   UNL     1       5.890  -3.052  24.799  0.00  0.00    +0.210 HD
ENDBRANCH  33  34
ENDBRANCH  26  33
ENDBRANCH  20  21
ENDBRANCH  14  20
ENDBRANCH   7  11
ENDBRANCH   1   7
BRANCH   3  36
ATOM     36  O   UNL     1       8.739   5.630  24.999  0.00  0.00    -0.386 OA
ATOM     37  H   UNL     1       9.434   6.241  24.684  0.00  0.00    +0.210 HD
ENDBRANCH   3  36
BRANCH   2  38
ATOM     38  O   UNL     1      10.674   4.198  23.005  0.00  0.00    -0.387 OA
ATOM     39  H   UNL     1      11.448   4.219  23.606  0.00  0.00    +0.210 HD
ENDBRANCH   2  38
BRANCH   5  40
ATOM     40  C   UNL     1       5.334   3.004  22.462  0.00  0.00    +0.189 C 
BRANCH  40  41
ATOM     41  O   UNL     1       4.768   4.307  22.389  0.00  0.00    -0.391 OA
ATOM     42  H   UNL     1       3.833   4.251  22.646  0.00  0.00    +0.210 HD
ENDBRANCH  40  41
ENDBRANCH   5  40
BRANCH   4  43
ATOM     43  O   UNL     1       6.381   4.222  25.217  0.00  0.00    -0.338 OA
BRANCH  43  44
ATOM     44  C   UNL     1       5.803   3.036  25.779  0.00  0.00    +0.282 C 
ATOM     45  C   UNL     1       6.602   2.417  26.952  0.00  0.00    +0.201 C 
ATOM     46  C   UNL     1       5.880   1.184  27.582  0.00  0.00    +0.179 C 
ATOM     47  C   UNL     1       4.363   1.391  27.819  0.00  0.00    +0.183 C 
ATOM     48  C   UNL     1       3.809   1.986  26.487  0.00  0.00    +0.178 C 
ATOM     49  O   UNL     1       4.447   3.217  26.107  0.00  0.00    -0.341 OA
BRANCH  46  50
ATOM     50  O   UNL     1       6.560   0.838  28.802  0.00  0.00    -0.386 OA
ATOM     51  H   UNL     1       6.289  -0.059  29.072  0.00  0.00    +0.210 HD
ENDBRANCH  46  50
BRANCH  45  52
ATOM     52  O   UNL     1       7.914   2.038  26.492  0.00  0.00    -0.384 OA
ATOM     53  H   UNL     1       7.834   1.742  25.565  0.00  0.00    +0.210 HD
ENDBRANCH  45  52
BRANCH  48  54
ATOM     54  C   UNL     1       2.304   2.270  26.490  0.00  0.00    +0.190 C 
BRANCH  54  55
ATOM     55  O   UNL     1       1.594   1.044  26.246  0.00  0.00    -0.392 OA
ATOM     56  H   UNL     1       1.191   1.132  25.361  0.00  0.00    +0.210 HD
ENDBRANCH  54  55
ENDBRANCH  48  54
BRANCH  47  57
ATOM     57  O   UNL     1       3.601   0.173  27.986  0.00  0.00    -0.340 OA
BRANCH  57  58
ATOM     58  C   UNL     1       3.952  -0.900  28.848  0.00  0.00    +0.282 C 
ATOM     59  C   UNL     1       4.102  -2.241  28.070  0.00  0.00    +0.201 C 
ATOM     60  C   UNL     1       2.753  -2.647  27.426  0.00  0.00    +0.179 C 
ATOM     61  C   UNL     1       1.653  -2.759  28.494  0.00  0.00    +0.177 C 
ATOM     62  C   UNL     1       1.623  -1.546  29.455  0.00  0.00    +0.178 C 
ATOM     63  O   UNL     1       2.917  -1.061  29.853  0.00  0.00    -0.341 OA
BRANCH  61  64
ATOM     64  O   UNL     1       1.847  -3.997  29.211  0.00  0.00    -0.386 OA
ATOM     65  H   UNL     1       2.064  -3.799  30.140  0.00  0.00    +0.210 HD
ENDBRANCH  61  64
BRANCH  60  66
ATOM     66  O   UNL     1       2.414  -1.758  26.366  0.00  0.00    -0.386 OA
ATOM     67  H   UNL     1       3.251  -1.319  26.082  0.00  0.00    +0.210 HD
ENDBRANCH  60  66
BRANCH  59  68
ATOM     68  O   UNL     1       4.596  -3.299  28.897  0.00  0.00    -0.384 OA
ATOM     69  H   UNL     1       4.300  -4.169  28.538  0.00  0.00    +0.210 HD
ENDBRANCH  59  68
BRANCH  62  70
ATOM     70  C   UNL     1       0.676  -0.437  28.931  0.00  0.00    +0.190 C 
BRANCH  70  71
ATOM     71  O   UNL     1       1.044   0.843  29.380  0.00  0.00    -0.392 OA
ATOM     72  H   UNL     1       0.239   1.301  29.677  0.00  0.00    +0.210 HD
ENDBRANCH  70  71
ENDBRANCH  62  70
ENDBRANCH  57  58
ENDBRANCH  47  57
ENDBRANCH  43  44
ENDBRANCH   4  43
TORSDOF 28
ENDMDL
MODEL 2
REMARK VINA RESULT:      -6.0      2.527      5.281
REMARK  Name = 
REMARK  29 active torsions:
REMARK  status: ('A' for Active; 'I' for Inactive)
REMARK    1  A    between atoms: C_1  and  C_2
REMARK    2  A    between atoms: C_5  and  O_7
REMARK    3  A    between atoms: O_7  and  C_8
REMARK    4  A    between atoms: C_10  and  C_12
REMARK    5  A    between atoms: C_12  and  O_13
REMARK    6  A    between atoms: C_15  and  O_17
REMARK    7  A    between atoms: C_18  and  O_20
REMARK    8  A    between atoms: C_21  and  O_23
REMARK    9  A    between atoms: C_24  and  O_26
REMARK   10  A    between atoms: C_27  and  O_29
REMARK   11  A    between atoms: C_30  and  N_32
REMARK   12  A    between atoms: N_32  and  C_33
REMARK   13  A    between atoms: C_36  and  C_37
REMARK   14  A    between atoms: C_37  and  O_38
REMARK   15  A    between atoms: C_39  and  O_41
REMARK   16  A    between atoms: O_41  and  C_42
REMARK   17  A    between atoms: C_45  and  C_47
REMARK   18  A    between atoms: C_47  and  O_48
REMARK   19  A    between atoms: C_49  and  O_51
REMARK   20  A    between atoms: O_51  and  C_52
REMARK   21  A    between atoms: C_55  and  C_57
REMARK   22  A    between atoms: C_57  and  O_58
REMARK   23  A    between atoms: C_59  and  O_61
REMARK   24  A    between atoms: C_62  and  O_64
REMARK   25  A    between atoms: C_65  and  O_67
REMARK   26  A    between atoms: C_68  and  O_70
REMARK   27  A    between atoms: C_71  and  O_73
REMARK   28  A    between atoms: C_74  and  O_76
REMARK   29  A    between atoms: C_77  and  O_79
REMARK                            x       y       z     vdW  Elec       q    Type
REMARK                         _______ _______ _______ _____ _____    ______ ____
ROOT
ATOM      1  C   UNL     1       7.992  -1.198  23.485  0.00  0.00    +0.109 C 
ATOM      2  C   UNL     1       8.680  -1.064  24.895  0.00  0.00    +0.166 C 
ATOM      3  C   UNL     1       9.912  -0.138  25.013  0.00  0.00    +0.178 C 
ATOM      4  C   UNL     1      10.010   1.026  23.999  0.00  0.00    +0.180 C 
ATOM      5  C   UNL     1       9.519   0.661  22.634  0.00  0.00    -0.016 C 
ATOM      6  C   UNL     1       8.612  -0.317  22.434  0.00  0.00    -0.002 C 
ENDROOT
BRANCH   1   7
ATOM      7  N   UNL     1       6.505  -1.075  23.584  0.00  0.00    -0.300 NA
ATOM      8  H   UNL     1       6.287  -0.538  24.424  0.00  0.00    +0.123 HD
BRANCH   7  11
ATOM      9  C   UNL     1       4.155  -3.100  25.533  0.00  0.00    +0.039 C 
ATOM     10  C   UNL     1       5.596  -2.980  25.059  0.00  0.00    +0.138 C 
ATOM     11  C   UNL     1       5.695  -2.347  23.608  0.00  0.00    +0.114 C 
ATOM     12  C   UNL     1       6.117  -3.394  22.546  0.00  0.00    +0.167 C 
ATOM     13  C   UNL     1       6.916  -4.594  23.087  0.00  0.00    +0.200 C 
ATOM     14  C   UNL     1       6.211  -5.252  24.311  0.00  0.00    +0.282 C 
ATOM     15  O   UNL     1       6.164  -4.266  25.334  0.00  0.00    -0.344 OA
BRANCH  13  16
ATOM     16  O   UNL     1       8.246  -4.157  23.425  0.00  0.00    -0.384 OA
ATOM     17  H   UNL     1       8.284  -3.182  23.341  0.00  0.00    +0.210 HD
ENDBRANCH  13  16
BRANCH  12  18
ATOM     18  O   UNL     1       4.943  -3.810  21.835  0.00  0.00    -0.387 OA
ATOM     19  H   UNL     1       5.200  -4.530  21.235  0.00  0.00    +0.210 HD
ENDBRANCH  12  18
BRANCH  14  20
ATOM     20  O   UNL     1       4.982  -5.906  23.904  0.00  0.00    -0.340 OA
BRANCH  20  21
ATOM     21  C   UNL     1       4.406  -7.012  24.647  0.00  0.00    +0.183 C 
ATOM     22  C   UNL     1       4.217  -6.531  26.127  0.00  0.00    +0.179 C 
ATOM     23  C   UNL     1       2.891  -6.789  26.890  0.00  0.00    +0.201 C 
ATOM     24  C   UNL     1       1.928  -7.757  26.192  0.00  0.00    +0.279 C 
ATOM     25  O   UNL     1       2.539  -8.533  25.173  0.00  0.00    -0.341 OA
ATOM     26  C   UNL     1       3.136  -7.732  24.116  0.00  0.00    +0.178 C 
BRANCH  24  27
ATOM     27  O   UNL     1       1.284  -8.632  27.128  0.00  0.00    -0.365 OA
ATOM     28  H   UNL     1       1.550  -8.294  27.999  0.00  0.00    +0.213 HD
ENDBRANCH  24  27
BRANCH  23  29
ATOM     29  O   UNL     1       3.120  -7.186  28.265  0.00  0.00    -0.384 OA
ATOM     30  H   UNL     1       3.774  -6.570  28.641  0.00  0.00    +0.210 HD
ENDBRANCH  23  29
BRANCH  22  31
ATOM     31  O   UNL     1       5.317  -7.068  26.900  0.00  0.00    -0.386 OA
ATOM     32  H   UNL     1       5.435  -6.501  27.675  0.00  0.00    +0.210 HD
ENDBRANCH  22  31
BRANCH  26  33
ATOM     33  C   UNL     1       2.035  -6.937  23.405  0.00  0.00    +0.190 C 
BRANCH  33  34
ATOM     34  O   UNL     1       2.637  -5.894  22.610  0.00  0.00    -0.392 OA
ATOM     35  H   UNL     1       3.124  -5.302  23.223  0.00  0.00    +0.210 HD
ENDBRANCH  33  34
ENDBRANCH  26  33
ENDBRANCH  20  21
ENDBRANCH  14  20
ENDBRANCH   7  11
ENDBRANCH   1   7
BRANCH   3  36
ATOM     36  O   UNL     1      10.062   0.358  26.371  0.00  0.00    -0.386 OA
ATOM     37  H   UNL     1      10.817  -0.134  26.750  0.00  0.00    +0.210 HD
ENDBRANCH   3  36
BRANCH   2  38
ATOM     38  O   UNL     1       9.080  -2.415  25.312  0.00  0.00    -0.387 OA
ATOM     39  H   UNL     1       9.418  -2.878  24.518  0.00  0.00    +0.210 HD
ENDBRANCH   2  38
BRANCH   5  40
ATOM     40  C   UNL     1      10.172   1.380  21.485  0.00  0.00    +0.189 C 
BRANCH  40  41
ATOM     41  O   UNL     1      10.720   2.608  21.949  0.00  0.00    -0.391 OA
ATOM     42  H   UNL     1       9.996   3.159  22.288  0.00  0.00    +0.210 HD
ENDBRANCH  40  41
ENDBRANCH   5  40
BRANCH   4  43
ATOM     43  O   UNL     1       9.614   2.314  24.483  0.00  0.00    -0.338 OA
BRANCH  43  44
ATOM     44  C   UNL     1       8.255   2.768  24.503  0.00  0.00    +0.282 C 
ATOM     45  C   UNL     1       7.724   3.291  23.145  0.00  0.00    +0.201 C 
ATOM     46  C   UNL     1       6.214   3.686  23.204  0.00  0.00    +0.179 C 
ATOM     47  C   UNL     1       5.319   2.657  23.940  0.00  0.00    +0.183 C 
ATOM     48  C   UNL     1       6.063   2.333  25.272  0.00  0.00    +0.178 C 
ATOM     49  O   UNL     1       7.389   1.814  25.069  0.00  0.00    -0.341 OA
BRANCH  46  50
ATOM     50  O   UNL     1       5.755   3.917  21.860  0.00  0.00    -0.386 OA
ATOM     51  H   UNL     1       5.029   3.297  21.663  0.00  0.00    +0.210 HD
ENDBRANCH  46  50
BRANCH  45  52
ATOM     52  O   UNL     1       8.513   4.422  22.726  0.00  0.00    -0.384 OA
ATOM     53  H   UNL     1       9.266   4.509  23.340  0.00  0.00    +0.210 HD
ENDBRANCH  45  52
BRANCH  48  54
ATOM     54  C   UNL     1       5.346   1.325  26.176  0.00  0.00    +0.190 C 
BRANCH  54  55
ATOM     55  O   UNL     1       4.557   0.441  25.362  0.00  0.00    -0.392 OA
ATOM     56  H   UNL     1       3.752   0.937  25.121  0.00  0.00    +0.210 HD
ENDBRANCH  54  55
ENDBRANCH  48  54
BRANCH  47  57
ATOM     57  O   UNL     1       4.042   3.170  24.384  0.00  0.00    -0.340 OA
BRANCH  57  58
ATOM     58  C   UNL     1       3.835   4.435  24.995  0.00  0.00    +0.282 C 
ATOM     59  C   UNL     1       2.832   4.346  26.183  0.00  0.00    +0.201 C 
ATOM     60  C   UNL     1       1.439   3.892  25.683  0.00  0.00    +0.179 C 
ATOM     61  C   UNL     1       0.913   4.847  24.599  0.00  0.00    +0.177 C 
ATOM     62  C   UNL     1       1.968   5.162  23.512  0.00  0.00    +0.178 C 
ATOM     63  O   UNL     1       3.303   5.358  24.008  0.00  0.00    -0.341 OA
BRANCH  61  64
ATOM     64  O   UNL     1       0.446   6.049  25.247  0.00  0.00    -0.386 OA
ATOM     65  H   UNL     1       1.092   6.763  25.101  0.00  0.00    +0.210 HD
ENDBRANCH  61  64
BRANCH  60  66
ATOM     66  O   UNL     1       1.475   2.532  25.260  0.00  0.00    -0.386 OA
ATOM     67  H   UNL     1       2.203   2.457  24.599  0.00  0.00    +0.210 HD
ENDBRANCH  60  66
BRANCH  59  68
ATOM     68  O   UNL     1       2.725   5.581  26.899  0.00  0.00    -0.384 OA
ATOM     69  H   UNL     1       2.471   6.305  26.279  0.00  0.00    +0.210 HD
ENDBRANCH  59  68
BRANCH  62  70
ATOM     70  C   UNL     1       1.882   4.155  22.336  0.00  0.00    +0.190 C 
BRANCH  70  71
ATOM     71  O   UNL     1       3.059   4.123  21.568  0.00  0.00    -0.392 OA
ATOM     72  H   UNL     1       3.593   4.902  21.802  0.00  0.00    +0.210 HD
ENDBRANCH  70  71
ENDBRANCH  62  70
ENDBRANCH  57  58
ENDBRANCH  47  57
ENDBRANCH  43  44
ENDBRANCH   4  43
TORSDOF 28
ENDMDL
MODEL 3
REMARK VINA RESULT:      -5.9      1.780      2.861
REMARK  Name = 
REMARK  29 active torsions:
REMARK  status: ('A' for Active; 'I' for Inactive)
REMARK    1  A    between atoms: C_1  and  C_2
REMARK    2  A    between atoms: C_5  and  O_7
REMARK    3  A    between atoms: O_7  and  C_8
REMARK    4  A    between atoms: C_10  and  C_12
REMARK    5  A    between atoms: C_12  and  O_13
REMARK    6  A    between atoms: C_15  and  O_17
REMARK    7  A    between atoms: C_18  and  O_20
REMARK    8  A    between atoms: C_21  and  O_23
REMARK    9  A    between atoms: C_24  and  O_26
REMARK   10  A    between atoms: C_27  and  O_29
REMARK   11  A    between atoms: C_30  and  N_32
REMARK   12  A    between atoms: N_32  and  C_33
REMARK   13  A    between atoms: C_36  and  C_37
REMARK   14  A    between atoms: C_37  and  O_38
REMARK   15  A    between atoms: C_39  and  O_41
REMARK   16  A    between atoms: O_41  and  C_42
REMARK   17  A    between atoms: C_45  and  C_47
REMARK   18  A    between atoms: C_47  and  O_48
REMARK   19  A    between atoms: C_49  and  O_51
REMARK   20  A    between atoms: O_51  and  C_52
REMARK   21  A    between atoms: C_55  and  C_57
REMARK   22  A    between atoms: C_57  and  O_58
REMARK   23  A    between atoms: C_59  and  O_61
REMARK   24  A    between atoms: C_62  and  O_64
REMARK   25  A    between atoms: C_65  and  O_67
REMARK   26  A    between atoms: C_68  and  O_70
REMARK   27  A    between atoms: C_71  and  O_73
REMARK   28  A    between atoms: C_74  and  O_76
REMARK   29  A    between atoms: C_77  and  O_79
REMARK                            x       y       z     vdW  Elec       q    Type
REMARK                         _______ _______ _______ _____ _____    ______ ____
ROOT
ATOM      1  C   UNL     1       9.756   3.390  23.306  0.00  0.00    +0.109 C 
ATOM      2  C   UNL     1      10.361   4.711  23.914  0.00  0.00    +0.166 C 
ATOM      3  C   UNL     1       9.585   6.029  23.694  0.00  0.00    +0.178 C 
ATOM      4  C   UNL     1       8.057   5.913  23.482  0.00  0.00    +0.180 C 
ATOM      5  C   UNL     1       7.662   4.710  22.684  0.00  0.00    -0.016 C 
ATOM      6  C   UNL     1       8.424   3.599  22.635  0.00  0.00    -0.002 C 
ENDROOT
BRANCH   1   7
ATOM      7  N   UNL     1       9.770   2.271  24.297  0.00  0.00    -0.300 NA
ATOM      8  H   UNL     1      10.734   2.127  24.600  0.00  0.00    +0.123 HD
BRANCH   7  11
ATOM      9  C   UNL     1       6.844   0.567  22.898  0.00  0.00    +0.039 C 
ATOM     10  C   UNL     1       7.653   0.812  24.163  0.00  0.00    +0.138 C 
ATOM     11  C   UNL     1       9.204   0.942  23.863  0.00  0.00    +0.114 C 
ATOM     12  C   UNL     1       9.999  -0.288  24.373  0.00  0.00    +0.167 C 
ATOM     13  C   UNL     1       9.344  -1.059  25.534  0.00  0.00    +0.200 C 
ATOM     14  C   UNL     1       7.856  -1.408  25.228  0.00  0.00    +0.282 C 
ATOM     15  O   UNL     1       7.168  -0.172  25.085  0.00  0.00    -0.344 OA
BRANCH  13  16
ATOM     16  O   UNL     1       9.459  -0.278  26.739  0.00  0.00    -0.384 OA
ATOM     17  H   UNL     1       9.337   0.667  26.509  0.00  0.00    +0.210 HD
ENDBRANCH  13  16
BRANCH  12  18
ATOM     18  O   UNL     1      10.273  -1.141  23.253  0.00  0.00    -0.387 OA
ATOM     19  H   UNL     1      10.075  -2.054  23.520  0.00  0.00    +0.210 HD
ENDBRANCH  12  18
BRANCH  14  20
ATOM     20  O   UNL     1       7.768  -2.391  24.166  0.00  0.00    -0.340 OA
BRANCH  20  21
ATOM     21  C   UNL     1       7.491  -3.793  24.424  0.00  0.00    +0.183 C 
ATOM     22  C   UNL     1       7.896  -4.081  25.911  0.00  0.00    +0.179 C 
ATOM     23  C   UNL     1       6.956  -4.875  26.858  0.00  0.00    +0.201 C 
ATOM     24  C   UNL     1       5.774  -5.558  26.162  0.00  0.00    +0.279 C 
ATOM     25  O   UNL     1       5.926  -5.669  24.754  0.00  0.00    -0.341 OA
ATOM     26  C   UNL     1       6.095  -4.387  24.089  0.00  0.00    +0.178 C 
BRANCH  24  27
ATOM     27  O   UNL     1       5.513  -6.857  26.710  0.00  0.00    -0.365 OA
ATOM     28  H   UNL     1       5.744  -6.774  27.650  0.00  0.00    +0.213 HD
ENDBRANCH  24  27
BRANCH  23  29
ATOM     29  O   UNL     1       7.682  -5.813  27.688  0.00  0.00    -0.384 OA
ATOM     30  H   UNL     1       7.092  -6.072  28.420  0.00  0.00    +0.210 HD
ENDBRANCH  23  29
BRANCH  22  31
ATOM     31  O   UNL     1       9.193  -4.725  25.889  0.00  0.00    -0.386 OA
ATOM     32  H   UNL     1       9.445  -4.908  26.805  0.00  0.00    +0.210 HD
ENDBRANCH  22  31
BRANCH  26  33
ATOM     33  C   UNL     1       4.828  -3.547  24.286  0.00  0.00    +0.190 C 
BRANCH  33  34
ATOM     34  O   UNL     1       5.087  -2.189  23.875  0.00  0.00    -0.392 OA
ATOM     35  H   UNL     1       5.105  -1.635  24.685  0.00  0.00    +0.210 HD
ENDBRANCH  33  34
ENDBRANCH  26  33
ENDBRANCH  20  21
ENDBRANCH  14  20
ENDBRANCH   7  11
ENDBRANCH   1   7
BRANCH   3  36
ATOM     36  O   UNL     1       9.879   6.989  24.746  0.00  0.00    -0.386 OA
ATOM     37  H   UNL     1       9.245   6.796  25.464  0.00  0.00    +0.210 HD
ENDBRANCH   3  36
BRANCH   2  38
ATOM     38  O   UNL     1      11.707   4.871  23.350  0.00  0.00    -0.387 OA
ATOM     39  H   UNL     1      12.235   4.094  23.629  0.00  0.00    +0.210 HD
ENDBRANCH   2  38
BRANCH   5  40
ATOM     40  C   UNL     1       6.415   4.851  21.854  0.00  0.00    +0.189 C 
BRANCH  40  41
ATOM     41  O   UNL     1       5.483   3.845  22.232  0.00  0.00    -0.391 OA
ATOM     42  H   UNL     1       5.082   3.479  21.427  0.00  0.00    +0.210 HD
ENDBRANCH  40  41
ENDBRANCH   5  40
BRANCH   4  43
ATOM     43  O   UNL     1       7.242   6.202  24.622  0.00  0.00    -0.338 OA
BRANCH  43  44
ATOM     44  C   UNL     1       6.739   5.196  25.511  0.00  0.00    +0.282 C 
ATOM     45  C   UNL     1       6.839   5.549  27.016  0.00  0.00    +0.201 C 
ATOM     46  C   UNL     1       6.194   4.460  27.930  0.00  0.00    +0.179 C 
ATOM     47  C   UNL     1       4.816   3.952  27.435  0.00  0.00    +0.183 C 
ATOM     48  C   UNL     1       5.005   3.643  25.918  0.00  0.00    +0.178 C 
ATOM     49  O   UNL     1       5.441   4.782  25.157  0.00  0.00    -0.341 OA
BRANCH  46  50
ATOM     50  O   UNL     1       6.112   4.984  29.268  0.00  0.00    -0.386 OA
ATOM     51  H   UNL     1       7.008   5.212  29.575  0.00  0.00    +0.210 HD
ENDBRANCH  46  50
BRANCH  45  52
ATOM     52  O   UNL     1       8.222   5.736  27.373  0.00  0.00    -0.384 OA
ATOM     53  H   UNL     1       8.735   4.999  26.990  0.00  0.00    +0.210 HD
ENDBRANCH  45  52
BRANCH  48  54
ATOM     54  C   UNL     1       3.753   3.114  25.212  0.00  0.00    +0.190 C 
BRANCH  54  55
ATOM     55  O   UNL     1       4.149   2.211  24.166  0.00  0.00    -0.392 OA
ATOM     56  H   UNL     1       3.959   2.666  23.324  0.00  0.00    +0.210 HD
ENDBRANCH  54  55
ENDBRANCH  48  54
BRANCH  47  57
ATOM     57  O   UNL     1       4.401   2.682  27.989  0.00  0.00    -0.340 OA
BRANCH  57  58
ATOM     58  C   UNL     1       3.092   2.376  28.445  0.00  0.00    +0.282 C 
ATOM     59  C   UNL     1       3.052   2.166  29.987  0.00  0.00    +0.201 C 
ATOM     60  C   UNL     1       3.927   0.954  30.392  0.00  0.00    +0.179 C 
ATOM     61  C   UNL     1       3.469  -0.317  29.659  0.00  0.00    +0.177 C 
ATOM     62  C   UNL     1       3.258  -0.092  28.142  0.00  0.00    +0.178 C 
ATOM     63  O   UNL     1       2.636   1.158  27.799  0.00  0.00    -0.341 OA
BRANCH  61  64
ATOM     64  O   UNL     1       2.264  -0.793  30.296  0.00  0.00    -0.386 OA
ATOM     65  H   UNL     1       1.930  -0.109  30.902  0.00  0.00    +0.210 HD
ENDBRANCH  61  64
BRANCH  60  66
ATOM     66  O   UNL     1       5.308   1.245  30.197  0.00  0.00    -0.386 OA
ATOM     67  H   UNL     1       5.354   2.077  29.670  0.00  0.00    +0.210 HD
ENDBRANCH  60  66
BRANCH  59  68
ATOM     68  O   UNL     1       1.718   2.001  30.480  0.00  0.00    -0.384 OA
ATOM     69  H   UNL     1       1.143   1.631  29.769  0.00  0.00    +0.210 HD
ENDBRANCH  59  68
BRANCH  62  70
ATOM     70  C   UNL     1       4.555  -0.382  27.345  0.00  0.00    +0.190 C 
BRANCH  70  71
ATOM     71  O   UNL     1       4.386  -0.208  25.960  0.00  0.00    -0.392 OA
ATOM     72  H   UNL     1       3.456   0.027  25.797  0.00  0.00    +0.210 HD
ENDBRANCH  70  71
ENDBRANCH  62  70
ENDBRANCH  57  58
ENDBRANCH  47  57
ENDBRANCH  43  44
ENDBRANCH   4  43
TORSDOF 28
ENDMDL
MODEL 4
REMARK VINA RESULT:      -5.9      1.970      4.232
REMARK  Name = 
REMARK  29 active torsions:
REMARK  status: ('A' for Active; 'I' for Inactive)
REMARK    1  A    between atoms: C_1  and  C_2
REMARK    2  A    between atoms: C_5  and  O_7
REMARK    3  A    between atoms: O_7  and  C_8
REMARK    4  A    between atoms: C_10  and  C_12
REMARK    5  A    between atoms: C_12  and  O_13
REMARK    6  A    between atoms: C_15  and  O_17
REMARK    7  A    between atoms: C_18  and  O_20
REMARK    8  A    between atoms: C_21  and  O_23
REMARK    9  A    between atoms: C_24  and  O_26
REMARK   10  A    between atoms: C_27  and  O_29
REMARK   11  A    between atoms: C_30  and  N_32
REMARK   12  A    between atoms: N_32  and  C_33
REMARK   13  A    between atoms: C_36  and  C_37
REMARK   14  A    between atoms: C_37  and  O_38
REMARK   15  A    between atoms: C_39  and  O_41
REMARK   16  A    between atoms: O_41  and  C_42
REMARK   17  A    between atoms: C_45  and  C_47
REMARK   18  A    between atoms: C_47  and  O_48
REMARK   19  A    between atoms: C_49  and  O_51
REMARK   20  A    between atoms: O_51  and  C_52
REMARK   21  A    between atoms: C_55  and  C_57
REMARK   22  A    between atoms: C_57  and  O_58
REMARK   23  A    between atoms: C_59  and  O_61
REMARK   24  A    between atoms: C_62  and  O_64
REMARK   25  A    between atoms: C_65  and  O_67
REMARK   26  A    between atoms: C_68  and  O_70
REMARK   27  A    between atoms: C_71  and  O_73
REMARK   28  A    between atoms: C_74  and  O_76
REMARK   29  A    between atoms: C_77  and  O_79
REMARK                            x       y       z     vdW  Elec       q    Type
REMARK                         _______ _______ _______ _____ _____    ______ ____
ROOT
ATOM      1  C   UNL     1       7.147   4.492  25.718  0.00  0.00    +0.109 C 
ATOM      2  C   UNL     1       6.840   3.718  27.055  0.00  0.00    +0.166 C 
ATOM      3  C   UNL     1       5.361   3.579  27.485  0.00  0.00    +0.178 C 
ATOM      4  C   UNL     1       4.300   3.617  26.361  0.00  0.00    +0.180 C 
ATOM      5  C   UNL     1       4.637   4.579  25.265  0.00  0.00    -0.016 C 
ATOM      6  C   UNL     1       5.907   4.937  24.989  0.00  0.00    -0.002 C 
ENDROOT
BRANCH   1   7
ATOM      7  N   UNL     1       8.122   3.748  24.863  0.00  0.00    -0.300 NA
ATOM      8  H   UNL     1       8.237   4.264  23.991  0.00  0.00    +0.123 HD
BRANCH   7  11
ATOM      9  C   UNL     1       9.064   0.257  25.454  0.00  0.00    +0.039 C 
ATOM     10  C   UNL     1       9.110   1.405  24.456  0.00  0.00    +0.138 C 
ATOM     11  C   UNL     1       7.810   2.311  24.530  0.00  0.00    +0.114 C 
ATOM     12  C   UNL     1       6.904   2.126  23.286  0.00  0.00    +0.167 C 
ATOM     13  C   UNL     1       7.623   1.645  22.012  0.00  0.00    +0.200 C 
ATOM     14  C   UNL     1       8.505   0.389  22.287  0.00  0.00    +0.282 C 
ATOM     15  O   UNL     1       9.498   0.785  23.225  0.00  0.00    -0.344 OA
BRANCH  13  16
ATOM     16  O   UNL     1       8.412   2.728  21.483  0.00  0.00    -0.384 OA
ATOM     17  H   UNL     1       8.900   3.147  22.221  0.00  0.00    +0.210 HD
ENDBRANCH  13  16
BRANCH  12  18
ATOM     18  O   UNL     1       5.819   1.259  23.646  0.00  0.00    -0.387 OA
ATOM     19  H   UNL     1       6.197   0.480  24.087  0.00  0.00    +0.210 HD
ENDBRANCH  12  18
BRANCH  14  20
ATOM     20  O   UNL     1       7.676  -0.764  22.583  0.00  0.00    -0.340 OA
BRANCH  20  21
ATOM     21  C   UNL     1       8.121  -2.124  22.342  0.00  0.00    +0.183 C 
ATOM     22  C   UNL     1       9.040  -2.533  23.546  0.00  0.00    +0.179 C 
ATOM     23  C   UNL     1       8.870  -3.903  24.254  0.00  0.00    +0.201 C 
ATOM     24  C   UNL     1       7.947  -4.890  23.529  0.00  0.00    +0.279 C 
ATOM     25  O   UNL     1       7.699  -4.547  22.174  0.00  0.00    -0.341 OA
ATOM     26  C   UNL     1       7.089  -3.237  22.011  0.00  0.00    +0.178 C 
BRANCH  24  27
ATOM     27  O   UNL     1       8.452  -6.231  23.591  0.00  0.00    -0.365 OA
ATOM     28  H   UNL     1       9.031  -6.308  22.815  0.00  0.00    +0.213 HD
ENDBRANCH  24  27
BRANCH  23  29
ATOM     29  O   UNL     1      10.143  -4.518  24.569  0.00  0.00    -0.384 OA
ATOM     30  H   UNL     1      10.326  -4.343  25.511  0.00  0.00    +0.210 HD
ENDBRANCH  23  29
BRANCH  22  31
ATOM     31  O   UNL     1      10.413  -2.400  23.105  0.00  0.00    -0.386 OA
ATOM     32  H   UNL     1      10.478  -1.583  22.592  0.00  0.00    +0.210 HD
ENDBRANCH  22  31
BRANCH  26  33
ATOM     33  C   UNL     1       5.710  -3.238  22.680  0.00  0.00    +0.190 C 
BRANCH  33  34
ATOM     34  O   UNL     1       4.932  -4.340  22.168  0.00  0.00    -0.392 OA
ATOM     35  H   UNL     1       4.410  -4.704  22.917  0.00  0.00    +0.210 HD
ENDBRANCH  33  34
ENDBRANCH  26  33
ENDBRANCH  20  21
ENDBRANCH  14  20
ENDBRANCH   7  11
ENDBRANCH   1   7
BRANCH   3  36
ATOM     36  O   UNL     1       5.172   2.405  28.322  0.00  0.00    -0.386 OA
ATOM     37  H   UNL     1       4.943   2.748  29.209  0.00  0.00    +0.210 HD
ENDBRANCH   3  36
BRANCH   2  38
ATOM     38  O   UNL     1       7.568   4.405  28.130  0.00  0.00    -0.387 OA
ATOM     39  H   UNL     1       6.958   4.480  28.894  0.00  0.00    +0.210 HD
ENDBRANCH   2  38
BRANCH   5  40
ATOM     40  C   UNL     1       3.467   5.202  24.553  0.00  0.00    +0.189 C 
BRANCH  40  41
ATOM     41  O   UNL     1       2.717   4.185  23.901  0.00  0.00    -0.391 OA
ATOM     42  H   UNL     1       3.336   3.537  23.529  0.00  0.00    +0.210 HD
ENDBRANCH  40  41
ENDBRANCH   5  40
BRANCH   4  43
ATOM     43  O   UNL     1       3.783   2.349  25.943  0.00  0.00    -0.338 OA
BRANCH  43  44
ATOM     44  C   UNL     1       4.000   1.130  26.664  0.00  0.00    +0.282 C 
ATOM     45  C   UNL     1       2.730   0.521  27.308  0.00  0.00    +0.201 C 
ATOM     46  C   UNL     1       3.008  -0.850  28.001  0.00  0.00    +0.179 C 
ATOM     47  C   UNL     1       3.882  -1.818  27.162  0.00  0.00    +0.183 C 
ATOM     48  C   UNL     1       5.092  -0.965  26.669  0.00  0.00    +0.178 C 
ATOM     49  O   UNL     1       4.701   0.182  25.896  0.00  0.00    -0.341 OA
BRANCH  46  50
ATOM     50  O   UNL     1       1.745  -1.448  28.344  0.00  0.00    -0.386 OA
ATOM     51  H   UNL     1       1.263  -1.664  27.525  0.00  0.00    +0.210 HD
ENDBRANCH  46  50
BRANCH  45  52
ATOM     52  O   UNL     1       2.183   1.452  28.263  0.00  0.00    -0.384 OA
ATOM     53  H   UNL     1       1.215   1.334  28.279  0.00  0.00    +0.210 HD
ENDBRANCH  45  52
BRANCH  48  54
ATOM     54  C   UNL     1       6.106  -1.730  25.812  0.00  0.00    +0.190 C 
BRANCH  54  55
ATOM     55  O   UNL     1       7.101  -2.314  26.670  0.00  0.00    -0.392 OA
ATOM     56  H   UNL     1       7.929  -1.829  26.498  0.00  0.00    +0.210 HD
ENDBRANCH  54  55
ENDBRANCH  48  54
BRANCH  47  57
ATOM     57  O   UNL     1       4.505  -2.883  27.916  0.00  0.00    -0.340 OA
BRANCH  57  58
ATOM     58  C   UNL     1       3.814  -3.839  28.707  0.00  0.00    +0.282 C 
ATOM     59  C   UNL     1       4.792  -4.685  29.575  0.00  0.00    +0.201 C 
ATOM     60  C   UNL     1       5.747  -5.504  28.672  0.00  0.00    +0.179 C 
ATOM     61  C   UNL     1       4.952  -6.406  27.715  0.00  0.00    +0.177 C 
ATOM     62  C   UNL     1       3.800  -5.657  27.003  0.00  0.00    +0.178 C 
ATOM     63  O   UNL     1       3.076  -4.734  27.834  0.00  0.00    -0.341 OA
BRANCH  61  64
ATOM     64  O   UNL     1       4.462  -7.537  28.467  0.00  0.00    -0.386 OA
ATOM     65  H   UNL     1       5.200  -8.146  28.646  0.00  0.00    +0.210 HD
ENDBRANCH  61  64
BRANCH  60  66
ATOM     66  O   UNL     1       6.663  -4.645  27.999  0.00  0.00    -0.386 OA
ATOM     67  H   UNL     1       6.956  -5.120  27.185  0.00  0.00    +0.210 HD
ENDBRANCH  60  66
BRANCH  59  68
ATOM     68  O   UNL     1       4.104  -5.551  30.484  0.00  0.00    -0.384 OA
ATOM     69  H   UNL     1       4.395  -5.363  31.408  0.00  0.00    +0.210 HD
ENDBRANCH  59  68
BRANCH  62  70
ATOM     70  C   UNL     1       4.273  -5.046  25.659  0.00  0.00    +0.190 C 
BRANCH  70  71
ATOM     71  O   UNL     1       4.821  -6.008  24.794  0.00  0.00    -0.392 OA
ATOM     72  H   UNL     1       4.648  -5.725  23.879  0.00  0.00    +0.210 HD
ENDBRANCH  70  71
ENDBRANCH  62  70
ENDBRANCH  57  58
ENDBRANCH  47  57
ENDBRANCH  43  44
ENDBRANCH   4  43
TORSDOF 28
ENDMDL
MODEL 5
REMARK VINA RESULT:      -5.8      2.443      7.547
REMARK  Name = 
REMARK  29 active torsions:
REMARK  status: ('A' for Active; 'I' for Inactive)
REMARK    1  A    between atoms: C_1  and  C_2
REMARK    2  A    between atoms: C_5  and  O_7
REMARK    3  A    between atoms: O_7  and  C_8
REMARK    4  A    between atoms: C_10  and  C_12
REMARK    5  A    between atoms: C_12  and  O_13
REMARK    6  A    between atoms: C_15  and  O_17
REMARK    7  A    between atoms: C_18  and  O_20
REMARK    8  A    between atoms: C_21  and  O_23
REMARK    9  A    between atoms: C_24  and  O_26
REMARK   10  A    between atoms: C_27  and  O_29
REMARK   11  A    between atoms: C_30  and  N_32
REMARK   12  A    between atoms: N_32  and  C_33
REMARK   13  A    between atoms: C_36  and  C_37
REMARK   14  A    between atoms: C_37  and  O_38
REMARK   15  A    between atoms: C_39  and  O_41
REMARK   16  A    between atoms: O_41  and  C_42
REMARK   17  A    between atoms: C_45  and  C_47
REMARK   18  A    between atoms: C_47  and  O_48
REMARK   19  A    between atoms: C_49  and  O_51
REMARK   20  A    between atoms: O_51  and  C_52
REMARK   21  A    between atoms: C_55  and  C_57
REMARK   22  A    between atoms: C_57  and  O_58
REMARK   23  A    between atoms: C_59  and  O_61
REMARK   24  A    between atoms: C_62  and  O_64
REMARK   25  A    between atoms: C_65  and  O_67
REMARK   26  A    between atoms: C_68  and  O_70
REMARK   27  A    between atoms: C_71  and  O_73
REMARK   28  A    between atoms: C_74  and  O_76
REMARK   29  A    between atoms: C_77  and  O_79
REMARK                            x       y       z     vdW  Elec       q    Type
REMARK                         _______ _______ _______ _____ _____    ______ ____
ROOT
ATOM      1  C   UNL     1       9.565   1.467  22.194  0.00  0.00    +0.109 C 
ATOM      2  C   UNL     1       8.691   0.251  21.706  0.00  0.00    +0.166 C 
ATOM      3  C   UNL     1       8.485  -0.929  22.684  0.00  0.00    +0.178 C 
ATOM      4  C   UNL     1       8.575  -0.607  24.194  0.00  0.00    +0.180 C 
ATOM      5  C   UNL     1       9.620   0.415  24.518  0.00  0.00    -0.016 C 
ATOM      6  C   UNL     1      10.029   1.333  23.620  0.00  0.00    -0.002 C 
ENDROOT
BRANCH   1   7
ATOM      7  N   UNL     1       8.908   2.774  21.887  0.00  0.00    -0.300 NA
ATOM      8  H   UNL     1       9.638   3.456  21.679  0.00  0.00    +0.123 HD
BRANCH   7  11
ATOM      9  C   UNL     1       5.742   2.355  23.684  0.00  0.00    +0.039 C 
ATOM     10  C   UNL     1       6.459   3.141  22.595  0.00  0.00    +0.138 C 
ATOM     11  C   UNL     1       7.993   3.363  22.932  0.00  0.00    +0.114 C 
ATOM     12  C   UNL     1       8.300   4.839  23.292  0.00  0.00    +0.167 C 
ATOM     13  C   UNL     1       7.323   5.876  22.708  0.00  0.00    +0.200 C 
ATOM     14  C   UNL     1       5.839   5.498  22.996  0.00  0.00    +0.282 C 
ATOM     15  O   UNL     1       5.598   4.257  22.344  0.00  0.00    -0.344 OA
BRANCH  13  16
ATOM     16  O   UNL     1       7.563   5.998  21.292  0.00  0.00    -0.384 OA
ATOM     17  H   UNL     1       7.515   5.106  20.891  0.00  0.00    +0.210 HD
ENDBRANCH  13  16
BRANCH  12  18
ATOM     18  O   UNL     1       8.395   4.941  24.720  0.00  0.00    -0.387 OA
ATOM     19  H   UNL     1       7.555   4.631  25.097  0.00  0.00    +0.210 HD
ENDBRANCH  12  18
BRANCH  14  20
ATOM     20  O   UNL     1       5.546   5.618  24.412  0.00  0.00    -0.340 OA
BRANCH  20  21
ATOM     21  C   UNL     1       4.229   5.977  24.906  0.00  0.00    +0.183 C 
ATOM     22  C   UNL     1       3.330   4.695  24.810  0.00  0.00    +0.179 C 
ATOM     23  C   UNL     1       2.428   4.258  25.994  0.00  0.00    +0.201 C 
ATOM     24  C   UNL     1       2.291   5.297  27.113  0.00  0.00    +0.279 C 
ATOM     25  O   UNL     1       2.694   6.604  26.730  0.00  0.00    -0.341 OA
ATOM     26  C   UNL     1       4.076   6.676  26.285  0.00  0.00    +0.178 C 
BRANCH  24  27
ATOM     27  O   UNL     1       0.954   5.349  27.628  0.00  0.00    -0.365 OA
ATOM     28  H   UNL     1       1.066   5.377  28.593  0.00  0.00    +0.213 HD
ENDBRANCH  24  27
BRANCH  23  29
ATOM     29  O   UNL     1       1.128   3.799  25.551  0.00  0.00    -0.384 OA
ATOM     30  H   UNL     1       0.619   3.555  26.346  0.00  0.00    +0.210 HD
ENDBRANCH  23  29
BRANCH  22  31
ATOM     31  O   UNL     1       2.514   4.829  23.621  0.00  0.00    -0.386 OA
ATOM     32  H   UNL     1       2.166   3.952  23.405  0.00  0.00    +0.210 HD
ENDBRANCH  22  31
BRANCH  26  33
ATOM     33  C   UNL     1       4.999   6.301  27.451  0.00  0.00    +0.190 C 
BRANCH  33  34
ATOM     34  O   UNL     1       6.323   6.032  26.943  0.00  0.00    -0.392 OA
ATOM     35  H   UNL     1       6.325   5.113  26.599  0.00  0.00    +0.210 HD
ENDBRANCH  33  34
ENDBRANCH  26  33
ENDBRANCH  20  21
ENDBRANCH  14  20
ENDBRANCH   7  11
ENDBRANCH   1   7
BRANCH   3  36
ATOM     36  O   UNL     1       7.251  -1.639  22.390  0.00  0.00    -0.386 OA
ATOM     37  H   UNL     1       7.404  -2.562  22.674  0.00  0.00    +0.210 HD
ENDBRANCH   3  36
BRANCH   2  38
ATOM     38  O   UNL     1       9.318  -0.270  20.485  0.00  0.00    -0.387 OA
ATOM     39  H   UNL     1       9.370   0.470  19.844  0.00  0.00    +0.210 HD
ENDBRANCH   2  38
BRANCH   5  40
ATOM     40  C   UNL     1      10.263   0.293  25.873  0.00  0.00    +0.189 C 
BRANCH  40  41
ATOM     41  O   UNL     1       9.411  -0.456  26.732  0.00  0.00    -0.391 OA
ATOM     42  H   UNL     1       8.495  -0.344  26.430  0.00  0.00    +0.210 HD
ENDBRANCH  40  41
ENDBRANCH   5  40
BRANCH   4  43
ATOM     43  O   UNL     1       7.328  -0.465  24.881  0.00  0.00    -0.338 OA
BRANCH  43  44
ATOM     44  C   UNL     1       6.716  -1.517  25.637  0.00  0.00    +0.282 C 
ATOM     45  C   UNL     1       5.193  -1.682  25.408  0.00  0.00    +0.201 C 
ATOM     46  C   UNL     1       4.599  -2.899  26.185  0.00  0.00    +0.179 C 
ATOM     47  C   UNL     1       5.451  -4.190  26.087  0.00  0.00    +0.183 C 
ATOM     48  C   UNL     1       6.916  -3.748  26.390  0.00  0.00    +0.178 C 
ATOM     49  O   UNL     1       7.401  -2.738  25.490  0.00  0.00    -0.341 OA
BRANCH  46  50
ATOM     50  O   UNL     1       3.255  -3.120  25.721  0.00  0.00    -0.386 OA
ATOM     51  H   UNL     1       2.785  -3.681  26.364  0.00  0.00    +0.210 HD
ENDBRANCH  46  50
BRANCH  45  52
ATOM     52  O   UNL     1       4.516  -0.471  25.798  0.00  0.00    -0.384 OA
ATOM     53  H   UNL     1       4.797  -0.248  26.705  0.00  0.00    +0.210 HD
ENDBRANCH  45  52
BRANCH  48  54
ATOM     54  C   UNL     1       7.947  -4.881  26.353  0.00  0.00    +0.190 C 
BRANCH  54  55
ATOM     55  O   UNL     1       7.841  -5.652  27.562  0.00  0.00    -0.392 OA
ATOM     56  H   UNL     1       8.655  -6.187  27.617  0.00  0.00    +0.210 HD
ENDBRANCH  54  55
ENDBRANCH  48  54
BRANCH  47  57
ATOM     57  O   UNL     1       5.179  -5.178  27.108  0.00  0.00    -0.340 OA
BRANCH  57  58
ATOM     58  C   UNL     1       4.811  -6.528  26.864  0.00  0.00    +0.282 C 
ATOM     59  C   UNL     1       3.283  -6.670  26.598  0.00  0.00    +0.201 C 
ATOM     60  C   UNL     1       2.473  -6.236  27.846  0.00  0.00    +0.179 C 
ATOM     61  C   UNL     1       2.889  -7.057  29.076  0.00  0.00    +0.177 C 
ATOM     62  C   UNL     1       4.425  -7.148  29.247  0.00  0.00    +0.178 C 
ATOM     63  O   UNL     1       5.156  -7.331  28.023  0.00  0.00    -0.341 OA
BRANCH  61  64
ATOM     64  O   UNL     1       2.291  -8.366  28.967  0.00  0.00    -0.386 OA
ATOM     65  H   UNL     1       2.814  -9.002  29.486  0.00  0.00    +0.210 HD
ENDBRANCH  61  64
BRANCH  60  66
ATOM     66  O   UNL     1       2.579  -4.830  28.049  0.00  0.00    -0.386 OA
ATOM     67  H   UNL     1       2.485  -4.674  29.019  0.00  0.00    +0.210 HD
ENDBRANCH  60  66
BRANCH  59  68
ATOM     68  O   UNL     1       2.919  -7.999  26.208  0.00  0.00    -0.384 OA
ATOM     69  H   UNL     1       2.883  -8.581  27.004  0.00  0.00    +0.210 HD
ENDBRANCH  59  68
BRANCH  62  70
ATOM     70  C   UNL     1       4.962  -5.991  30.127  0.00  0.00    +0.190 C 
BRANCH  70  71
ATOM     71  O   UNL     1       6.308  -5.689  29.856  0.00  0.00    -0.392 OA
ATOM     72  H   UNL     1       6.826  -6.506  29.953  0.00  0.00    +0.210 HD
ENDBRANCH  70  71
ENDBRANCH  62  70
ENDBRANCH  57  58
ENDBRANCH  47  57
ENDBRANCH  43  44
ENDBRANCH   4  43
TORSDOF 28
ENDMDL
MODEL 6
REMARK VINA RESULT:      -5.6      1.569      2.066
REMARK  Name = 
REMARK  29 active torsions:
REMARK  status: ('A' for Active; 'I' for Inactive)
REMARK    1  A    between atoms: C_1  and  C_2
REMARK    2  A    between atoms: C_5  and  O_7
REMARK    3  A    between atoms: O_7  and  C_8
REMARK    4  A    between atoms: C_10  and  C_12
REMARK    5  A    between atoms: C_12  and  O_13
REMARK    6  A    between atoms: C_15  and  O_17
REMARK    7  A    between atoms: C_18  and  O_20
REMARK    8  A    between atoms: C_21  and  O_23
REMARK    9  A    between atoms: C_24  and  O_26
REMARK   10  A    between atoms: C_27  and  O_29
REMARK   11  A    between atoms: C_30  and  N_32
REMARK   12  A    between atoms: N_32  and  C_33
REMARK   13  A    between atoms: C_36  and  C_37
REMARK   14  A    between atoms: C_37  and  O_38
REMARK   15  A    between atoms: C_39  and  O_41
REMARK   16  A    between atoms: O_41  and  C_42
REMARK   17  A    between atoms: C_45  and  C_47
REMARK   18  A    between atoms: C_47  and  O_48
REMARK   19  A    between atoms: C_49  and  O_51
REMARK   20  A    between atoms: O_51  and  C_52
REMARK   21  A    between atoms: C_55  and  C_57
REMARK   22  A    between atoms: C_57  and  O_58
REMARK   23  A    between atoms: C_59  and  O_61
REMARK   24  A    between atoms: C_62  and  O_64
REMARK   25  A    between atoms: C_65  and  O_67
REMARK   26  A    between atoms: C_68  and  O_70
REMARK   27  A    between atoms: C_71  and  O_73
REMARK   28  A    between atoms: C_74  and  O_76
REMARK   29  A    between atoms: C_77  and  O_79
REMARK                            x       y       z     vdW  Elec       q    Type
REMARK                         _______ _______ _______ _____ _____    ______ ____
ROOT
ATOM      1  C   UNL     1       8.264   3.571  24.346  0.00  0.00    +0.109 C 
ATOM      2  C   UNL     1       8.318   4.789  25.342  0.00  0.00    +0.166 C 
ATOM      3  C   UNL     1       7.017   5.593  25.571  0.00  0.00    +0.178 C 
ATOM      4  C   UNL     1       5.684   4.841  25.353  0.00  0.00    +0.180 C 
ATOM      5  C   UNL     1       5.733   3.873  24.212  0.00  0.00    -0.016 C 
ATOM      6  C   UNL     1       6.886   3.311  23.796  0.00  0.00    -0.002 C 
ENDROOT
BRANCH   1   7
ATOM      7  N   UNL     1       8.928   2.361  24.919  0.00  0.00    -0.300 NA
ATOM      8  H   UNL     1       9.935   2.455  24.780  0.00  0.00    +0.123 HD
BRANCH   7  11
ATOM      9  C   UNL     1       7.021  -0.677  25.667  0.00  0.00    +0.039 C 
ATOM     10  C   UNL     1       8.417  -0.085  25.543  0.00  0.00    +0.138 C 
ATOM     11  C   UNL     1       8.500   1.011  24.399  0.00  0.00    +0.114 C 
ATOM     12  C   UNL     1       9.309   0.512  23.175  0.00  0.00    +0.167 C 
ATOM     13  C   UNL     1      10.341  -0.591  23.473  0.00  0.00    +0.200 C 
ATOM     14  C   UNL     1       9.712  -1.767  24.279  0.00  0.00    +0.282 C 
ATOM     15  O   UNL     1       9.282  -1.227  25.522  0.00  0.00    -0.344 OA
BRANCH  13  16
ATOM     16  O   UNL     1      11.454  -0.012  24.181  0.00  0.00    -0.384 OA
ATOM     17  H   UNL     1      11.639   0.871  23.800  0.00  0.00    +0.210 HD
ENDBRANCH  13  16
BRANCH  12  18
ATOM     18  O   UNL     1       8.381   0.114  22.156  0.00  0.00    -0.387 OA
ATOM     19  H   UNL     1       8.426  -0.854  22.076  0.00  0.00    +0.210 HD
ENDBRANCH  12  18
BRANCH  14  20
ATOM     20  O   UNL     1       8.762  -2.498  23.461  0.00  0.00    -0.340 OA
BRANCH  20  21
ATOM     21  C   UNL     1       8.285  -3.822  23.818  0.00  0.00    +0.183 C 
ATOM     22  C   UNL     1       8.561  -4.019  25.350  0.00  0.00    +0.179 C 
ATOM     23  C   UNL     1       7.471  -4.593  26.293  0.00  0.00    +0.201 C 
ATOM     24  C   UNL     1       6.250  -5.182  25.577  0.00  0.00    +0.279 C 
ATOM     25  O   UNL     1       6.467  -5.442  24.199  0.00  0.00    -0.341 OA
ATOM     26  C   UNL     1       6.844  -4.261  23.439  0.00  0.00    +0.178 C 
BRANCH  24  27
ATOM     27  O   UNL     1       5.787  -6.379  26.216  0.00  0.00    -0.365 OA
ATOM     28  H   UNL     1       4.952  -6.122  26.639  0.00  0.00    +0.213 HD
ENDBRANCH  24  27
BRANCH  23  29
ATOM     29  O   UNL     1       8.016  -5.535  27.249  0.00  0.00    -0.384 OA
ATOM     30  H   UNL     1       7.677  -6.418  27.013  0.00  0.00    +0.210 HD
ENDBRANCH  23  29
BRANCH  22  31
ATOM     31  O   UNL     1       9.760  -4.822  25.473  0.00  0.00    -0.386 OA
ATOM     32  H   UNL     1       9.671  -5.360  26.272  0.00  0.00    +0.210 HD
ENDBRANCH  22  31
BRANCH  26  33
ATOM     33  C   UNL     1       5.691  -3.251  23.476  0.00  0.00    +0.190 C 
BRANCH  33  34
ATOM     34  O   UNL     1       4.564  -3.787  22.752  0.00  0.00    -0.392 OA
ATOM     35  H   UNL     1       4.914  -4.427  22.094  0.00  0.00    +0.210 HD
ENDBRANCH  33  34
ENDBRANCH  26  33
ENDBRANCH  20  21
ENDBRANCH  14  20
ENDBRANCH   7  11
ENDBRANCH   1   7
BRANCH   3  36
ATOM     36  O   UNL     1       7.028   6.239  26.874  0.00  0.00    -0.386 OA
ATOM     37  H   UNL     1       6.771   7.168  26.709  0.00  0.00    +0.210 HD
ENDBRANCH   3  36
BRANCH   2  38
ATOM     38  O   UNL     1       9.345   5.711  24.842  0.00  0.00    -0.387 OA
ATOM     39  H   UNL     1       8.934   6.254  24.137  0.00  0.00    +0.210 HD
ENDBRANCH   2  38
BRANCH   5  40
ATOM     40  C   UNL     1       4.434   3.640  23.490  0.00  0.00    +0.189 C 
BRANCH  40  41
ATOM     41  O   UNL     1       4.157   2.246  23.457  0.00  0.00    -0.391 OA
ATOM     42  H   UNL     1       3.406   2.067  24.046  0.00  0.00    +0.210 HD
ENDBRANCH  40  41
ENDBRANCH   5  40
BRANCH   4  43
ATOM     43  O   UNL     1       5.022   4.381  26.536  0.00  0.00    -0.338 OA
BRANCH  43  44
ATOM     44  C   UNL     1       4.761   2.998  26.810  0.00  0.00    +0.282 C 
ATOM     45  C   UNL     1       5.629   2.383  27.934  0.00  0.00    +0.201 C 
ATOM     46  C   UNL     1       5.239   0.905  28.251  0.00  0.00    +0.179 C 
ATOM     47  C   UNL     1       3.711   0.661  28.354  0.00  0.00    +0.183 C 
ATOM     48  C   UNL     1       3.094   1.348  27.097  0.00  0.00    +0.178 C 
ATOM     49  O   UNL     1       3.390   2.753  27.014  0.00  0.00    -0.341 OA
BRANCH  46  50
ATOM     50  O   UNL     1       5.916   0.507  29.457  0.00  0.00    -0.386 OA
ATOM     51  H   UNL     1       5.265   0.134  30.079  0.00  0.00    +0.210 HD
ENDBRANCH  46  50
BRANCH  45  52
ATOM     52  O   UNL     1       7.019   2.455  27.560  0.00  0.00    -0.384 OA
ATOM     53  H   UNL     1       7.357   1.544  27.477  0.00  0.00    +0.210 HD
ENDBRANCH  45  52
BRANCH  48  54
ATOM     54  C   UNL     1       1.571   1.228  26.985  0.00  0.00    +0.190 C 
BRANCH  54  55
ATOM     55  O   UNL     1       1.043   0.759  28.238  0.00  0.00    -0.392 OA
ATOM     56  H   UNL     1       1.072   1.520  28.849  0.00  0.00    +0.210 HD
ENDBRANCH  54  55
ENDBRANCH  48  54
BRANCH  47  57
ATOM     57  O   UNL     1       3.305  -0.720  28.217  0.00  0.00    -0.340 OA
BRANCH  57  58
ATOM     58  C   UNL     1       3.800  -1.626  27.242  0.00  0.00    +0.282 C 
ATOM     59  C   UNL     1       2.647  -2.304  26.445  0.00  0.00    +0.201 C 
ATOM     60  C   UNL     1       1.761  -3.153  27.391  0.00  0.00    +0.179 C 
ATOM     61  C   UNL     1       2.605  -4.206  28.127  0.00  0.00    +0.177 C 
ATOM     62  C   UNL     1       3.901  -3.618  28.735  0.00  0.00    +0.178 C 
ATOM     63  O   UNL     1       4.576  -2.659  27.904  0.00  0.00    -0.341 OA
BRANCH  61  64
ATOM     64  O   UNL     1       2.893  -5.277  27.203  0.00  0.00    -0.386 OA
ATOM     65  H   UNL     1       3.824  -5.544  27.302  0.00  0.00    +0.210 HD
ENDBRANCH  61  64
BRANCH  60  66
ATOM     66  O   UNL     1       1.020  -2.314  28.273  0.00  0.00    -0.386 OA
ATOM     67  H   UNL     1       0.663  -1.572  27.729  0.00  0.00    +0.210 HD
ENDBRANCH  60  66
BRANCH  59  68
ATOM     68  O   UNL     1       3.130  -3.108  25.364  0.00  0.00    -0.384 OA
ATOM     69  H   UNL     1       3.190  -4.051  25.651  0.00  0.00    +0.210 HD
ENDBRANCH  59  68
BRANCH  62  70
ATOM     70  C   UNL     1       3.669  -3.130  30.188  0.00  0.00    +0.190 C 
BRANCH  70  71
ATOM     71  O   UNL     1       4.389  -1.959  30.484  0.00  0.00    -0.392 OA
ATOM     72  H   UNL     1       4.973  -2.148  31.238  0.00  0.00    +0.210 HD
ENDBRANCH  70  71
ENDBRANCH  62  70
ENDBRANCH  57  58
ENDBRANCH  47  57
ENDBRANCH  43  44
ENDBRANCH   4  43
TORSDOF 28
ENDMDL
MODEL 7
REMARK VINA RESULT:      -5.6      2.262      4.128
REMARK  Name = 
REMARK  29 active torsions:
REMARK  status: ('A' for Active; 'I' for Inactive)
REMARK    1  A    between atoms: C_1  and  C_2
REMARK    2  A    between atoms: C_5  and  O_7
REMARK    3  A    between atoms: O_7  and  C_8
REMARK    4  A    between atoms: C_10  and  C_12
REMARK    5  A    between atoms: C_12  and  O_13
REMARK    6  A    between atoms: C_15  and  O_17
REMARK    7  A    between atoms: C_18  and  O_20
REMARK    8  A    between atoms: C_21  and  O_23
REMARK    9  A    between atoms: C_24  and  O_26
REMARK   10  A    between atoms: C_27  and  O_29
REMARK   11  A    between atoms: C_30  and  N_32
REMARK   12  A    between atoms: N_32  and  C_33
REMARK   13  A    between atoms: C_36  and  C_37
REMARK   14  A    between atoms: C_37  and  O_38
REMARK   15  A    between atoms: C_39  and  O_41
REMARK   16  A    between atoms: O_41  and  C_42
REMARK   17  A    between atoms: C_45  and  C_47
REMARK   18  A    between atoms: C_47  and  O_48
REMARK   19  A    between atoms: C_49  and  O_51
REMARK   20  A    between atoms: O_51  and  C_52
REMARK   21  A    between atoms: C_55  and  C_57
REMARK   22  A    between atoms: C_57  and  O_58
REMARK   23  A    between atoms: C_59  and  O_61
REMARK   24  A    between atoms: C_62  and  O_64
REMARK   25  A    between atoms: C_65  and  O_67
REMARK   26  A    between atoms: C_68  and  O_70
REMARK   27  A    between atoms: C_71  and  O_73
REMARK   28  A    between atoms: C_74  and  O_76
REMARK   29  A    between atoms: C_77  and  O_79
REMARK                            x       y       z     vdW  Elec       q    Type
REMARK                         _______ _______ _______ _____ _____    ______ ____
ROOT
ATOM      1  C   UNL     1       7.799  -0.923  23.585  0.00  0.00    +0.109 C 
ATOM      2  C   UNL     1       9.284  -0.797  24.094  0.00  0.00    +0.166 C 
ATOM      3  C   UNL     1      10.115   0.412  23.606  0.00  0.00    +0.178 C 
ATOM      4  C   UNL     1       9.329   1.685  23.212  0.00  0.00    +0.180 C 
ATOM      5  C   UNL     1       8.031   1.389  22.529  0.00  0.00    -0.016 C 
ATOM      6  C   UNL     1       7.365   0.233  22.724  0.00  0.00    -0.002 C 
ENDROOT
BRANCH   1   7
ATOM      7  N   UNL     1       6.858  -1.236  24.704  0.00  0.00    -0.300 NA
ATOM      8  H   UNL     1       7.408  -1.365  25.554  0.00  0.00    +0.123 HD
BRANCH   7  11
ATOM      9  C   UNL     1       4.390  -3.373  26.366  0.00  0.00    +0.039 C 
ATOM     10  C   UNL     1       5.825  -3.288  25.868  0.00  0.00    +0.138 C 
ATOM     11  C   UNL     1       5.945  -2.426  24.542  0.00  0.00    +0.114 C 
ATOM     12  C   UNL     1       6.255  -3.305  23.304  0.00  0.00    +0.167 C 
ATOM     13  C   UNL     1       6.962  -4.640  23.605  0.00  0.00    +0.200 C 
ATOM     14  C   UNL     1       6.232  -5.440  24.725  0.00  0.00    +0.282 C 
ATOM     15  O   UNL     1       6.289  -4.642  25.902  0.00  0.00    -0.344 OA
BRANCH  13  16
ATOM     16  O   UNL     1       8.332  -4.373  23.965  0.00  0.00    -0.384 OA
ATOM     17  H   UNL     1       8.376  -4.224  24.932  0.00  0.00    +0.210 HD
ENDBRANCH  13  16
BRANCH  12  18
ATOM     18  O   UNL     1       5.035  -3.500  22.576  0.00  0.00    -0.387 OA
ATOM     19  H   UNL     1       4.644  -2.625  22.412  0.00  0.00    +0.210 HD
ENDBRANCH  12  18
BRANCH  14  20
ATOM     20  O   UNL     1       4.943  -5.915  24.258  0.00  0.00    -0.340 OA
BRANCH  20  21
ATOM     21  C   UNL     1       4.290  -7.079  24.829  0.00  0.00    +0.183 C 
ATOM     22  C   UNL     1       3.998  -6.756  26.336  0.00  0.00    +0.179 C 
ATOM     23  C   UNL     1       2.612  -7.058  26.966  0.00  0.00    +0.201 C 
ATOM     24  C   UNL     1       1.685  -7.915  26.096  0.00  0.00    +0.279 C 
ATOM     25  O   UNL     1       2.356  -8.593  25.044  0.00  0.00    -0.341 OA
ATOM     26  C   UNL     1       3.049  -7.699  24.130  0.00  0.00    +0.178 C 
BRANCH  24  27
ATOM     27  O   UNL     1       0.954  -8.868  26.879  0.00  0.00    -0.365 OA
ATOM     28  H   UNL     1       1.476  -8.966  27.692  0.00  0.00    +0.213 HD
ENDBRANCH  24  27
BRANCH  23  29
ATOM     29  O   UNL     1       2.727  -7.609  28.301  0.00  0.00    -0.384 OA
ATOM     30  H   UNL     1       1.859  -7.988  28.535  0.00  0.00    +0.210 HD
ENDBRANCH  23  29
BRANCH  22  31
ATOM     31  O   UNL     1       5.024  -7.407  27.124  0.00  0.00    -0.386 OA
ATOM     32  H   UNL     1       4.874  -7.173  28.051  0.00  0.00    +0.210 HD
ENDBRANCH  22  31
BRANCH  26  33
ATOM     33  C   UNL     1       2.022  -6.800  23.432  0.00  0.00    +0.190 C 
BRANCH  33  34
ATOM     34  O   UNL     1       2.710  -5.730  22.751  0.00  0.00    -0.392 OA
ATOM     35  H   UNL     1       2.945  -5.056  23.425  0.00  0.00    +0.210 HD
ENDBRANCH  33  34
ENDBRANCH  26  33
ENDBRANCH  20  21
ENDBRANCH  14  20
ENDBRANCH   7  11
ENDBRANCH   1   7
BRANCH   3  36
ATOM     36  O   UNL     1      11.166   0.738  24.556  0.00  0.00    -0.386 OA
ATOM     37  H   UNL     1      11.941   0.990  24.016  0.00  0.00    +0.210 HD
ENDBRANCH   3  36
BRANCH   2  38
ATOM     38  O   UNL     1       9.984  -2.025  23.696  0.00  0.00    -0.387 OA
ATOM     39  H   UNL     1       9.466  -2.435  22.972  0.00  0.00    +0.210 HD
ENDBRANCH   2  38
BRANCH   5  40
ATOM     40  C   UNL     1       7.563   2.413  21.531  0.00  0.00    +0.189 C 
BRANCH  40  41
ATOM     41  O   UNL     1       8.161   3.668  21.830  0.00  0.00    -0.391 OA
ATOM     42  H   UNL     1       7.810   4.331  21.214  0.00  0.00    +0.210 HD
ENDBRANCH  40  41
ENDBRANCH   5  40
BRANCH   4  43
ATOM     43  O   UNL     1       9.298   2.731  24.188  0.00  0.00    -0.338 OA
BRANCH  43  44
ATOM     44  C   UNL     1       8.304   2.824  25.217  0.00  0.00    +0.282 C 
ATOM     45  C   UNL     1       6.993   3.531  24.791  0.00  0.00    +0.201 C 
ATOM     46  C   UNL     1       5.915   3.522  25.920  0.00  0.00    +0.179 C 
ATOM     47  C   UNL     1       5.756   2.156  26.634  0.00  0.00    +0.183 C 
ATOM     48  C   UNL     1       7.205   1.692  26.976  0.00  0.00    +0.178 C 
ATOM     49  O   UNL     1       8.052   1.578  25.820  0.00  0.00    -0.341 OA
BRANCH  46  50
ATOM     50  O   UNL     1       4.668   3.969  25.358  0.00  0.00    -0.386 OA
ATOM     51  H   UNL     1       4.769   4.057  24.392  0.00  0.00    +0.210 HD
ENDBRANCH  46  50
BRANCH  45  52
ATOM     52  O   UNL     1       7.286   4.887  24.400  0.00  0.00    -0.384 OA
ATOM     53  H   UNL     1       7.030   4.993  23.465  0.00  0.00    +0.210 HD
ENDBRANCH  45  52
BRANCH  48  54
ATOM     54  C   UNL     1       7.292   0.346  27.702  0.00  0.00    +0.190 C 
BRANCH  54  55
ATOM     55  O   UNL     1       6.014  -0.309  27.631  0.00  0.00    -0.392 OA
ATOM     56  H   UNL     1       5.516   0.138  26.921  0.00  0.00    +0.210 HD
ENDBRANCH  54  55
ENDBRANCH  48  54
BRANCH  47  57
ATOM     57  O   UNL     1       5.107   2.215  27.925  0.00  0.00    -0.340 OA
BRANCH  57  58
ATOM     58  C   UNL     1       4.105   3.151  28.296  0.00  0.00    +0.282 C 
ATOM     59  C   UNL     1       3.864   3.159  29.834  0.00  0.00    +0.201 C 
ATOM     60  C   UNL     1       3.341   1.780  30.308  0.00  0.00    +0.179 C 
ATOM     61  C   UNL     1       2.055   1.399  29.558  0.00  0.00    +0.177 C 
ATOM     62  C   UNL     1       2.167   1.608  28.029  0.00  0.00    +0.178 C 
ATOM     63  O   UNL     1       2.861   2.803  27.633  0.00  0.00    -0.341 OA
BRANCH  61  64
ATOM     64  O   UNL     1       0.966   2.163  30.118  0.00  0.00    -0.386 OA
ATOM     65  H   UNL     1       0.282   1.553  30.448  0.00  0.00    +0.210 HD
ENDBRANCH  61  64
BRANCH  60  66
ATOM     66  O   UNL     1       4.363   0.793  30.203  0.00  0.00    -0.386 OA
ATOM     67  H   UNL     1       3.959   0.010  29.759  0.00  0.00    +0.210 HD
ENDBRANCH  60  66
BRANCH  59  68
ATOM     68  O   UNL     1       2.964   4.197  30.239  0.00  0.00    -0.384 OA
ATOM     69  H   UNL     1       2.750   4.772  29.466  0.00  0.00    +0.210 HD
ENDBRANCH  59  68
BRANCH  62  70
ATOM     70  C   UNL     1       2.679   0.327  27.323  0.00  0.00    +0.190 C 
BRANCH  70  71
ATOM     71  O   UNL     1       2.950  -0.715  28.227  0.00  0.00    -0.392 OA
ATOM     72  H   UNL     1       3.590  -1.317  27.809  0.00  0.00    +0.210 HD
ENDBRANCH  70  71
ENDBRANCH  62  70
ENDBRANCH  57  58
ENDBRANCH  47  57
ENDBRANCH  43  44
ENDBRANCH   4  43
TORSDOF 28
ENDMDL
MODEL 8
REMARK VINA RESULT:      -5.6      1.732      3.363
REMARK  Name = 
REMARK  29 active torsions:
REMARK  status: ('A' for Active; 'I' for Inactive)
REMARK    1  A    between atoms: C_1  and  C_2
REMARK    2  A    between atoms: C_5  and  O_7
REMARK    3  A    between atoms: O_7  and  C_8
REMARK    4  A    between atoms: C_10  and  C_12
REMARK    5  A    between atoms: C_12  and  O_13
REMARK    6  A    between atoms: C_15  and  O_17
REMARK    7  A    between atoms: C_18  and  O_20
REMARK    8  A    between atoms: C_21  and  O_23
REMARK    9  A    between atoms: C_24  and  O_26
REMARK   10  A    between atoms: C_27  and  O_29
REMARK   11  A    between atoms: C_30  and  N_32
REMARK   12  A    between atoms: N_32  and  C_33
REMARK   13  A    between atoms: C_36  and  C_37
REMARK   14  A    between atoms: C_37  and  O_38
REMARK   15  A    between atoms: C_39  and  O_41
REMARK   16  A    between atoms: O_41  and  C_42
REMARK   17  A    between atoms: C_45  and  C_47
REMARK   18  A    between atoms: C_47  and  O_48
REMARK   19  A    between atoms: C_49  and  O_51
REMARK   20  A    between atoms: O_51  and  C_52
REMARK   21  A    between atoms: C_55  and  C_57
REMARK   22  A    between atoms: C_57  and  O_58
REMARK   23  A    between atoms: C_59  and  O_61
REMARK   24  A    between atoms: C_62  and  O_64
REMARK   25  A    between atoms: C_65  and  O_67
REMARK   26  A    between atoms: C_68  and  O_70
REMARK   27  A    between atoms: C_71  and  O_73
REMARK   28  A    between atoms: C_74  and  O_76
REMARK   29  A    between atoms: C_77  and  O_79
REMARK                            x       y       z     vdW  Elec       q    Type
REMARK                         _______ _______ _______ _____ _____    ______ ____
ROOT
ATOM      1  C   UNL     1       8.401   3.320  22.962  0.00  0.00    +0.109 C 
ATOM      2  C   UNL     1       8.996   3.863  24.315  0.00  0.00    +0.166 C 
ATOM      3  C   UNL     1       8.901   5.381  24.588  0.00  0.00    +0.178 C 
ATOM      4  C   UNL     1       7.744   6.143  23.900  0.00  0.00    +0.180 C 
ATOM      5  C   UNL     1       7.451   5.647  22.519  0.00  0.00    -0.016 C 
ATOM      6  C   UNL     1       7.736   4.387  22.133  0.00  0.00    -0.002 C 
ENDROOT
BRANCH   1   7
ATOM      7  N   UNL     1       7.559   2.104  23.179  0.00  0.00    -0.300 NA
ATOM      8  H   UNL     1       6.635   2.409  23.487  0.00  0.00    +0.123 HD
BRANCH   7  11
ATOM      9  C   UNL     1      10.494   0.216  24.294  0.00  0.00    +0.039 C 
ATOM     10  C   UNL     1       9.188   0.139  23.517  0.00  0.00    +0.138 C 
ATOM     11  C   UNL     1       8.064   1.063  24.147  0.00  0.00    +0.114 C 
ATOM     12  C   UNL     1       6.949   0.234  24.833  0.00  0.00    +0.167 C 
ATOM     13  C   UNL     1       6.775  -1.201  24.303  0.00  0.00    +0.200 C 
ATOM     14  C   UNL     1       8.130  -1.968  24.256  0.00  0.00    +0.282 C 
ATOM     15  O   UNL     1       8.966  -1.265  23.344  0.00  0.00    -0.344 OA
BRANCH  13  16
ATOM     16  O   UNL     1       6.162  -1.147  22.999  0.00  0.00    -0.384 OA
ATOM     17  H   UNL     1       6.183  -0.220  22.684  0.00  0.00    +0.210 HD
ENDBRANCH  13  16
BRANCH  12  18
ATOM     18  O   UNL     1       7.180   0.255  26.249  0.00  0.00    -0.387 OA
ATOM     19  H   UNL     1       7.894  -0.376  26.442  0.00  0.00    +0.210 HD
ENDBRANCH  12  18
BRANCH  14  20
ATOM     20  O   UNL     1       8.616  -2.231  25.597  0.00  0.00    -0.340 OA
BRANCH  20  21
ATOM     21  C   UNL     1       8.023  -3.242  26.454  0.00  0.00    +0.183 C 
ATOM     22  C   UNL     1       6.472  -3.196  26.224  0.00  0.00    +0.179 C 
ATOM     23  C   UNL     1       5.656  -4.498  26.010  0.00  0.00    +0.201 C 
ATOM     24  C   UNL     1       6.423  -5.792  26.306  0.00  0.00    +0.279 C 
ATOM     25  O   UNL     1       7.605  -5.593  27.066  0.00  0.00    -0.341 OA
ATOM     26  C   UNL     1       8.559  -4.700  26.428  0.00  0.00    +0.178 C 
BRANCH  24  27
ATOM     27  O   UNL     1       5.596  -6.760  26.966  0.00  0.00    -0.365 OA
ATOM     28  H   UNL     1       6.222  -7.412  27.322  0.00  0.00    +0.213 HD
ENDBRANCH  24  27
BRANCH  23  29
ATOM     29  O   UNL     1       4.391  -4.472  26.716  0.00  0.00    -0.384 OA
ATOM     30  H   UNL     1       4.242  -3.555  27.012  0.00  0.00    +0.210 HD
ENDBRANCH  23  29
BRANCH  22  31
ATOM     31  O   UNL     1       5.894  -2.454  27.325  0.00  0.00    -0.386 OA
ATOM     32  H   UNL     1       6.563  -1.831  27.642  0.00  0.00    +0.210 HD
ENDBRANCH  22  31
BRANCH  26  33
ATOM     33  C   UNL     1       9.033  -5.328  25.113  0.00  0.00    +0.190 C 
BRANCH  33  34
ATOM     34  O   UNL     1      10.476  -5.312  25.069  0.00  0.00    -0.392 OA
ATOM     35  H   UNL     1      10.739  -4.848  24.245  0.00  0.00    +0.210 HD
ENDBRANCH  33  34
ENDBRANCH  26  33
ENDBRANCH  20  21
ENDBRANCH  14  20
ENDBRANCH   7  11
ENDBRANCH   1   7
BRANCH   3  36
ATOM     36  O   UNL     1       8.909   5.654  26.016  0.00  0.00    -0.386 OA
ATOM     37  H   UNL     1       8.104   6.181  26.189  0.00  0.00    +0.210 HD
ENDBRANCH   3  36
BRANCH   2  38
ATOM     38  O   UNL     1      10.413   3.479  24.349  0.00  0.00    -0.387 OA
ATOM     39  H   UNL     1      10.841   3.869  23.559  0.00  0.00    +0.210 HD
ENDBRANCH   2  38
BRANCH   5  40
ATOM     40  C   UNL     1       6.912   6.667  21.553  0.00  0.00    +0.189 C 
BRANCH  40  41
ATOM     41  O   UNL     1       5.539   6.906  21.838  0.00  0.00    -0.391 OA
ATOM     42  H   UNL     1       5.006   6.267  21.339  0.00  0.00    +0.210 HD
ENDBRANCH  40  41
ENDBRANCH   5  40
BRANCH   4  43
ATOM     43  O   UNL     1       6.604   6.425  24.718  0.00  0.00    -0.338 OA
BRANCH  43  44
ATOM     44  C   UNL     1       5.792   5.410  25.322  0.00  0.00    +0.282 C 
ATOM     45  C   UNL     1       5.145   4.416  24.327  0.00  0.00    +0.201 C 
ATOM     46  C   UNL     1       4.350   3.281  25.046  0.00  0.00    +0.179 C 
ATOM     47  C   UNL     1       5.091   2.656  26.254  0.00  0.00    +0.183 C 
ATOM     48  C   UNL     1       5.607   3.862  27.098  0.00  0.00    +0.178 C 
ATOM     49  O   UNL     1       6.470   4.743  26.360  0.00  0.00    -0.341 OA
BRANCH  46  50
ATOM     50  O   UNL     1       4.003   2.284  24.068  0.00  0.00    -0.386 OA
ATOM     51  H   UNL     1       3.647   2.726  23.276  0.00  0.00    +0.210 HD
ENDBRANCH  46  50
BRANCH  45  52
ATOM     52  O   UNL     1       4.276   5.135  23.429  0.00  0.00    -0.384 OA
ATOM     53  H   UNL     1       3.522   5.474  23.948  0.00  0.00    +0.210 HD
ENDBRANCH  45  52
BRANCH  48  54
ATOM     54  C   UNL     1       6.377   3.475  28.364  0.00  0.00    +0.190 C 
BRANCH  54  55
ATOM     55  O   UNL     1       7.404   2.530  28.019  0.00  0.00    -0.392 OA
ATOM     56  H   UNL     1       7.690   2.119  28.857  0.00  0.00    +0.210 HD
ENDBRANCH  54  55
ENDBRANCH  48  54
BRANCH  47  57
ATOM     57  O   UNL     1       4.246   1.934  27.179  0.00  0.00    -0.340 OA
BRANCH  57  58
ATOM     58  C   UNL     1       3.338   0.902  26.824  0.00  0.00    +0.282 C 
ATOM     59  C   UNL     1       1.873   1.263  27.211  0.00  0.00    +0.201 C 
ATOM     60  C   UNL     1       1.742   1.422  28.747  0.00  0.00    +0.179 C 
ATOM     61  C   UNL     1       2.195   0.142  29.467  0.00  0.00    +0.177 C 
ATOM     62  C   UNL     1       3.546  -0.397  28.940  0.00  0.00    +0.178 C 
ATOM     63  O   UNL     1       3.712  -0.319  27.514  0.00  0.00    -0.341 OA
BRANCH  61  64
ATOM     64  O   UNL     1       1.146  -0.841  29.337  0.00  0.00    -0.386 OA
ATOM     65  H   UNL     1       1.504  -1.636  28.902  0.00  0.00    +0.210 HD
ENDBRANCH  61  64
BRANCH  60  66
ATOM     66  O   UNL     1       2.431   2.588  29.191  0.00  0.00    -0.386 OA
ATOM     67  H   UNL     1       3.236   2.278  29.672  0.00  0.00    +0.210 HD
ENDBRANCH  60  66
BRANCH  59  68
ATOM     68  O   UNL     1       0.929   0.300  26.730  0.00  0.00    -0.384 OA
ATOM     69  H   UNL     1       0.664  -0.303  27.465  0.00  0.00    +0.210 HD
ENDBRANCH  59  68
BRANCH  62  70
ATOM     70  C   UNL     1       4.737   0.193  29.739  0.00  0.00    +0.190 C 
BRANCH  70  71
ATOM     71  O   UNL     1       5.922   0.237  28.985  0.00  0.00    -0.392 OA
ATOM     72  H   UNL     1       6.582   0.743  29.490  0.00  0.00    +0.210 HD
ENDBRANCH  70  71
ENDBRANCH  62  70
ENDBRANCH  57  58
ENDBRANCH  47  57
ENDBRANCH  43  44
ENDBRANCH   4  43
TORSDOF 28
ENDMDL
MODEL 9
REMARK VINA RESULT:      -5.6      1.640      2.461
REMARK  Name = 
REMARK  29 active torsions:
REMARK  status: ('A' for Active; 'I' for Inactive)
REMARK    1  A    between atoms: C_1  and  C_2
REMARK    2  A    between atoms: C_5  and  O_7
REMARK    3  A    between atoms: O_7  and  C_8
REMARK    4  A    between atoms: C_10  and  C_12
REMARK    5  A    between atoms: C_12  and  O_13
REMARK    6  A    between atoms: C_15  and  O_17
REMARK    7  A    between atoms: C_18  and  O_20
REMARK    8  A    between atoms: C_21  and  O_23
REMARK    9  A    between atoms: C_24  and  O_26
REMARK   10  A    between atoms: C_27  and  O_29
REMARK   11  A    between atoms: C_30  and  N_32
REMARK   12  A    between atoms: N_32  and  C_33
REMARK   13  A    between atoms: C_36  and  C_37
REMARK   14  A    between atoms: C_37  and  O_38
REMARK   15  A    between atoms: C_39  and  O_41
REMARK   16  A    between atoms: O_41  and  C_42
REMARK   17  A    between atoms: C_45  and  C_47
REMARK   18  A    between atoms: C_47  and  O_48
REMARK   19  A    between atoms: C_49  and  O_51
REMARK   20  A    between atoms: O_51  and  C_52
REMARK   21  A    between atoms: C_55  and  C_57
REMARK   22  A    between atoms: C_57  and  O_58
REMARK   23  A    between atoms: C_59  and  O_61
REMARK   24  A    between atoms: C_62  and  O_64
REMARK   25  A    between atoms: C_65  and  O_67
REMARK   26  A    between atoms: C_68  and  O_70
REMARK   27  A    between atoms: C_71  and  O_73
REMARK   28  A    between atoms: C_74  and  O_76
REMARK   29  A    between atoms: C_77  and  O_79
REMARK                            x       y       z     vdW  Elec       q    Type
REMARK                         _______ _______ _______ _____ _____    ______ ____
ROOT
ATOM      1  C   UNL     1       8.046   3.095  22.254  0.00  0.00    +0.109 C 
ATOM      2  C   UNL     1       9.024   3.432  23.441  0.00  0.00    +0.166 C 
ATOM      3  C   UNL     1       8.897   4.820  24.111  0.00  0.00    +0.178 C 
ATOM      4  C   UNL     1       7.511   5.503  24.043  0.00  0.00    +0.180 C 
ATOM      5  C   UNL     1       6.801   5.268  22.747  0.00  0.00    -0.016 C 
ATOM      6  C   UNL     1       7.043   4.186  21.981  0.00  0.00    -0.002 C 
ENDROOT
BRANCH   1   7
ATOM      7  N   UNL     1       7.441   1.737  22.407  0.00  0.00    -0.300 NA
ATOM      8  H   UNL     1       6.445   1.852  22.595  0.00  0.00    +0.123 HD
BRANCH   7  11
ATOM      9  C   UNL     1      10.434  -0.084  23.480  0.00  0.00    +0.039 C 
ATOM     10  C   UNL     1       9.052  -0.221  22.857  0.00  0.00    +0.138 C 
ATOM     11  C   UNL     1       8.021   0.824  23.458  0.00  0.00    +0.114 C 
ATOM     12  C   UNL     1       6.966   0.141  24.365  0.00  0.00    +0.167 C 
ATOM     13  C   UNL     1       6.705  -1.347  24.066  0.00  0.00    +0.200 C 
ATOM     14  C   UNL     1       8.031  -2.162  23.993  0.00  0.00    +0.282 C 
ATOM     15  O   UNL     1       8.781  -1.626  22.910  0.00  0.00    -0.344 OA
BRANCH  13  16
ATOM     16  O   UNL     1       5.960  -1.453  22.837  0.00  0.00    -0.384 OA
ATOM     17  H   UNL     1       6.593  -1.461  22.090  0.00  0.00    +0.210 HD
ENDBRANCH  13  16
BRANCH  12  18
ATOM     18  O   UNL     1       7.345   0.352  25.732  0.00  0.00    -0.387 OA
ATOM     19  H   UNL     1       8.210   0.796  25.735  0.00  0.00    +0.210 HD
ENDBRANCH  12  18
BRANCH  14  20
ATOM     20  O   UNL     1       8.648  -2.253  25.302  0.00  0.00    -0.340 OA
BRANCH  20  21
ATOM     21  C   UNL     1       8.127  -3.113  26.350  0.00  0.00    +0.183 C 
ATOM     22  C   UNL     1       6.567  -3.139  26.198  0.00  0.00    +0.179 C 
ATOM     23  C   UNL     1       5.779  -4.474  26.254  0.00  0.00    +0.201 C 
ATOM     24  C   UNL     1       6.597  -5.682  26.725  0.00  0.00    +0.279 C 
ATOM     25  O   UNL     1       7.809  -5.331  27.376  0.00  0.00    -0.341 OA
ATOM     26  C   UNL     1       8.704  -4.542  26.546  0.00  0.00    +0.178 C 
BRANCH  24  27
ATOM     27  O   UNL     1       5.832  -6.539  27.584  0.00  0.00    -0.365 OA
ATOM     28  H   UNL     1       6.196  -7.426  27.429  0.00  0.00    +0.213 HD
ENDBRANCH  24  27
BRANCH  23  29
ATOM     29  O   UNL     1       4.550  -4.353  27.011  0.00  0.00    -0.384 OA
ATOM     30  H   UNL     1       4.315  -3.407  27.034  0.00  0.00    +0.210 HD
ENDBRANCH  23  29
BRANCH  22  31
ATOM     31  O   UNL     1       6.021  -2.230  27.185  0.00  0.00    -0.386 OA
ATOM     32  H   UNL     1       5.964  -1.355  26.777  0.00  0.00    +0.210 HD
ENDBRANCH  22  31
BRANCH  26  33
ATOM     33  C   UNL     1       9.132  -5.377  25.334  0.00  0.00    +0.190 C 
BRANCH  33  34
ATOM     34  O   UNL     1      10.411  -4.908  24.858  0.00  0.00    -0.392 OA
ATOM     35  H   UNL     1      10.929  -4.625  25.642  0.00  0.00    +0.210 HD
ENDBRANCH  33  34
ENDBRANCH  26  33
ENDBRANCH  20  21
ENDBRANCH  14  20
ENDBRANCH   7  11
ENDBRANCH   1   7
BRANCH   3  36
ATOM     36  O   UNL     1       9.377   4.781  25.483  0.00  0.00    -0.386 OA
ATOM     37  H   UNL     1       8.597   4.972  26.040  0.00  0.00    +0.210 HD
ENDBRANCH   3  36
BRANCH   2  38
ATOM     38  O   UNL     1      10.392   3.294  22.926  0.00  0.00    -0.387 OA
ATOM     39  H   UNL     1      10.420   3.731  22.049  0.00  0.00    +0.210 HD
ENDBRANCH   2  38
BRANCH   5  40
ATOM     40  C   UNL     1       5.873   6.364  22.297  0.00  0.00    +0.189 C 
BRANCH  40  41
ATOM     41  O   UNL     1       4.553   5.846  22.185  0.00  0.00    -0.391 OA
ATOM     42  H   UNL     1       4.049   6.417  21.583  0.00  0.00    +0.210 HD
ENDBRANCH  40  41
ENDBRANCH   5  40
BRANCH   4  43
ATOM     43  O   UNL     1       6.707   5.409  25.223  0.00  0.00    -0.338 OA
BRANCH  43  44
ATOM     44  C   UNL     1       5.956   4.241  25.578  0.00  0.00    +0.282 C 
ATOM     45  C   UNL     1       6.322   3.624  26.950  0.00  0.00    +0.201 C 
ATOM     46  C   UNL     1       5.412   2.412  27.324  0.00  0.00    +0.179 C 
ATOM     47  C   UNL     1       3.903   2.648  27.060  0.00  0.00    +0.183 C 
ATOM     48  C   UNL     1       3.818   3.234  25.617  0.00  0.00    +0.178 C 
ATOM     49  O   UNL     1       4.569   4.449  25.452  0.00  0.00    -0.341 OA
BRANCH  46  50
ATOM     50  O   UNL     1       5.657   2.070  28.700  0.00  0.00    -0.386 OA
ATOM     51  H   UNL     1       5.440   1.130  28.837  0.00  0.00    +0.210 HD
ENDBRANCH  46  50
BRANCH  45  52
ATOM     52  O   UNL     1       7.705   3.216  26.938  0.00  0.00    -0.384 OA
ATOM     53  H   UNL     1       8.252   4.003  27.120  0.00  0.00    +0.210 HD
ENDBRANCH  45  52
BRANCH  48  54
ATOM     54  C   UNL     1       2.398   3.543  25.134  0.00  0.00    +0.190 C 
BRANCH  54  55
ATOM     55  O   UNL     1       1.737   2.312  24.796  0.00  0.00    -0.392 OA
ATOM     56  H   UNL     1       1.126   2.521  24.066  0.00  0.00    +0.210 HD
ENDBRANCH  54  55
ENDBRANCH  48  54
BRANCH  47  57
ATOM     57  O   UNL     1       3.104   1.445  26.983  0.00  0.00    -0.340 OA
BRANCH  57  58
ATOM     58  C   UNL     1       3.358   0.245  27.699  0.00  0.00    +0.282 C 
ATOM     59  C   UNL     1       2.568  -0.959  27.107  0.00  0.00    +0.201 C 
ATOM     60  C   UNL     1       1.043  -0.718  27.227  0.00  0.00    +0.179 C 
ATOM     61  C   UNL     1       0.645  -0.475  28.692  0.00  0.00    +0.177 C 
ATOM     62  C   UNL     1       1.565   0.547  29.402  0.00  0.00    +0.178 C 
ATOM     63  O   UNL     1       2.961   0.424  29.084  0.00  0.00    -0.341 OA
BRANCH  61  64
ATOM     64  O   UNL     1       0.642  -1.747  29.374  0.00  0.00    -0.386 OA
ATOM     65  H   UNL     1       1.441  -2.246  29.126  0.00  0.00    +0.210 HD
ENDBRANCH  61  64
BRANCH  60  66
ATOM     66  O   UNL     1       0.629   0.328  26.354  0.00  0.00    -0.386 OA
ATOM     67  H   UNL     1       0.401   1.102  26.923  0.00  0.00    +0.210 HD
ENDBRANCH  60  66
BRANCH  59  68
ATOM     68  O   UNL     1       2.925  -2.201  27.724  0.00  0.00    -0.384 OA
ATOM     69  H   UNL     1       2.111  -2.727  27.907  0.00  0.00    +0.210 HD
ENDBRANCH  59  68
BRANCH  62  70
ATOM     70  C   UNL     1       1.018   1.991  29.258  0.00  0.00    +0.190 C 
BRANCH  70  71
ATOM     71  O   UNL     1       0.443   2.225  27.997  0.00  0.00    -0.392 OA
ATOM     72  H   UNL     1      -0.150   2.993  28.075  0.00  0.00    +0.210 HD
ENDBRANCH  70  71
ENDBRANCH  62  70
ENDBRANCH  57  58
ENDBRANCH  47  57
ENDBRANCH  43  44
ENDBRANCH   4  43
TORSDOF 28
ENDMDL
