MODEL 1
REMARK VINA RESULT:      -7.4      0.000      0.000
REMARK  Name = 
REMARK  14 active torsions:
REMARK  status: ('A' for Active; 'I' for Inactive)
REMARK    1  A    between atoms: C_1  and  N_2
REMARK    2  A    between atoms: C_3  and  C_5
REMARK    3  A    between atoms: C_9  and  C_10
REMARK    4  A    between atoms: C_10  and  N_11
REMARK    5  A    between atoms: C_12  and  C_14
REMARK    6  A    between atoms: C_14  and  O_15
REMARK    7  A    between atoms: O_15  and  C_16
REMARK    8  A    between atoms: C_22  and  O_24
REMARK    9  A    between atoms: C_25  and  O_27
REMARK   10  A    between atoms: C_28  and  C_30
REMARK   11  A    between atoms: C_30  and  O_31
REMARK   12  A    between atoms: O_31  and  C_32
REMARK   13  A    between atoms: N_38  and  C_39
REMARK   14  A    between atoms: C_39  and  C_40
REMARK                            x       y       z     vdW  Elec       q    Type
REMARK                         _______ _______ _______ _____ _____    ______ ____
ROOT
ATOM      1  N   UNL     1       5.289  -4.871  24.520  0.00  0.00    -0.153 NA
ATOM      2  S   UNL     1       5.955  -4.191  23.082  0.00  0.00    +0.101 S 
ATOM      3  O   UNL     1       5.002  -3.359  22.397  0.00  0.00    -0.141 OA
ATOM      4  O   UNL     1       6.636  -5.255  22.379  0.00  0.00    -0.141 OA
ATOM      5  N   UNL     1       7.037  -3.121  23.762  0.00  0.00    -0.153 NA
ATOM      6  C   UNL     1       8.459  -3.578  23.840  0.00  0.00    +0.150 C 
ATOM      7  C   UNL     1       8.607  -4.964  24.519  0.00  0.00    +0.167 C 
ATOM      8  C   UNL     1       7.650  -5.186  25.707  0.00  0.00    +0.167 C 
ATOM      9  C   UNL     1       6.241  -5.806  25.346  0.00  0.00    +0.150 C 
ENDROOT
BRANCH   7  10
ATOM     10  O   UNL     1       9.964  -5.177  24.949  0.00  0.00    -0.387 OA
ATOM     11  H   UNL     1      10.248  -4.338  25.369  0.00  0.00    +0.210 HD
ENDBRANCH   7  10
BRANCH   8  12
ATOM     12  O   UNL     1       8.404  -6.018  26.626  0.00  0.00    -0.387 OA
ATOM     13  H   UNL     1       8.280  -5.681  27.534  0.00  0.00    +0.210 HD
ENDBRANCH   8  12
BRANCH   1  14
ATOM     14  C   UNL     1       3.954  -5.543  24.245  0.00  0.00    +0.146 C 
BRANCH  14  17
ATOM     15  C   UNL     1       1.593  -3.233  26.173  0.00  0.00    +0.037 A 
ATOM     16  C   UNL     1       2.757  -3.753  25.587  0.00  0.00    +0.018 A 
ATOM     17  C   UNL     1       2.760  -5.044  25.032  0.00  0.00    -0.031 A 
ATOM     18  C   UNL     1       1.604  -5.832  25.142  0.00  0.00    +0.005 A 
ATOM     19  C   UNL     1       0.453  -5.325  25.749  0.00  0.00    +0.001 A 
ATOM     20  C   UNL     1       0.443  -4.026  26.258  0.00  0.00    +0.013 A 
BRANCH  15  24
ATOM     21  C   UNL     1       0.444  -0.107  27.985  0.00  0.00    +0.128 C 
ATOM     22  N   UNL     1       0.494  -1.409  27.368  0.00  0.00    -0.314 N 
ATOM     23  H   UNL     1      -0.347  -1.970  27.353  0.00  0.00    +0.149 HD
ATOM     24  C   UNL     1       1.625  -1.844  26.709  0.00  0.00    +0.244 C 
ATOM     25  O   UNL     1       2.621  -1.150  26.541  0.00  0.00    -0.270 OA
ENDBRANCH  15  24
ENDBRANCH  14  17
ENDBRANCH   1  14
BRANCH   5  26
ATOM     26  C   UNL     1       6.426  -2.125  24.696  0.00  0.00    +0.146 C 
BRANCH  26  27
ATOM     27  C   UNL     1       6.673  -0.665  24.393  0.00  0.00    -0.032 A 
ATOM     28  C   UNL     1       6.528  -0.180  23.082  0.00  0.00    +0.005 A 
ATOM     29  C   UNL     1       6.592   1.189  22.822  0.00  0.00    +0.000 A 
ATOM     30  C   UNL     1       6.838   2.083  23.861  0.00  0.00    +0.000 A 
ATOM     31  C   UNL     1       7.055   1.607  25.154  0.00  0.00    +0.000 A 
ATOM     32  C   UNL     1       6.986   0.237  25.420  0.00  0.00    +0.005 A 
ENDBRANCH  26  27
ENDBRANCH   5  26
BRANCH   6  33
ATOM     33  C   UNL     1       9.424  -2.495  24.349  0.00  0.00    +0.252 C 
BRANCH  33  34
ATOM     34  O   UNL     1      10.315  -2.024  23.334  0.00  0.00    -0.490 OA
BRANCH  34  35
ATOM     35  C   UNL     1      10.271  -0.665  23.169  0.00  0.00    +0.121 A 
ATOM     36  C   UNL     1       9.981  -0.031  21.960  0.00  0.00    +0.045 A 
ATOM     37  C   UNL     1       9.972   1.362  21.881  0.00  0.00    +0.004 A 
ATOM     38  C   UNL     1      10.277   2.123  23.006  0.00  0.00    +0.000 A 
ATOM     39  C   UNL     1      10.592   1.491  24.210  0.00  0.00    +0.004 A 
ATOM     40  C   UNL     1      10.591   0.098  24.289  0.00  0.00    +0.045 A 
ENDBRANCH  34  35
ENDBRANCH  33  34
ENDBRANCH   6  33
BRANCH   9  41
ATOM     41  C   UNL     1       5.541  -6.211  26.695  0.00  0.00    +0.252 C 
BRANCH  41  42
ATOM     42  O   UNL     1       5.639  -5.202  27.718  0.00  0.00    -0.490 OA
BRANCH  42  43
ATOM     43  C   UNL     1       4.472  -4.955  28.407  0.00  0.00    +0.121 A 
ATOM     44  C   UNL     1       4.165  -3.756  29.056  0.00  0.00    +0.045 A 
ATOM     45  C   UNL     1       2.920  -3.576  29.667  0.00  0.00    +0.004 A 
ATOM     46  C   UNL     1       1.977  -4.601  29.651  0.00  0.00    +0.000 A 
ATOM     47  C   UNL     1       2.298  -5.821  29.062  0.00  0.00    +0.004 A 
ATOM     48  C   UNL     1       3.548  -6.003  28.455  0.00  0.00    +0.045 A 
ENDBRANCH  42  43
ENDBRANCH  41  42
ENDBRANCH   9  41
TORSDOF 13
ENDMDL
MODEL 2
REMARK VINA RESULT:      -6.7      2.916      7.818
REMARK  Name = 
REMARK  14 active torsions:
REMARK  status: ('A' for Active; 'I' for Inactive)
REMARK    1  A    between atoms: C_1  and  N_2
REMARK    2  A    between atoms: C_3  and  C_5
REMARK    3  A    between atoms: C_9  and  C_10
REMARK    4  A    between atoms: C_10  and  N_11
REMARK    5  A    between atoms: C_12  and  C_14
REMARK    6  A    between atoms: C_14  and  O_15
REMARK    7  A    between atoms: O_15  and  C_16
REMARK    8  A    between atoms: C_22  and  O_24
REMARK    9  A    between atoms: C_25  and  O_27
REMARK   10  A    between atoms: C_28  and  C_30
REMARK   11  A    between atoms: C_30  and  O_31
REMARK   12  A    between atoms: O_31  and  C_32
REMARK   13  A    between atoms: N_38  and  C_39
REMARK   14  A    between atoms: C_39  and  C_40
REMARK                            x       y       z     vdW  Elec       q    Type
REMARK                         _______ _______ _______ _____ _____    ______ ____
ROOT
ATOM      1  N   UNL     1       8.405   1.500  24.454  0.00  0.00    -0.153 NA
ATOM      2  S   UNL     1       8.872   0.163  25.439  0.00  0.00    +0.101 S 
ATOM      3  O   UNL     1       8.283   0.236  26.749  0.00  0.00    -0.141 OA
ATOM      4  O   UNL     1      10.301  -0.003  25.288  0.00  0.00    -0.141 OA
ATOM      5  N   UNL     1       8.033  -1.052  24.665  0.00  0.00    -0.153 NA
ATOM      6  C   UNL     1       8.814  -1.883  23.697  0.00  0.00    +0.150 C 
ATOM      7  C   UNL     1       9.571  -1.029  22.648  0.00  0.00    +0.167 C 
ATOM      8  C   UNL     1       8.788   0.206  22.161  0.00  0.00    +0.167 C 
ATOM      9  C   UNL     1       8.998   1.528  23.001  0.00  0.00    +0.150 C 
ENDROOT
BRANCH   7  10
ATOM     10  O   UNL     1       9.952  -1.833  21.517  0.00  0.00    -0.387 OA
ATOM     11  H   UNL     1       9.117  -2.070  21.062  0.00  0.00    +0.210 HD
ENDBRANCH   7  10
BRANCH   8  12
ATOM     12  O   UNL     1       9.186   0.360  20.774  0.00  0.00    -0.387 OA
ATOM     13  H   UNL     1       8.899   1.238  20.457  0.00  0.00    +0.210 HD
ENDBRANCH   8  12
BRANCH   1  14
ATOM     14  C   UNL     1       8.634   2.820  25.172  0.00  0.00    +0.146 C 
BRANCH  14  17
ATOM     15  C   UNL     1       5.120   3.529  26.507  0.00  0.00    +0.037 A 
ATOM     16  C   UNL     1       6.206   2.872  25.909  0.00  0.00    +0.018 A 
ATOM     17  C   UNL     1       7.404   3.561  25.653  0.00  0.00    -0.031 A 
ATOM     18  C   UNL     1       7.469   4.935  25.935  0.00  0.00    +0.005 A 
ATOM     19  C   UNL     1       6.380   5.595  26.506  0.00  0.00    +0.001 A 
ATOM     20  C   UNL     1       5.209   4.895  26.799  0.00  0.00    +0.013 A 
BRANCH  15  24
ATOM     21  C   UNL     1       2.903   0.521  27.146  0.00  0.00    +0.128 C 
ATOM     22  N   UNL     1       4.016   1.373  26.807  0.00  0.00    -0.314 N 
ATOM     23  H   UNL     1       4.876   0.943  26.494  0.00  0.00    +0.149 HD
ATOM     24  C   UNL     1       3.888   2.747  26.799  0.00  0.00    +0.244 C 
ATOM     25  O   UNL     1       2.830   3.330  27.004  0.00  0.00    -0.270 OA
ENDBRANCH  15  24
ENDBRANCH  14  17
ENDBRANCH   1  14
BRANCH   5  26
ATOM     26  C   UNL     1       6.556  -0.831  24.576  0.00  0.00    +0.146 C 
BRANCH  26  27
ATOM     27  C   UNL     1       5.680  -1.724  25.425  0.00  0.00    -0.032 A 
ATOM     28  C   UNL     1       5.879  -1.797  26.814  0.00  0.00    +0.005 A 
ATOM     29  C   UNL     1       4.976  -2.487  27.623  0.00  0.00    +0.000 A 
ATOM     30  C   UNL     1       3.890  -3.143  27.049  0.00  0.00    +0.000 A 
ATOM     31  C   UNL     1       3.724  -3.138  25.664  0.00  0.00    +0.000 A 
ATOM     32  C   UNL     1       4.621  -2.443  24.851  0.00  0.00    +0.005 A 
ENDBRANCH  26  27
ENDBRANCH   5  26
BRANCH   6  33
ATOM     33  C   UNL     1       8.018  -3.067  23.124  0.00  0.00    +0.252 C 
BRANCH  33  34
ATOM     34  O   UNL     1       8.486  -4.332  23.600  0.00  0.00    -0.490 OA
BRANCH  34  35
ATOM     35  C   UNL     1       7.773  -4.800  24.671  0.00  0.00    +0.121 A 
ATOM     36  C   UNL     1       8.213  -4.734  25.995  0.00  0.00    +0.045 A 
ATOM     37  C   UNL     1       7.425  -5.250  27.024  0.00  0.00    +0.004 A 
ATOM     38  C   UNL     1       6.206  -5.855  26.729  0.00  0.00    +0.000 A 
ATOM     39  C   UNL     1       5.776  -5.945  25.404  0.00  0.00    +0.004 A 
ATOM     40  C   UNL     1       6.562  -5.420  24.377  0.00  0.00    +0.045 A 
ENDBRANCH  34  35
ENDBRANCH  33  34
ENDBRANCH   6  33
BRANCH   9  41
ATOM     41  C   UNL     1       8.354   2.714  22.193  0.00  0.00    +0.252 C 
BRANCH  41  42
ATOM     42  O   UNL     1       6.972   2.493  21.853  0.00  0.00    -0.490 OA
BRANCH  42  43
ATOM     43  C   UNL     1       6.108   3.490  22.249  0.00  0.00    +0.121 A 
ATOM     44  C   UNL     1       4.759   3.302  22.560  0.00  0.00    +0.045 A 
ATOM     45  C   UNL     1       3.980   4.368  23.024  0.00  0.00    +0.004 A 
ATOM     46  C   UNL     1       4.540   5.636  23.163  0.00  0.00    +0.000 A 
ATOM     47  C   UNL     1       5.866   5.846  22.793  0.00  0.00    +0.004 A 
ATOM     48  C   UNL     1       6.644   4.779  22.323  0.00  0.00    +0.045 A 
ENDBRANCH  42  43
ENDBRANCH  41  42
ENDBRANCH   9  41
TORSDOF 13
ENDMDL
MODEL 3
REMARK VINA RESULT:      -6.4      3.480      9.091
REMARK  Name = 
REMARK  14 active torsions:
REMARK  status: ('A' for Active; 'I' for Inactive)
REMARK    1  A    between atoms: C_1  and  N_2
REMARK    2  A    between atoms: C_3  and  C_5
REMARK    3  A    between atoms: C_9  and  C_10
REMARK    4  A    between atoms: C_10  and  N_11
REMARK    5  A    between atoms: C_12  and  C_14
REMARK    6  A    between atoms: C_14  and  O_15
REMARK    7  A    between atoms: O_15  and  C_16
REMARK    8  A    between atoms: C_22  and  O_24
REMARK    9  A    between atoms: C_25  and  O_27
REMARK   10  A    between atoms: C_28  and  C_30
REMARK   11  A    between atoms: C_30  and  O_31
REMARK   12  A    between atoms: O_31  and  C_32
REMARK   13  A    between atoms: N_38  and  C_39
REMARK   14  A    between atoms: C_39  and  C_40
REMARK                            x       y       z     vdW  Elec       q    Type
REMARK                         _______ _______ _______ _____ _____    ______ ____
ROOT
ATOM      1  N   UNL     1       7.459   1.092  24.971  0.00  0.00    -0.153 NA
ATOM      2  S   UNL     1       8.614   0.091  25.769  0.00  0.00    +0.101 S 
ATOM      3  O   UNL     1       8.239  -0.171  27.132  0.00  0.00    -0.141 OA
ATOM      4  O   UNL     1       9.925   0.617  25.459  0.00  0.00    -0.141 OA
ATOM      5  N   UNL     1       8.330  -1.344  24.970  0.00  0.00    -0.153 NA
ATOM      6  C   UNL     1       9.267  -1.676  23.852  0.00  0.00    +0.150 C 
ATOM      7  C   UNL     1       9.400  -0.527  22.819  0.00  0.00    +0.167 C 
ATOM      8  C   UNL     1       8.080   0.217  22.535  0.00  0.00    +0.167 C 
ATOM      9  C   UNL     1       7.772   1.450  23.475  0.00  0.00    +0.150 C 
ENDROOT
BRANCH   7  10
ATOM     10  O   UNL     1       9.951  -1.016  21.583  0.00  0.00    -0.387 OA
ATOM     11  H   UNL     1      10.917  -0.866  21.641  0.00  0.00    +0.210 HD
ENDBRANCH   7  10
BRANCH   8  12
ATOM     12  O   UNL     1       8.172   0.593  21.137  0.00  0.00    -0.387 OA
ATOM     13  H   UNL     1       8.055   1.559  21.060  0.00  0.00    +0.210 HD
ENDBRANCH   8  12
BRANCH   1  14
ATOM     14  C   UNL     1       7.151   2.337  25.786  0.00  0.00    +0.146 C 
BRANCH  14  17
ATOM     15  C   UNL     1       9.885   4.610  24.375  0.00  0.00    +0.037 A 
ATOM     16  C   UNL     1       9.171   3.457  24.735  0.00  0.00    +0.018 A 
ATOM     17  C   UNL     1       8.024   3.551  25.540  0.00  0.00    -0.031 A 
ATOM     18  C   UNL     1       7.648   4.807  26.041  0.00  0.00    +0.005 A 
ATOM     19  C   UNL     1       8.373   5.952  25.705  0.00  0.00    +0.001 A 
ATOM     20  C   UNL     1       9.486   5.857  24.869  0.00  0.00    +0.013 A 
BRANCH  15  24
ATOM     21  C   UNL     1      12.948   5.589  22.366  0.00  0.00    +0.128 C 
ATOM     22  N   UNL     1      11.747   5.624  23.165  0.00  0.00    -0.314 N 
ATOM     23  H   UNL     1      11.362   6.522  23.420  0.00  0.00    +0.149 HD
ATOM     24  C   UNL     1      11.069   4.465  23.485  0.00  0.00    +0.244 C 
ATOM     25  O   UNL     1      11.386   3.357  23.068  0.00  0.00    -0.270 OA
ENDBRANCH  15  24
ENDBRANCH  14  17
ENDBRANCH   1  14
BRANCH   5  26
ATOM     26  C   UNL     1       6.920  -1.835  25.052  0.00  0.00    +0.146 C 
BRANCH  26  27
ATOM     27  C   UNL     1       6.682  -3.097  25.849  0.00  0.00    -0.032 A 
ATOM     28  C   UNL     1       5.374  -3.567  26.056  0.00  0.00    +0.005 A 
ATOM     29  C   UNL     1       5.154  -4.812  26.647  0.00  0.00    +0.000 A 
ATOM     30  C   UNL     1       6.235  -5.581  27.069  0.00  0.00    +0.000 A 
ATOM     31  C   UNL     1       7.534  -5.093  26.934  0.00  0.00    +0.000 A 
ATOM     32  C   UNL     1       7.760  -3.850  26.338  0.00  0.00    +0.005 A 
ENDBRANCH  26  27
ENDBRANCH   5  26
BRANCH   6  33
ATOM     33  C   UNL     1       9.034  -3.071  23.250  0.00  0.00    +0.252 C 
BRANCH  33  34
ATOM     34  O   UNL     1       8.100  -3.058  22.166  0.00  0.00    -0.490 OA
BRANCH  34  35
ATOM     35  C   UNL     1       7.015  -3.866  22.383  0.00  0.00    +0.121 A 
ATOM     36  C   UNL     1       5.689  -3.438  22.297  0.00  0.00    +0.045 A 
ATOM     37  C   UNL     1       4.645  -4.328  22.550  0.00  0.00    +0.004 A 
ATOM     38  C   UNL     1       4.926  -5.643  22.912  0.00  0.00    +0.000 A 
ATOM     39  C   UNL     1       6.252  -6.066  23.024  0.00  0.00    +0.004 A 
ATOM     40  C   UNL     1       7.293  -5.176  22.762  0.00  0.00    +0.045 A 
ENDBRANCH  34  35
ENDBRANCH  33  34
ENDBRANCH   6  33
BRANCH   9  41
ATOM     41  C   UNL     1       6.554   2.229  22.854  0.00  0.00    +0.252 C 
BRANCH  41  42
ATOM     42  O   UNL     1       6.944   3.245  21.910  0.00  0.00    -0.490 OA
BRANCH  42  43
ATOM     43  C   UNL     1       6.655   4.536  22.292  0.00  0.00    +0.121 A 
ATOM     44  C   UNL     1       7.399   5.662  21.931  0.00  0.00    +0.045 A 
ATOM     45  C   UNL     1       6.982   6.943  22.309  0.00  0.00    +0.004 A 
ATOM     46  C   UNL     1       5.826   7.107  23.068  0.00  0.00    +0.000 A 
ATOM     47  C   UNL     1       5.114   5.986  23.487  0.00  0.00    +0.004 A 
ATOM     48  C   UNL     1       5.535   4.704  23.113  0.00  0.00    +0.045 A 
ENDBRANCH  42  43
ENDBRANCH  41  42
ENDBRANCH   9  41
TORSDOF 13
ENDMDL
MODEL 4
REMARK VINA RESULT:      -6.3      2.601      8.057
REMARK  Name = 
REMARK  14 active torsions:
REMARK  status: ('A' for Active; 'I' for Inactive)
REMARK    1  A    between atoms: C_1  and  N_2
REMARK    2  A    between atoms: C_3  and  C_5
REMARK    3  A    between atoms: C_9  and  C_10
REMARK    4  A    between atoms: C_10  and  N_11
REMARK    5  A    between atoms: C_12  and  C_14
REMARK    6  A    between atoms: C_14  and  O_15
REMARK    7  A    between atoms: O_15  and  C_16
REMARK    8  A    between atoms: C_22  and  O_24
REMARK    9  A    between atoms: C_25  and  O_27
REMARK   10  A    between atoms: C_28  and  C_30
REMARK   11  A    between atoms: C_30  and  O_31
REMARK   12  A    between atoms: O_31  and  C_32
REMARK   13  A    between atoms: N_38  and  C_39
REMARK   14  A    between atoms: C_39  and  C_40
REMARK                            x       y       z     vdW  Elec       q    Type
REMARK                         _______ _______ _______ _____ _____    ______ ____
ROOT
ATOM      1  N   UNL     1       6.458  -1.435  26.182  0.00  0.00    -0.153 NA
ATOM      2  S   UNL     1       4.860  -1.926  26.604  0.00  0.00    +0.101 S 
ATOM      3  O   UNL     1       3.870  -1.030  26.070  0.00  0.00    -0.141 OA
ATOM      4  O   UNL     1       4.869  -2.249  28.014  0.00  0.00    -0.141 OA
ATOM      5  N   UNL     1       4.739  -3.298  25.666  0.00  0.00    -0.153 NA
ATOM      6  C   UNL     1       4.994  -4.599  26.359  0.00  0.00    +0.150 C 
ATOM      7  C   UNL     1       6.341  -4.615  27.126  0.00  0.00    +0.167 C 
ATOM      8  C   UNL     1       7.486  -3.880  26.400  0.00  0.00    +0.167 C 
ATOM      9  C   UNL     1       7.623  -2.338  26.721  0.00  0.00    +0.150 C 
ENDROOT
BRANCH   7  10
ATOM     10  O   UNL     1       6.745  -5.966  27.415  0.00  0.00    -0.387 OA
ATOM     11  H   UNL     1       6.520  -6.119  28.356  0.00  0.00    +0.210 HD
ENDBRANCH   7  10
BRANCH   8  12
ATOM     12  O   UNL     1       8.676  -4.630  26.754  0.00  0.00    -0.387 OA
ATOM     13  H   UNL     1       9.454  -4.045  26.676  0.00  0.00    +0.210 HD
ENDBRANCH   8  12
BRANCH   1  14
ATOM     14  C   UNL     1       6.692   0.029  26.516  0.00  0.00    +0.146 C 
BRANCH  14  17
ATOM     15  C   UNL     1       7.760   3.010  24.369  0.00  0.00    +0.037 A 
ATOM     16  C   UNL     1       7.508   2.201  25.489  0.00  0.00    +0.018 A 
ATOM     17  C   UNL     1       6.814   0.988  25.350  0.00  0.00    -0.031 A 
ATOM     18  C   UNL     1       6.311   0.635  24.087  0.00  0.00    +0.005 A 
ATOM     19  C   UNL     1       6.539   1.451  22.979  0.00  0.00    +0.001 A 
ATOM     20  C   UNL     1       7.267   2.633  23.115  0.00  0.00    +0.013 A 
BRANCH  15  24
ATOM     21  C   UNL     1      10.068   5.904  23.554  0.00  0.00    +0.128 C 
ATOM     22  N   UNL     1       9.329   4.668  23.503  0.00  0.00    -0.314 N 
ATOM     23  H   UNL     1       9.463   4.056  22.709  0.00  0.00    +0.149 HD
ATOM     24  C   UNL     1       8.538   4.265  24.559  0.00  0.00    +0.244 C 
ATOM     25  O   UNL     1       8.461   4.874  25.620  0.00  0.00    -0.270 OA
ENDBRANCH  15  24
ENDBRANCH  14  17
ENDBRANCH   1  14
BRANCH   5  26
ATOM     26  C   UNL     1       4.953  -3.074  24.203  0.00  0.00    +0.146 C 
BRANCH  26  27
ATOM     27  C   UNL     1       5.674  -4.164  23.444  0.00  0.00    -0.032 A 
ATOM     28  C   UNL     1       4.960  -5.023  22.591  0.00  0.00    +0.005 A 
ATOM     29  C   UNL     1       5.635  -5.922  21.764  0.00  0.00    +0.000 A 
ATOM     30  C   UNL     1       7.025  -5.998  21.809  0.00  0.00    +0.000 A 
ATOM     31  C   UNL     1       7.739  -5.201  22.704  0.00  0.00    +0.000 A 
ATOM     32  C   UNL     1       7.068  -4.296  23.529  0.00  0.00    +0.005 A 
ENDBRANCH  26  27
ENDBRANCH   5  26
BRANCH   6  33
ATOM     33  C   UNL     1       4.732  -5.827  25.473  0.00  0.00    +0.252 C 
BRANCH  33  34
ATOM     34  O   UNL     1       3.458  -6.429  25.721  0.00  0.00    -0.490 OA
BRANCH  34  35
ATOM     35  C   UNL     1       2.592  -6.305  24.668  0.00  0.00    +0.121 A 
ATOM     36  C   UNL     1       1.847  -5.156  24.397  0.00  0.00    +0.045 A 
ATOM     37  C   UNL     1       0.975  -5.124  23.308  0.00  0.00    +0.004 A 
ATOM     38  C   UNL     1       0.829  -6.249  22.502  0.00  0.00    +0.000 A 
ATOM     39  C   UNL     1       1.554  -7.408  22.786  0.00  0.00    +0.004 A 
ATOM     40  C   UNL     1       2.432  -7.434  23.870  0.00  0.00    +0.045 A 
ENDBRANCH  34  35
ENDBRANCH  33  34
ENDBRANCH   6  33
BRANCH   9  41
ATOM     41  C   UNL     1       8.991  -1.848  26.119  0.00  0.00    +0.252 C 
BRANCH  41  42
ATOM     42  O   UNL     1       9.230  -2.317  24.779  0.00  0.00    -0.490 OA
BRANCH  42  43
ATOM     43  C   UNL     1       9.536  -1.335  23.863  0.00  0.00    +0.121 A 
ATOM     44  C   UNL     1       9.246  -1.397  22.497  0.00  0.00    +0.045 A 
ATOM     45  C   UNL     1       9.532  -0.313  21.659  0.00  0.00    +0.004 A 
ATOM     46  C   UNL     1      10.128   0.834  22.177  0.00  0.00    +0.000 A 
ATOM     47  C   UNL     1      10.479   0.878  23.524  0.00  0.00    +0.004 A 
ATOM     48  C   UNL     1      10.198  -0.209  24.361  0.00  0.00    +0.045 A 
ENDBRANCH  42  43
ENDBRANCH  41  42
ENDBRANCH   9  41
TORSDOF 13
ENDMDL
MODEL 5
REMARK VINA RESULT:      -6.3      2.812      6.492
REMARK  Name = 
REMARK  14 active torsions:
REMARK  status: ('A' for Active; 'I' for Inactive)
REMARK    1  A    between atoms: C_1  and  N_2
REMARK    2  A    between atoms: C_3  and  C_5
REMARK    3  A    between atoms: C_9  and  C_10
REMARK    4  A    between atoms: C_10  and  N_11
REMARK    5  A    between atoms: C_12  and  C_14
REMARK    6  A    between atoms: C_14  and  O_15
REMARK    7  A    between atoms: O_15  and  C_16
REMARK    8  A    between atoms: C_22  and  O_24
REMARK    9  A    between atoms: C_25  and  O_27
REMARK   10  A    between atoms: C_28  and  C_30
REMARK   11  A    between atoms: C_30  and  O_31
REMARK   12  A    between atoms: O_31  and  C_32
REMARK   13  A    between atoms: N_38  and  C_39
REMARK   14  A    between atoms: C_39  and  C_40
REMARK                            x       y       z     vdW  Elec       q    Type
REMARK                         _______ _______ _______ _____ _____    ______ ____
ROOT
ATOM      1  N   UNL     1       5.845  -1.416  26.816  0.00  0.00    -0.153 NA
ATOM      2  S   UNL     1       6.750  -0.016  27.257  0.00  0.00    +0.101 S 
ATOM      3  O   UNL     1       8.144  -0.161  26.935  0.00  0.00    -0.141 OA
ATOM      4  O   UNL     1       6.343   0.355  28.594  0.00  0.00    -0.141 OA
ATOM      5  N   UNL     1       6.164   1.056  26.124  0.00  0.00    -0.153 NA
ATOM      6  C   UNL     1       5.084   1.983  26.585  0.00  0.00    +0.150 C 
ATOM      7  C   UNL     1       3.899   1.238  27.252  0.00  0.00    +0.167 C 
ATOM      8  C   UNL     1       3.542  -0.103  26.580  0.00  0.00    +0.167 C 
ATOM      9  C   UNL     1       4.308  -1.372  27.131  0.00  0.00    +0.150 C 
ENDROOT
BRANCH   7  10
ATOM     10  O   UNL     1       2.732   2.078  27.298  0.00  0.00    -0.387 OA
ATOM     11  H   UNL     1       2.871   2.691  28.049  0.00  0.00    +0.210 HD
ENDBRANCH   7  10
BRANCH   8  12
ATOM     12  O   UNL     1       2.104  -0.212  26.735  0.00  0.00    -0.387 OA
ATOM     13  H   UNL     1       1.676   0.520  26.249  0.00  0.00    +0.210 HD
ENDBRANCH   8  12
BRANCH   1  14
ATOM     14  C   UNL     1       6.486  -2.682  27.362  0.00  0.00    +0.146 C 
BRANCH  14  17
ATOM     15  C   UNL     1       9.012  -3.403  24.581  0.00  0.00    +0.037 A 
ATOM     16  C   UNL     1       8.010  -2.772  25.335  0.00  0.00    +0.018 A 
ATOM     17  C   UNL     1       7.436  -3.420  26.442  0.00  0.00    -0.031 A 
ATOM     18  C   UNL     1       7.826  -4.736  26.735  0.00  0.00    +0.005 A 
ATOM     19  C   UNL     1       8.804  -5.374  25.970  0.00  0.00    +0.001 A 
ATOM     20  C   UNL     1       9.402  -4.709  24.899  0.00  0.00    +0.013 A 
BRANCH  15  24
ATOM     21  C   UNL     1       9.233  -1.227  21.485  0.00  0.00    +0.128 C 
ATOM     22  N   UNL     1       8.749  -2.031  22.579  0.00  0.00    -0.314 N 
ATOM     23  H   UNL     1       7.754  -2.196  22.655  0.00  0.00    +0.149 HD
ATOM     24  C   UNL     1       9.621  -2.661  23.444  0.00  0.00    +0.244 C 
ATOM     25  O   UNL     1      10.839  -2.642  23.311  0.00  0.00    -0.270 OA
ENDBRANCH  15  24
ENDBRANCH  14  17
ENDBRANCH   1  14
BRANCH   5  26
ATOM     26  C   UNL     1       6.343   0.622  24.703  0.00  0.00    +0.146 C 
BRANCH  26  27
ATOM     27  C   UNL     1       7.457   1.281  23.923  0.00  0.00    -0.032 A 
ATOM     28  C   UNL     1       8.754   1.349  24.462  0.00  0.00    +0.005 A 
ATOM     29  C   UNL     1       9.819   1.805  23.686  0.00  0.00    +0.000 A 
ATOM     30  C   UNL     1       9.595   2.233  22.380  0.00  0.00    +0.000 A 
ATOM     31  C   UNL     1       8.301   2.238  21.860  0.00  0.00    +0.000 A 
ATOM     32  C   UNL     1       7.231   1.776  22.630  0.00  0.00    +0.005 A 
ENDBRANCH  26  27
ENDBRANCH   5  26
BRANCH   6  33
ATOM     33  C   UNL     1       4.686   3.032  25.534  0.00  0.00    +0.252 C 
BRANCH  33  34
ATOM     34  O   UNL     1       5.150   4.346  25.859  0.00  0.00    -0.490 OA
BRANCH  34  35
ATOM     35  C   UNL     1       6.305   4.684  25.205  0.00  0.00    +0.121 A 
ATOM     36  C   UNL     1       7.573   4.661  25.789  0.00  0.00    +0.045 A 
ATOM     37  C   UNL     1       8.695   5.037  25.050  0.00  0.00    +0.004 A 
ATOM     38  C   UNL     1       8.548   5.459  23.731  0.00  0.00    +0.000 A 
ATOM     39  C   UNL     1       7.278   5.507  23.153  0.00  0.00    +0.004 A 
ATOM     40  C   UNL     1       6.159   5.122  23.892  0.00  0.00    +0.045 A 
ENDBRANCH  34  35
ENDBRANCH  33  34
ENDBRANCH   6  33
BRANCH   9  41
ATOM     41  C   UNL     1       3.610  -2.647  26.528  0.00  0.00    +0.252 C 
BRANCH  41  42
ATOM     42  O   UNL     1       3.551  -2.642  25.089  0.00  0.00    -0.490 OA
BRANCH  42  43
ATOM     43  C   UNL     1       4.326  -3.598  24.471  0.00  0.00    +0.121 A 
ATOM     44  C   UNL     1       5.072  -3.392  23.307  0.00  0.00    +0.045 A 
ATOM     45  C   UNL     1       5.889  -4.407  22.796  0.00  0.00    +0.004 A 
ATOM     46  C   UNL     1       5.950  -5.643  23.434  0.00  0.00    +0.000 A 
ATOM     47  C   UNL     1       5.160  -5.878  24.556  0.00  0.00    +0.004 A 
ATOM     48  C   UNL     1       4.339  -4.863  25.064  0.00  0.00    +0.045 A 
ENDBRANCH  42  43
ENDBRANCH  41  42
ENDBRANCH   9  41
TORSDOF 13
ENDMDL
MODEL 6
REMARK VINA RESULT:      -6.1      1.692      2.228
REMARK  Name = 
REMARK  14 active torsions:
REMARK  status: ('A' for Active; 'I' for Inactive)
REMARK    1  A    between atoms: C_1  and  N_2
REMARK    2  A    between atoms: C_3  and  C_5
REMARK    3  A    between atoms: C_9  and  C_10
REMARK    4  A    between atoms: C_10  and  N_11
REMARK    5  A    between atoms: C_12  and  C_14
REMARK    6  A    between atoms: C_14  and  O_15
REMARK    7  A    between atoms: O_15  and  C_16
REMARK    8  A    between atoms: C_22  and  O_24
REMARK    9  A    between atoms: C_25  and  O_27
REMARK   10  A    between atoms: C_28  and  C_30
REMARK   11  A    between atoms: C_30  and  O_31
REMARK   12  A    between atoms: O_31  and  C_32
REMARK   13  A    between atoms: N_38  and  C_39
REMARK   14  A    between atoms: C_39  and  C_40
REMARK                            x       y       z     vdW  Elec       q    Type
REMARK                         _______ _______ _______ _____ _____    ______ ____
ROOT
ATOM      1  N   UNL     1       5.528  -3.729  25.939  0.00  0.00    -0.153 NA
ATOM      2  S   UNL     1       5.770  -3.115  24.346  0.00  0.00    +0.101 S 
ATOM      3  O   UNL     1       4.934  -1.975  24.082  0.00  0.00    -0.141 OA
ATOM      4  O   UNL     1       5.769  -4.247  23.445  0.00  0.00    -0.141 OA
ATOM      5  N   UNL     1       7.301  -2.483  24.526  0.00  0.00    -0.153 NA
ATOM      6  C   UNL     1       8.431  -3.335  24.040  0.00  0.00    +0.150 C 
ATOM      7  C   UNL     1       8.393  -4.771  24.625  0.00  0.00    +0.167 C 
ATOM      8  C   UNL     1       7.942  -4.837  26.098  0.00  0.00    +0.167 C 
ATOM      9  C   UNL     1       6.386  -4.982  26.334  0.00  0.00    +0.150 C 
ENDROOT
BRANCH   7  10
ATOM     10  O   UNL     1       9.674  -5.410  24.485  0.00  0.00    -0.387 OA
ATOM     11  H   UNL     1       9.757  -6.017  25.250  0.00  0.00    +0.210 HD
ENDBRANCH   7  10
BRANCH   8  12
ATOM     12  O   UNL     1       8.695  -5.946  26.655  0.00  0.00    -0.387 OA
ATOM     13  H   UNL     1       9.411  -5.593  27.216  0.00  0.00    +0.210 HD
ENDBRANCH   8  12
BRANCH   1  14
ATOM     14  C   UNL     1       4.052  -3.955  26.225  0.00  0.00    +0.146 C 
BRANCH  14  17
ATOM     15  C   UNL     1       2.769  -0.784  27.939  0.00  0.00    +0.037 A 
ATOM     16  C   UNL     1       3.506  -1.636  27.101  0.00  0.00    +0.018 A 
ATOM     17  C   UNL     1       3.401  -3.031  27.234  0.00  0.00    -0.031 A 
ATOM     18  C   UNL     1       2.608  -3.557  28.266  0.00  0.00    +0.005 A 
ATOM     19  C   UNL     1       1.895  -2.709  29.116  0.00  0.00    +0.001 A 
ATOM     20  C   UNL     1       1.969  -1.326  28.951  0.00  0.00    +0.013 A 
BRANCH  15  24
ATOM     21  C   UNL     1       3.883   2.505  26.417  0.00  0.00    +0.128 C 
ATOM     22  N   UNL     1       3.751   1.108  26.748  0.00  0.00    -0.314 N 
ATOM     23  H   UNL     1       4.370   0.444  26.303  0.00  0.00    +0.149 HD
ATOM     24  C   UNL     1       2.879   0.685  27.731  0.00  0.00    +0.244 C 
ATOM     25  O   UNL     1       2.222   1.450  28.428  0.00  0.00    -0.270 OA
ENDBRANCH  15  24
ENDBRANCH  14  17
ENDBRANCH   1  14
BRANCH   5  26
ATOM     26  C   UNL     1       7.431  -1.462  25.611  0.00  0.00    +0.146 C 
BRANCH  26  27
ATOM     27  C   UNL     1       7.364  -0.010  25.195  0.00  0.00    -0.032 A 
ATOM     28  C   UNL     1       6.865   0.340  23.929  0.00  0.00    +0.005 A 
ATOM     29  C   UNL     1       6.647   1.678  23.599  0.00  0.00    +0.000 A 
ATOM     30  C   UNL     1       6.959   2.679  24.515  0.00  0.00    +0.000 A 
ATOM     31  C   UNL     1       7.522   2.346  25.748  0.00  0.00    +0.000 A 
ATOM     32  C   UNL     1       7.737   1.008  26.085  0.00  0.00    +0.005 A 
ENDBRANCH  26  27
ENDBRANCH   5  26
BRANCH   6  33
ATOM     33  C   UNL     1       9.799  -2.638  24.111  0.00  0.00    +0.252 C 
BRANCH  33  34
ATOM     34  O   UNL     1      10.201  -2.076  22.858  0.00  0.00    -0.490 OA
BRANCH  34  35
ATOM     35  C   UNL     1      10.194  -0.707  22.857  0.00  0.00    +0.121 A 
ATOM     36  C   UNL     1       9.777   0.075  21.778  0.00  0.00    +0.045 A 
ATOM     37  C   UNL     1       9.819   1.467  21.860  0.00  0.00    +0.004 A 
ATOM     38  C   UNL     1      10.300   2.080  23.014  0.00  0.00    +0.000 A 
ATOM     39  C   UNL     1      10.741   1.300  24.085  0.00  0.00    +0.004 A 
ATOM     40  C   UNL     1      10.689  -0.092  24.003  0.00  0.00    +0.045 A 
ENDBRANCH  34  35
ENDBRANCH  33  34
ENDBRANCH   6  33
BRANCH   9  41
ATOM     41  C   UNL     1       6.164  -5.315  27.855  0.00  0.00    +0.252 C 
BRANCH  41  42
ATOM     42  O   UNL     1       5.742  -6.671  28.091  0.00  0.00    -0.490 OA
BRANCH  42  43
ATOM     43  C   UNL     1       4.432  -6.812  28.494  0.00  0.00    +0.121 A 
ATOM     44  C   UNL     1       3.350  -7.025  27.636  0.00  0.00    +0.045 A 
ATOM     45  C   UNL     1       2.064  -7.229  28.148  0.00  0.00    +0.004 A 
ATOM     46  C   UNL     1       1.847  -7.203  29.524  0.00  0.00    +0.000 A 
ATOM     47  C   UNL     1       2.908  -6.927  30.382  0.00  0.00    +0.004 A 
ATOM     48  C   UNL     1       4.194  -6.717  29.868  0.00  0.00    +0.045 A 
ENDBRANCH  42  43
ENDBRANCH  41  42
ENDBRANCH   9  41
TORSDOF 13
ENDMDL
MODEL 7
REMARK VINA RESULT:      -6.1      3.422      6.364
REMARK  Name = 
REMARK  14 active torsions:
REMARK  status: ('A' for Active; 'I' for Inactive)
REMARK    1  A    between atoms: C_1  and  N_2
REMARK    2  A    between atoms: C_3  and  C_5
REMARK    3  A    between atoms: C_9  and  C_10
REMARK    4  A    between atoms: C_10  and  N_11
REMARK    5  A    between atoms: C_12  and  C_14
REMARK    6  A    between atoms: C_14  and  O_15
REMARK    7  A    between atoms: O_15  and  C_16
REMARK    8  A    between atoms: C_22  and  O_24
REMARK    9  A    between atoms: C_25  and  O_27
REMARK   10  A    between atoms: C_28  and  C_30
REMARK   11  A    between atoms: C_30  and  O_31
REMARK   12  A    between atoms: O_31  and  C_32
REMARK   13  A    between atoms: N_38  and  C_39
REMARK   14  A    between atoms: C_39  and  C_40
REMARK                            x       y       z     vdW  Elec       q    Type
REMARK                         _______ _______ _______ _____ _____    ______ ____
ROOT
ATOM      1  N   UNL     1       7.898   0.209  23.317  0.00  0.00    -0.153 NA
ATOM      2  S   UNL     1       7.243   1.679  22.696  0.00  0.00    +0.101 S 
ATOM      3  O   UNL     1       5.806   1.682  22.742  0.00  0.00    -0.141 OA
ATOM      4  O   UNL     1       7.937   1.969  21.460  0.00  0.00    -0.141 OA
ATOM      5  N   UNL     1       7.707   2.719  23.913  0.00  0.00    -0.153 NA
ATOM      6  C   UNL     1       8.945   3.521  23.662  0.00  0.00    +0.150 C 
ATOM      7  C   UNL     1      10.153   2.644  23.245  0.00  0.00    +0.167 C 
ATOM      8  C   UNL     1      10.235   1.294  23.985  0.00  0.00    +0.167 C 
ATOM      9  C   UNL     1       9.463   0.092  23.307  0.00  0.00    +0.150 C 
ENDROOT
BRANCH   7  10
ATOM     10  O   UNL     1      11.388   3.362  23.419  0.00  0.00    -0.387 OA
ATOM     11  H   UNL     1      12.080   2.681  23.548  0.00  0.00    +0.210 HD
ENDBRANCH   7  10
BRANCH   8  12
ATOM     12  O   UNL     1      11.657   1.039  24.114  0.00  0.00    -0.387 OA
ATOM     13  H   UNL     1      11.914   1.140  25.051  0.00  0.00    +0.210 HD
ENDBRANCH   8  12
BRANCH   1  14
ATOM     14  C   UNL     1       7.248  -1.002  22.668  0.00  0.00    +0.146 C 
BRANCH  14  17
ATOM     15  C   UNL     1       4.846  -3.714  23.895  0.00  0.00    +0.037 A 
ATOM     16  C   UNL     1       5.709  -2.980  23.067  0.00  0.00    +0.018 A 
ATOM     17  C   UNL     1       6.182  -1.719  23.470  0.00  0.00    -0.031 A 
ATOM     18  C   UNL     1       5.717  -1.175  24.677  0.00  0.00    +0.005 A 
ATOM     19  C   UNL     1       4.838  -1.894  25.488  0.00  0.00    +0.001 A 
ATOM     20  C   UNL     1       4.406  -3.163  25.104  0.00  0.00    +0.013 A 
BRANCH  15  24
ATOM     21  C   UNL     1       3.229  -7.140  24.031  0.00  0.00    +0.128 C 
ATOM     22  N   UNL     1       3.758  -5.845  24.379  0.00  0.00    -0.314 N 
ATOM     23  H   UNL     1       3.719  -5.551  25.346  0.00  0.00    +0.149 HD
ATOM     24  C   UNL     1       4.406  -5.063  23.445  0.00  0.00    +0.244 C 
ATOM     25  O   UNL     1       4.638  -5.429  22.299  0.00  0.00    -0.270 OA
ENDBRANCH  15  24
ENDBRANCH  14  17
ENDBRANCH   1  14
BRANCH   5  26
ATOM     26  C   UNL     1       7.215   2.346  25.275  0.00  0.00    +0.146 C 
BRANCH  26  27
ATOM     27  C   UNL     1       6.165   3.242  25.890  0.00  0.00    -0.032 A 
ATOM     28  C   UNL     1       6.407   3.872  27.123  0.00  0.00    +0.005 A 
ATOM     29  C   UNL     1       5.517   4.826  27.617  0.00  0.00    +0.000 A 
ATOM     30  C   UNL     1       4.359   5.131  26.906  0.00  0.00    +0.000 A 
ATOM     31  C   UNL     1       4.073   4.459  25.718  0.00  0.00    +0.000 A 
ATOM     32  C   UNL     1       4.964   3.508  25.215  0.00  0.00    +0.005 A 
ENDBRANCH  26  27
ENDBRANCH   5  26
BRANCH   6  33
ATOM     33  C   UNL     1       9.239   4.555  24.761  0.00  0.00    +0.252 C 
BRANCH  33  34
ATOM     34  O   UNL     1       9.275   5.897  24.265  0.00  0.00    -0.490 OA
BRANCH  34  35
ATOM     35  C   UNL     1       8.070   6.318  23.768  0.00  0.00    +0.121 A 
ATOM     36  C   UNL     1       6.968   6.650  24.560  0.00  0.00    +0.045 A 
ATOM     37  C   UNL     1       5.773   7.056  23.967  0.00  0.00    +0.004 A 
ATOM     38  C   UNL     1       5.669   7.108  22.579  0.00  0.00    +0.000 A 
ATOM     39  C   UNL     1       6.761   6.753  21.785  0.00  0.00    +0.004 A 
ATOM     40  C   UNL     1       7.958   6.356  22.381  0.00  0.00    +0.045 A 
ENDBRANCH  34  35
ENDBRANCH  33  34
ENDBRANCH   6  33
BRANCH   9  41
ATOM     41  C   UNL     1       9.897  -1.228  24.045  0.00  0.00    +0.252 C 
BRANCH  41  42
ATOM     42  O   UNL     1       9.250  -1.412  25.319  0.00  0.00    -0.490 OA
BRANCH  42  43
ATOM     43  C   UNL     1       8.770  -2.682  25.550  0.00  0.00    +0.121 A 
ATOM     44  C   UNL     1       8.066  -3.075  26.691  0.00  0.00    +0.045 A 
ATOM     45  C   UNL     1       7.554  -4.373  26.800  0.00  0.00    +0.004 A 
ATOM     46  C   UNL     1       7.760  -5.295  25.777  0.00  0.00    +0.000 A 
ATOM     47  C   UNL     1       8.517  -4.931  24.666  0.00  0.00    +0.004 A 
ATOM     48  C   UNL     1       9.033  -3.634  24.560  0.00  0.00    +0.045 A 
ENDBRANCH  42  43
ENDBRANCH  41  42
ENDBRANCH   9  41
TORSDOF 13
ENDMDL
MODEL 8
REMARK VINA RESULT:      -6.0      3.339      5.968
REMARK  Name = 
REMARK  14 active torsions:
REMARK  status: ('A' for Active; 'I' for Inactive)
REMARK    1  A    between atoms: C_1  and  N_2
REMARK    2  A    between atoms: C_3  and  C_5
REMARK    3  A    between atoms: C_9  and  C_10
REMARK    4  A    between atoms: C_10  and  N_11
REMARK    5  A    between atoms: C_12  and  C_14
REMARK    6  A    between atoms: C_14  and  O_15
REMARK    7  A    between atoms: O_15  and  C_16
REMARK    8  A    between atoms: C_22  and  O_24
REMARK    9  A    between atoms: C_25  and  O_27
REMARK   10  A    between atoms: C_28  and  C_30
REMARK   11  A    between atoms: C_30  and  O_31
REMARK   12  A    between atoms: O_31  and  C_32
REMARK   13  A    between atoms: N_38  and  C_39
REMARK   14  A    between atoms: C_39  and  C_40
REMARK                            x       y       z     vdW  Elec       q    Type
REMARK                         _______ _______ _______ _____ _____    ______ ____
ROOT
ATOM      1  N   UNL     1       8.102  -0.161  22.976  0.00  0.00    -0.153 NA
ATOM      2  S   UNL     1       7.422   1.294  22.349  0.00  0.00    +0.101 S 
ATOM      3  O   UNL     1       5.999   1.186  22.178  0.00  0.00    -0.141 OA
ATOM      4  O   UNL     1       8.261   1.721  21.251  0.00  0.00    -0.141 OA
ATOM      5  N   UNL     1       7.614   2.280  23.680  0.00  0.00    -0.153 NA
ATOM      6  C   UNL     1       8.802   3.188  23.665  0.00  0.00    +0.150 C 
ATOM      7  C   UNL     1      10.128   2.435  23.385  0.00  0.00    +0.167 C 
ATOM      8  C   UNL     1      10.215   1.047  24.051  0.00  0.00    +0.167 C 
ATOM      9  C   UNL     1       9.656  -0.159  23.196  0.00  0.00    +0.150 C 
ENDROOT
BRANCH   7  10
ATOM     10  O   UNL     1      11.258   3.231  23.786  0.00  0.00    -0.387 OA
ATOM     11  H   UNL     1      10.900   3.937  24.362  0.00  0.00    +0.210 HD
ENDBRANCH   7  10
BRANCH   8  12
ATOM     12  O   UNL     1      11.620   0.892  24.378  0.00  0.00    -0.387 OA
ATOM     13  H   UNL     1      11.899   1.639  24.943  0.00  0.00    +0.210 HD
ENDBRANCH   8  12
BRANCH   1  14
ATOM     14  C   UNL     1       7.658  -1.370  22.168  0.00  0.00    +0.146 C 
BRANCH  14  17
ATOM     15  C   UNL     1       4.915  -2.710  24.474  0.00  0.00    +0.037 A 
ATOM     16  C   UNL     1       5.947  -1.907  23.964  0.00  0.00    +0.018 A 
ATOM     17  C   UNL     1       6.667  -2.308  22.825  0.00  0.00    -0.031 A 
ATOM     18  C   UNL     1       6.388  -3.559  22.253  0.00  0.00    +0.005 A 
ATOM     19  C   UNL     1       5.379  -4.370  22.775  0.00  0.00    +0.001 A 
ATOM     20  C   UNL     1       4.639  -3.946  23.879  0.00  0.00    +0.013 A 
BRANCH  15  24
ATOM     21  C   UNL     1       4.164  -0.810  27.667  0.00  0.00    +0.128 C 
ATOM     22  N   UNL     1       4.828  -1.394  26.528  0.00  0.00    -0.314 N 
ATOM     23  H   UNL     1       5.824  -1.254  26.424  0.00  0.00    +0.149 HD
ATOM     24  C   UNL     1       4.153  -2.223  25.655  0.00  0.00    +0.244 C 
ATOM     25  O   UNL     1       2.989  -2.572  25.816  0.00  0.00    -0.270 OA
ENDBRANCH  15  24
ENDBRANCH  14  17
ENDBRANCH   1  14
BRANCH   5  26
ATOM     26  C   UNL     1       6.961   1.776  24.928  0.00  0.00    +0.146 C 
BRANCH  26  27
ATOM     27  C   UNL     1       5.764   2.550  25.432  0.00  0.00    -0.032 A 
ATOM     28  C   UNL     1       5.788   3.136  26.710  0.00  0.00    +0.005 A 
ATOM     29  C   UNL     1       4.759   3.986  27.118  0.00  0.00    +0.000 A 
ATOM     30  C   UNL     1       3.681   4.229  26.271  0.00  0.00    +0.000 A 
ATOM     31  C   UNL     1       3.613   3.596  25.030  0.00  0.00    +0.000 A 
ATOM     32  C   UNL     1       4.643   2.749  24.614  0.00  0.00    +0.005 A 
ENDBRANCH  26  27
ENDBRANCH   5  26
BRANCH   6  33
ATOM     33  C   UNL     1       8.843   4.163  24.853  0.00  0.00    +0.252 C 
BRANCH  33  34
ATOM     34  O   UNL     1       8.971   5.528  24.446  0.00  0.00    -0.490 OA
BRANCH  34  35
ATOM     35  C   UNL     1       7.829   6.027  23.877  0.00  0.00    +0.121 A 
ATOM     36  C   UNL     1       6.590   6.077  24.519  0.00  0.00    +0.045 A 
ATOM     37  C   UNL     1       5.475   6.589  23.856  0.00  0.00    +0.004 A 
ATOM     38  C   UNL     1       5.591   7.031  22.541  0.00  0.00    +0.000 A 
ATOM     39  C   UNL     1       6.824   6.959  21.889  0.00  0.00    +0.004 A 
ATOM     40  C   UNL     1       7.939   6.455  22.557  0.00  0.00    +0.045 A 
ENDBRANCH  34  35
ENDBRANCH  33  34
ENDBRANCH   6  33
BRANCH   9  41
ATOM     41  C   UNL     1      10.088  -1.491  23.914  0.00  0.00    +0.252 C 
BRANCH  41  42
ATOM     42  O   UNL     1       9.588  -1.605  25.260  0.00  0.00    -0.490 OA
BRANCH  42  43
ATOM     43  C   UNL     1       8.952  -2.793  25.547  0.00  0.00    +0.121 A 
ATOM     44  C   UNL     1       8.029  -2.976  26.580  0.00  0.00    +0.045 A 
ATOM     45  C   UNL     1       7.380  -4.205  26.745  0.00  0.00    +0.004 A 
ATOM     46  C   UNL     1       7.663  -5.266  25.889  0.00  0.00    +0.000 A 
ATOM     47  C   UNL     1       8.629  -5.112  24.898  0.00  0.00    +0.004 A 
ATOM     48  C   UNL     1       9.282  -3.883  24.737  0.00  0.00    +0.045 A 
ENDBRANCH  42  43
ENDBRANCH  41  42
ENDBRANCH   9  41
TORSDOF 13
ENDMDL
MODEL 9
REMARK VINA RESULT:      -5.9      2.387      4.133
REMARK  Name = 
REMARK  14 active torsions:
REMARK  status: ('A' for Active; 'I' for Inactive)
REMARK    1  A    between atoms: C_1  and  N_2
REMARK    2  A    between atoms: C_3  and  C_5
REMARK    3  A    between atoms: C_9  and  C_10
REMARK    4  A    between atoms: C_10  and  N_11
REMARK    5  A    between atoms: C_12  and  C_14
REMARK    6  A    between atoms: C_14  and  O_15
REMARK    7  A    between atoms: O_15  and  C_16
REMARK    8  A    between atoms: C_22  and  O_24
REMARK    9  A    between atoms: C_25  and  O_27
REMARK   10  A    between atoms: C_28  and  C_30
REMARK   11  A    between atoms: C_30  and  O_31
REMARK   12  A    between atoms: O_31  and  C_32
REMARK   13  A    between atoms: N_38  and  C_39
REMARK   14  A    between atoms: C_39  and  C_40
REMARK                            x       y       z     vdW  Elec       q    Type
REMARK                         _______ _______ _______ _____ _____    ______ ____
ROOT
ATOM      1  N   UNL     1       7.375  -2.708  24.262  0.00  0.00    -0.153 NA
ATOM      2  S   UNL     1       8.246  -2.276  22.838  0.00  0.00    +0.101 S 
ATOM      3  O   UNL     1       7.501  -2.578  21.646  0.00  0.00    -0.141 OA
ATOM      4  O   UNL     1       9.599  -2.762  22.998  0.00  0.00    -0.141 OA
ATOM      5  N   UNL     1       8.177  -0.616  22.970  0.00  0.00    -0.153 NA
ATOM      6  C   UNL     1       9.385   0.054  23.545  0.00  0.00    +0.150 C 
ATOM      7  C   UNL     1       9.818  -0.554  24.904  0.00  0.00    +0.167 C 
ATOM      8  C   UNL     1       8.641  -0.956  25.815  0.00  0.00    +0.167 C 
ATOM      9  C   UNL     1       8.099  -2.429  25.626  0.00  0.00    +0.150 C 
ENDROOT
BRANCH   7  10
ATOM     10  O   UNL     1      10.686   0.350  25.611  0.00  0.00    -0.387 OA
ATOM     11  H   UNL     1      10.159   0.699  26.360  0.00  0.00    +0.210 HD
ENDBRANCH   7  10
BRANCH   8  12
ATOM     12  O   UNL     1       9.126  -0.710  27.160  0.00  0.00    -0.387 OA
ATOM     13  H   UNL     1       9.193   0.254  27.302  0.00  0.00    +0.210 HD
ENDBRANCH   8  12
BRANCH   1  14
ATOM     14  C   UNL     1       6.869  -4.140  24.186  0.00  0.00    +0.146 C 
BRANCH  14  17
ATOM     15  C   UNL     1       3.443  -5.835  24.338  0.00  0.00    +0.037 A 
ATOM     16  C   UNL     1       4.806  -5.614  24.085  0.00  0.00    +0.018 A 
ATOM     17  C   UNL     1       5.372  -4.343  24.286  0.00  0.00    -0.031 A 
ATOM     18  C   UNL     1       4.536  -3.282  24.669  0.00  0.00    +0.005 A 
ATOM     19  C   UNL     1       3.176  -3.496  24.896  0.00  0.00    +0.001 A 
ATOM     20  C   UNL     1       2.629  -4.769  24.737  0.00  0.00    +0.013 A 
BRANCH  15  24
ATOM     21  C   UNL     1       1.232  -8.621  23.028  0.00  0.00    +0.128 C 
ATOM     22  N   UNL     1       1.797  -7.330  23.332  0.00  0.00    -0.314 N 
ATOM     23  H   UNL     1       1.320  -6.503  22.999  0.00  0.00    +0.149 HD
ATOM     24  C   UNL     1       2.899  -7.208  24.153  0.00  0.00    +0.244 C 
ATOM     25  O   UNL     1       3.425  -8.154  24.727  0.00  0.00    -0.270 OA
ENDBRANCH  15  24
ENDBRANCH  14  17
ENDBRANCH   1  14
BRANCH   5  26
ATOM     26  C   UNL     1       6.794  -0.053  23.047  0.00  0.00    +0.146 C 
BRANCH  26  27
ATOM     27  C   UNL     1       6.670   1.453  23.081  0.00  0.00    -0.032 A 
ATOM     28  C   UNL     1       6.948   2.212  21.931  0.00  0.00    +0.005 A 
ATOM     29  C   UNL     1       6.680   3.581  21.905  0.00  0.00    +0.000 A 
ATOM     30  C   UNL     1       6.167   4.211  23.036  0.00  0.00    +0.000 A 
ATOM     31  C   UNL     1       5.955   3.481  24.205  0.00  0.00    +0.000 A 
ATOM     32  C   UNL     1       6.216   2.109  24.235  0.00  0.00    +0.005 A 
ENDBRANCH  26  27
ENDBRANCH   5  26
BRANCH   6  33
ATOM     33  C   UNL     1       9.310   1.589  23.511  0.00  0.00    +0.252 C 
BRANCH  33  34
ATOM     34  O   UNL     1      10.584   2.203  23.294  0.00  0.00    -0.490 OA
BRANCH  34  35
ATOM     35  C   UNL     1      10.601   3.532  23.622  0.00  0.00    +0.121 A 
ATOM     36  C   UNL     1       9.521   4.216  24.182  0.00  0.00    +0.045 A 
ATOM     37  C   UNL     1       9.623   5.578  24.469  0.00  0.00    +0.004 A 
ATOM     38  C   UNL     1      10.799   6.263  24.175  0.00  0.00    +0.000 A 
ATOM     39  C   UNL     1      11.872   5.587  23.592  0.00  0.00    +0.004 A 
ATOM     40  C   UNL     1      11.770   4.223  23.314  0.00  0.00    +0.045 A 
ENDBRANCH  34  35
ENDBRANCH  33  34
ENDBRANCH   6  33
BRANCH   9  41
ATOM     41  C   UNL     1       7.115  -2.730  26.816  0.00  0.00    +0.252 C 
BRANCH  41  42
ATOM     42  O   UNL     1       7.334  -4.014  27.431  0.00  0.00    -0.490 OA
BRANCH  42  43
ATOM     43  C   UNL     1       6.197  -4.763  27.636  0.00  0.00    +0.121 A 
ATOM     44  C   UNL     1       6.090  -6.136  27.399  0.00  0.00    +0.045 A 
ATOM     45  C   UNL     1       4.911  -6.823  27.709  0.00  0.00    +0.004 A 
ATOM     46  C   UNL     1       3.822  -6.138  28.241  0.00  0.00    +0.000 A 
ATOM     47  C   UNL     1       3.897  -4.759  28.420  0.00  0.00    +0.004 A 
ATOM     48  C   UNL     1       5.076  -4.072  28.104  0.00  0.00    +0.045 A 
ENDBRANCH  42  43
ENDBRANCH  41  42
ENDBRANCH   9  41
TORSDOF 13
ENDMDL
