MODEL 1
REMARK VINA RESULT:      -5.9      0.000      0.000
REMARK  Name = 
REMARK  9 active torsions:
REMARK  status: ('A' for Active; 'I' for Inactive)
REMARK    1  A    between atoms: C_1  and  C_2
REMARK    2  A    between atoms: C_4  and  C_16
REMARK    3  A    between atoms: C_5  and  O_6
REMARK    4  A    between atoms: C_7  and  C_8
REMARK    5  A    between atoms: C_9  and  C_10
REMARK    6  A    between atoms: C_10  and  C_11
REMARK    7  A    between atoms: C_16  and  C_17
REMARK    8  A    between atoms: C_16  and  C_18
REMARK    9  A    between atoms: C_16  and  C_19
REMARK                            x       y       z     vdW  Elec       q    Type
REMARK                         _______ _______ _______ _____ _____    ______ ____
ROOT
ATOM      1  C   UNL     1       9.049  -0.753  26.479  0.00  0.00    +0.044 C 
ATOM      2  C   UNL     1       9.228  -0.097  25.137  0.00  0.00    -0.046 A 
ATOM      3  C   UNL     1       9.526  -0.821  23.964  0.00  0.00    -0.027 A 
ATOM      4  C   UNL     1       9.634  -0.106  22.741  0.00  0.00    -0.005 A 
ATOM      5  C   UNL     1       9.984  -0.831  21.466  0.00  0.00    +0.048 C 
ATOM      6  C   UNL     1       9.383   1.296  22.718  0.00  0.00    +0.124 A 
ATOM      7  C   UNL     1       9.036   2.033  23.864  0.00  0.00    -0.000 A 
ATOM      8  C   UNL     1       9.009   1.295  25.062  0.00  0.00    +0.011 A 
ENDROOT
BRANCH   7   9
ATOM      9  C   UNL     1       8.732   3.553  23.926  0.00  0.00    -0.009 C 
ATOM     10  C   UNL     1       8.137   3.988  25.298  0.00  0.00    +0.015 C 
ATOM     11  C   UNL     1       7.712   4.073  22.884  0.00  0.00    +0.015 C 
ATOM     12  C   UNL     1      10.067   4.302  23.738  0.00  0.00    +0.015 C 
ENDBRANCH   7   9
BRANCH   6  13
ATOM     13  O   UNL     1       9.510   1.900  21.496  0.00  0.00    -0.506 OA
ATOM     14  H   UNL     1      10.261   1.482  21.047  0.00  0.00    +0.292 HD
ENDBRANCH   6  13
BRANCH   3  15
ATOM     15  C   UNL     1       9.639  -2.338  24.007  0.00  0.00    +0.163 C 
BRANCH  15  16
ATOM     16  C   UNL     1       8.391  -3.154  23.740  0.00  0.00    +0.285 C 
ATOM     17  N   UNL     1       7.144  -2.613  23.568  0.00  0.00    -0.233 N 
ATOM     18  H   UNL     1       7.065  -1.788  22.985  0.00  0.00    +0.291 HD
ATOM     19  C   UNL     1       6.180  -3.678  23.420  0.00  0.00    +0.273 C 
ATOM     20  C   UNL     1       7.066  -4.925  23.486  0.00  0.00    +0.333 C 
ATOM     21  N   UNL     1       8.453  -4.462  23.759  0.00  0.00    -0.084 NA
ENDBRANCH  15  16
ENDBRANCH   3  15
TORSDOF 4
ENDMDL
MODEL 2
REMARK VINA RESULT:      -5.8      2.780      6.306
REMARK  Name = 
REMARK  9 active torsions:
REMARK  status: ('A' for Active; 'I' for Inactive)
REMARK    1  A    between atoms: C_1  and  C_2
REMARK    2  A    between atoms: C_4  and  C_16
REMARK    3  A    between atoms: C_5  and  O_6
REMARK    4  A    between atoms: C_7  and  C_8
REMARK    5  A    between atoms: C_9  and  C_10
REMARK    6  A    between atoms: C_10  and  C_11
REMARK    7  A    between atoms: C_16  and  C_17
REMARK    8  A    between atoms: C_16  and  C_18
REMARK    9  A    between atoms: C_16  and  C_19
REMARK                            x       y       z     vdW  Elec       q    Type
REMARK                         _______ _______ _______ _____ _____    ______ ____
ROOT
ATOM      1  C   UNL     1       9.899  -0.797  21.961  0.00  0.00    +0.044 C 
ATOM      2  C   UNL     1       9.170  -1.350  23.156  0.00  0.00    -0.046 A 
ATOM      3  C   UNL     1       9.370  -0.867  24.466  0.00  0.00    -0.027 A 
ATOM      4  C   UNL     1       8.600  -1.433  25.517  0.00  0.00    -0.005 A 
ATOM      5  C   UNL     1       8.802  -0.974  26.939  0.00  0.00    +0.048 C 
ATOM      6  C   UNL     1       7.615  -2.420  25.219  0.00  0.00    +0.124 A 
ATOM      7  C   UNL     1       7.363  -2.882  23.916  0.00  0.00    -0.000 A 
ATOM      8  C   UNL     1       8.197  -2.343  22.918  0.00  0.00    +0.011 A 
ENDROOT
BRANCH   7   9
ATOM      9  C   UNL     1       6.304  -3.937  23.501  0.00  0.00    -0.009 C 
ATOM     10  C   UNL     1       4.846  -3.452  23.751  0.00  0.00    +0.015 C 
ATOM     11  C   UNL     1       6.388  -5.294  24.243  0.00  0.00    +0.015 C 
ATOM     12  C   UNL     1       6.461  -4.184  21.986  0.00  0.00    +0.015 C 
ENDBRANCH   7   9
BRANCH   6  13
ATOM     13  O   UNL     1       6.922  -2.907  26.294  0.00  0.00    -0.506 OA
ATOM     14  H   UNL     1       7.404  -2.635  27.091  0.00  0.00    +0.292 HD
ENDBRANCH   6  13
BRANCH   3  15
ATOM     15  C   UNL     1      10.325   0.291  24.719  0.00  0.00    +0.163 C 
BRANCH  15  16
ATOM     16  C   UNL     1       9.796   1.701  24.553  0.00  0.00    +0.285 C 
ATOM     17  N   UNL     1       8.695   2.188  25.208  0.00  0.00    -0.233 N 
ATOM     18  H   UNL     1       8.600   1.972  26.193  0.00  0.00    +0.291 HD
ATOM     19  C   UNL     1       8.426   3.531  24.751  0.00  0.00    +0.273 C 
ATOM     20  C   UNL     1       9.569   3.769  23.761  0.00  0.00    +0.333 C 
ATOM     21  N   UNL     1      10.341   2.500  23.670  0.00  0.00    -0.084 NA
ENDBRANCH  15  16
ENDBRANCH   3  15
TORSDOF 4
ENDMDL
MODEL 3
REMARK VINA RESULT:      -5.7      2.545      5.969
REMARK  Name = 
REMARK  9 active torsions:
REMARK  status: ('A' for Active; 'I' for Inactive)
REMARK    1  A    between atoms: C_1  and  C_2
REMARK    2  A    between atoms: C_4  and  C_16
REMARK    3  A    between atoms: C_5  and  O_6
REMARK    4  A    between atoms: C_7  and  C_8
REMARK    5  A    between atoms: C_9  and  C_10
REMARK    6  A    between atoms: C_10  and  C_11
REMARK    7  A    between atoms: C_16  and  C_17
REMARK    8  A    between atoms: C_16  and  C_18
REMARK    9  A    between atoms: C_16  and  C_19
REMARK                            x       y       z     vdW  Elec       q    Type
REMARK                         _______ _______ _______ _____ _____    ______ ____
ROOT
ATOM      1  C   UNL     1       8.824  -0.781  26.983  0.00  0.00    +0.044 C 
ATOM      2  C   UNL     1       8.562  -1.265  25.582  0.00  0.00    -0.046 A 
ATOM      3  C   UNL     1       9.248  -0.763  24.458  0.00  0.00    -0.027 A 
ATOM      4  C   UNL     1       8.952  -1.320  23.185  0.00  0.00    -0.005 A 
ATOM      5  C   UNL     1       9.635  -0.793  21.948  0.00  0.00    +0.048 C 
ATOM      6  C   UNL     1       8.026  -2.398  23.084  0.00  0.00    +0.124 A 
ATOM      7  C   UNL     1       7.366  -2.950  24.195  0.00  0.00    -0.000 A 
ATOM      8  C   UNL     1       7.639  -2.320  25.425  0.00  0.00    +0.011 A 
ENDROOT
BRANCH   7   9
ATOM      9  C   UNL     1       6.358  -4.129  24.178  0.00  0.00    -0.009 C 
ATOM     10  C   UNL     1       6.096  -4.712  25.598  0.00  0.00    +0.015 C 
ATOM     11  C   UNL     1       6.781  -5.355  23.333  0.00  0.00    +0.015 C 
ATOM     12  C   UNL     1       5.018  -3.588  23.640  0.00  0.00    +0.015 C 
ENDBRANCH   7   9
BRANCH   6  13
ATOM     13  O   UNL     1       7.804  -2.870  21.818  0.00  0.00    -0.506 OA
ATOM     14  H   UNL     1       8.365  -2.354  21.218  0.00  0.00    +0.292 HD
ENDBRANCH   6  13
BRANCH   3  15
ATOM     15  C   UNL     1      10.337   0.286  24.629  0.00  0.00    +0.163 C 
BRANCH  15  16
ATOM     16  C   UNL     1       9.956   1.743  24.465  0.00  0.00    +0.285 C 
ATOM     17  N   UNL     1       8.872   2.324  25.070  0.00  0.00    -0.233 N 
ATOM     18  H   UNL     1       8.701   2.102  26.044  0.00  0.00    +0.291 HD
ATOM     19  C   UNL     1       8.760   3.694  24.629  0.00  0.00    +0.273 C 
ATOM     20  C   UNL     1       9.974   3.836  23.707  0.00  0.00    +0.333 C 
ATOM     21  N   UNL     1      10.624   2.500  23.631  0.00  0.00    -0.084 NA
ENDBRANCH  15  16
ENDBRANCH   3  15
TORSDOF 4
ENDMDL
MODEL 4
REMARK VINA RESULT:      -5.6      2.834      4.248
REMARK  Name = 
REMARK  9 active torsions:
REMARK  status: ('A' for Active; 'I' for Inactive)
REMARK    1  A    between atoms: C_1  and  C_2
REMARK    2  A    between atoms: C_4  and  C_16
REMARK    3  A    between atoms: C_5  and  O_6
REMARK    4  A    between atoms: C_7  and  C_8
REMARK    5  A    between atoms: C_9  and  C_10
REMARK    6  A    between atoms: C_10  and  C_11
REMARK    7  A    between atoms: C_16  and  C_17
REMARK    8  A    between atoms: C_16  and  C_18
REMARK    9  A    between atoms: C_16  and  C_19
REMARK                            x       y       z     vdW  Elec       q    Type
REMARK                         _______ _______ _______ _____ _____    ______ ____
ROOT
ATOM      1  C   UNL     1       5.911  -2.105  26.927  0.00  0.00    +0.044 C 
ATOM      2  C   UNL     1       7.152  -2.368  26.117  0.00  0.00    -0.046 A 
ATOM      3  C   UNL     1       7.786  -3.627  26.075  0.00  0.00    -0.027 A 
ATOM      4  C   UNL     1       8.930  -3.777  25.245  0.00  0.00    -0.005 A 
ATOM      5  C   UNL     1       9.663  -5.094  25.192  0.00  0.00    +0.048 C 
ATOM      6  C   UNL     1       9.367  -2.685  24.441  0.00  0.00    +0.124 A 
ATOM      7  C   UNL     1       8.723  -1.436  24.427  0.00  0.00    -0.000 A 
ATOM      8  C   UNL     1       7.638  -1.313  25.316  0.00  0.00    +0.011 A 
ENDROOT
BRANCH   7   9
ATOM      9  C   UNL     1       9.121  -0.202  23.575  0.00  0.00    -0.009 C 
ATOM     10  C   UNL     1       9.256  -0.540  22.061  0.00  0.00    +0.015 C 
ATOM     11  C   UNL     1      10.473   0.455  23.943  0.00  0.00    +0.015 C 
ATOM     12  C   UNL     1       7.998   0.846  23.721  0.00  0.00    +0.015 C 
ENDBRANCH   7   9
BRANCH   6  13
ATOM     13  O   UNL     1      10.476  -2.922  23.674  0.00  0.00    -0.506 OA
ATOM     14  H   UNL     1      10.552  -2.186  23.047  0.00  0.00    +0.292 HD
ENDBRANCH   6  13
BRANCH   3  15
ATOM     15  C   UNL     1       7.199  -4.807  26.834  0.00  0.00    +0.163 C 
BRANCH  15  16
ATOM     16  C   UNL     1       6.154  -5.655  26.138  0.00  0.00    +0.285 C 
ATOM     17  N   UNL     1       5.802  -5.508  24.821  0.00  0.00    -0.233 N 
ATOM     18  H   UNL     1       6.546  -5.378  24.147  0.00  0.00    +0.291 HD
ATOM     19  C   UNL     1       4.722  -6.416  24.515  0.00  0.00    +0.273 C 
ATOM     20  C   UNL     1       4.529  -7.149  25.845  0.00  0.00    +0.333 C 
ATOM     21  N   UNL     1       5.459  -6.527  26.826  0.00  0.00    -0.084 NA
ENDBRANCH  15  16
ENDBRANCH   3  15
TORSDOF 4
ENDMDL
MODEL 5
REMARK VINA RESULT:      -5.6      3.678      7.710
REMARK  Name = 
REMARK  9 active torsions:
REMARK  status: ('A' for Active; 'I' for Inactive)
REMARK    1  A    between atoms: C_1  and  C_2
REMARK    2  A    between atoms: C_4  and  C_16
REMARK    3  A    between atoms: C_5  and  O_6
REMARK    4  A    between atoms: C_7  and  C_8
REMARK    5  A    between atoms: C_9  and  C_10
REMARK    6  A    between atoms: C_10  and  C_11
REMARK    7  A    between atoms: C_16  and  C_17
REMARK    8  A    between atoms: C_16  and  C_18
REMARK    9  A    between atoms: C_16  and  C_19
REMARK                            x       y       z     vdW  Elec       q    Type
REMARK                         _______ _______ _______ _____ _____    ______ ____
ROOT
ATOM      1  C   UNL     1       7.160  -5.058  27.210  0.00  0.00    +0.044 C 
ATOM      2  C   UNL     1       6.485  -5.254  25.878  0.00  0.00    -0.046 A 
ATOM      3  C   UNL     1       7.161  -5.116  24.649  0.00  0.00    -0.027 A 
ATOM      4  C   UNL     1       6.438  -5.363  23.452  0.00  0.00    -0.005 A 
ATOM      5  C   UNL     1       7.108  -5.196  22.111  0.00  0.00    +0.048 C 
ATOM      6  C   UNL     1       5.082  -5.797  23.522  0.00  0.00    +0.124 A 
ATOM      7  C   UNL     1       4.400  -5.990  24.736  0.00  0.00    -0.000 A 
ATOM      8  C   UNL     1       5.135  -5.666  25.892  0.00  0.00    +0.011 A 
ENDROOT
BRANCH   7   9
ATOM      9  C   UNL     1       2.935  -6.472  24.904  0.00  0.00    -0.009 C 
ATOM     10  C   UNL     1       2.707  -7.903  24.334  0.00  0.00    +0.015 C 
ATOM     11  C   UNL     1       1.863  -5.604  24.201  0.00  0.00    +0.015 C 
ATOM     12  C   UNL     1       2.631  -6.517  26.416  0.00  0.00    +0.015 C 
ENDBRANCH   7   9
BRANCH   6  13
ATOM     13  O   UNL     1       4.467  -6.011  22.318  0.00  0.00    -0.506 OA
ATOM     14  H   UNL     1       5.165  -6.162  21.663  0.00  0.00    +0.292 HD
ENDBRANCH   6  13
BRANCH   3  15
ATOM     15  C   UNL     1       8.649  -4.797  24.624  0.00  0.00    +0.163 C 
BRANCH  15  16
ATOM     16  C   UNL     1       9.064  -3.342  24.548  0.00  0.00    +0.285 C 
ATOM     17  N   UNL     1       8.568  -2.360  25.365  0.00  0.00    -0.233 N 
ATOM     18  H   UNL     1       8.476  -2.570  26.351  0.00  0.00    +0.291 HD
ATOM     19  C   UNL     1       9.114  -1.085  24.961  0.00  0.00    +0.273 C 
ATOM     20  C   UNL     1      10.043  -1.483  23.812  0.00  0.00    +0.333 C 
ATOM     21  N   UNL     1       9.874  -2.945  23.598  0.00  0.00    -0.084 NA
ENDBRANCH  15  16
ENDBRANCH   3  15
TORSDOF 4
ENDMDL
MODEL 6
REMARK VINA RESULT:      -5.5      3.709      7.271
REMARK  Name = 
REMARK  9 active torsions:
REMARK  status: ('A' for Active; 'I' for Inactive)
REMARK    1  A    between atoms: C_1  and  C_2
REMARK    2  A    between atoms: C_4  and  C_16
REMARK    3  A    between atoms: C_5  and  O_6
REMARK    4  A    between atoms: C_7  and  C_8
REMARK    5  A    between atoms: C_9  and  C_10
REMARK    6  A    between atoms: C_10  and  C_11
REMARK    7  A    between atoms: C_16  and  C_17
REMARK    8  A    between atoms: C_16  and  C_18
REMARK    9  A    between atoms: C_16  and  C_19
REMARK                            x       y       z     vdW  Elec       q    Type
REMARK                         _______ _______ _______ _____ _____    ______ ____
ROOT
ATOM      1  C   UNL     1       5.316  -3.491  23.060  0.00  0.00    +0.044 C 
ATOM      2  C   UNL     1       6.066  -4.149  24.187  0.00  0.00    -0.046 A 
ATOM      3  C   UNL     1       7.473  -4.240  24.221  0.00  0.00    -0.027 A 
ATOM      4  C   UNL     1       8.081  -4.847  25.353  0.00  0.00    -0.005 A 
ATOM      5  C   UNL     1       9.580  -4.997  25.421  0.00  0.00    +0.048 C 
ATOM      6  C   UNL     1       7.270  -5.289  26.438  0.00  0.00    +0.124 A 
ATOM      7  C   UNL     1       5.870  -5.165  26.450  0.00  0.00    -0.000 A 
ATOM      8  C   UNL     1       5.308  -4.622  25.279  0.00  0.00    +0.011 A 
ENDROOT
BRANCH   7   9
ATOM      9  C   UNL     1       4.915  -5.604  27.591  0.00  0.00    -0.009 C 
ATOM     10  C   UNL     1       5.226  -4.889  28.940  0.00  0.00    +0.015 C 
ATOM     11  C   UNL     1       4.943  -7.112  27.942  0.00  0.00    +0.015 C 
ATOM     12  C   UNL     1       3.482  -5.213  27.175  0.00  0.00    +0.015 C 
ENDBRANCH   7   9
BRANCH   6  13
ATOM     13  O   UNL     1       7.943  -5.859  27.485  0.00  0.00    -0.506 OA
ATOM     14  H   UNL     1       8.769  -5.364  27.598  0.00  0.00    +0.292 HD
ENDBRANCH   6  13
BRANCH   3  15
ATOM     15  C   UNL     1       8.308  -3.622  23.110  0.00  0.00    +0.163 C 
BRANCH  15  16
ATOM     16  C   UNL     1       8.834  -2.215  23.312  0.00  0.00    +0.285 C 
ATOM     17  N   UNL     1       8.104  -1.197  23.867  0.00  0.00    -0.233 N 
ATOM     18  H   UNL     1       7.555  -1.407  24.692  0.00  0.00    +0.291 HD
ATOM     19  C   UNL     1       8.880   0.020  23.827  0.00  0.00    +0.273 C 
ATOM     20  C   UNL     1      10.195  -0.456  23.203  0.00  0.00    +0.333 C 
ATOM     21  N   UNL     1      10.019  -1.892  22.856  0.00  0.00    -0.084 NA
ENDBRANCH  15  16
ENDBRANCH   3  15
TORSDOF 4
ENDMDL
MODEL 7
REMARK VINA RESULT:      -5.4      1.360      1.909
REMARK  Name = 
REMARK  9 active torsions:
REMARK  status: ('A' for Active; 'I' for Inactive)
REMARK    1  A    between atoms: C_1  and  C_2
REMARK    2  A    between atoms: C_4  and  C_16
REMARK    3  A    between atoms: C_5  and  O_6
REMARK    4  A    between atoms: C_7  and  C_8
REMARK    5  A    between atoms: C_9  and  C_10
REMARK    6  A    between atoms: C_10  and  C_11
REMARK    7  A    between atoms: C_16  and  C_17
REMARK    8  A    between atoms: C_16  and  C_18
REMARK    9  A    between atoms: C_16  and  C_19
REMARK                            x       y       z     vdW  Elec       q    Type
REMARK                         _______ _______ _______ _____ _____    ______ ____
ROOT
ATOM      1  C   UNL     1       6.531  -0.863  25.290  0.00  0.00    +0.044 C 
ATOM      2  C   UNL     1       7.456  -0.189  24.312  0.00  0.00    -0.046 A 
ATOM      3  C   UNL     1       8.022  -0.858  23.208  0.00  0.00    -0.027 A 
ATOM      4  C   UNL     1       8.851  -0.116  22.324  0.00  0.00    -0.005 A 
ATOM      5  C   UNL     1       9.506  -0.795  21.147  0.00  0.00    +0.048 C 
ATOM      6  C   UNL     1       9.040   1.280  22.537  0.00  0.00    +0.124 A 
ATOM      7  C   UNL     1       8.447   1.981  23.602  0.00  0.00    -0.000 A 
ATOM      8  C   UNL     1       7.692   1.191  24.489  0.00  0.00    +0.011 A 
ENDROOT
BRANCH   7   9
ATOM      9  C   UNL     1       8.585   3.497  23.899  0.00  0.00    -0.009 C 
ATOM     10  C   UNL     1       7.763   4.378  22.913  0.00  0.00    +0.015 C 
ATOM     11  C   UNL     1      10.023   4.065  23.811  0.00  0.00    +0.015 C 
ATOM     12  C   UNL     1       8.034   3.745  25.318  0.00  0.00    +0.015 C 
ENDBRANCH   7   9
BRANCH   6  13
ATOM     13  O   UNL     1       9.853   1.912  21.635  0.00  0.00    -0.506 OA
ATOM     14  H   UNL     1       9.279   2.295  20.953  0.00  0.00    +0.292 HD
ENDBRANCH   6  13
BRANCH   3  15
ATOM     15  C   UNL     1       7.676  -2.314  22.933  0.00  0.00    +0.163 C 
BRANCH  15  16
ATOM     16  C   UNL     1       8.250  -3.370  23.856  0.00  0.00    +0.285 C 
ATOM     17  N   UNL     1       7.494  -4.306  24.513  0.00  0.00    -0.233 N 
ATOM     18  H   UNL     1       6.757  -4.765  23.992  0.00  0.00    +0.291 HD
ATOM     19  C   UNL     1       8.351  -5.093  25.368  0.00  0.00    +0.273 C 
ATOM     20  C   UNL     1       9.732  -4.501  25.072  0.00  0.00    +0.333 C 
ATOM     21  N   UNL     1       9.529  -3.361  24.139  0.00  0.00    -0.084 NA
ENDBRANCH  15  16
ENDBRANCH   3  15
TORSDOF 4
ENDMDL
MODEL 8
REMARK VINA RESULT:      -5.4      3.262      7.152
REMARK  Name = 
REMARK  9 active torsions:
REMARK  status: ('A' for Active; 'I' for Inactive)
REMARK    1  A    between atoms: C_1  and  C_2
REMARK    2  A    between atoms: C_4  and  C_16
REMARK    3  A    between atoms: C_5  and  O_6
REMARK    4  A    between atoms: C_7  and  C_8
REMARK    5  A    between atoms: C_9  and  C_10
REMARK    6  A    between atoms: C_10  and  C_11
REMARK    7  A    between atoms: C_16  and  C_17
REMARK    8  A    between atoms: C_16  and  C_18
REMARK    9  A    between atoms: C_16  and  C_19
REMARK                            x       y       z     vdW  Elec       q    Type
REMARK                         _______ _______ _______ _____ _____    ______ ____
ROOT
ATOM      1  C   UNL     1       7.410  -2.739  22.083  0.00  0.00    +0.044 C 
ATOM      2  C   UNL     1       7.272  -3.615  23.299  0.00  0.00    -0.046 A 
ATOM      3  C   UNL     1       8.286  -3.745  24.269  0.00  0.00    -0.027 A 
ATOM      4  C   UNL     1       8.036  -4.567  25.399  0.00  0.00    -0.005 A 
ATOM      5  C   UNL     1       9.102  -4.765  26.447  0.00  0.00    +0.048 C 
ATOM      6  C   UNL     1       6.761  -5.185  25.555  0.00  0.00    +0.124 A 
ATOM      7  C   UNL     1       5.716  -5.031  24.628  0.00  0.00    -0.000 A 
ATOM      8  C   UNL     1       6.034  -4.265  23.490  0.00  0.00    +0.011 A 
ENDROOT
BRANCH   7   9
ATOM      9  C   UNL     1       4.298  -5.653  24.725  0.00  0.00    -0.009 C 
ATOM     10  C   UNL     1       3.494  -5.120  25.947  0.00  0.00    +0.015 C 
ATOM     11  C   UNL     1       4.254  -7.193  24.880  0.00  0.00    +0.015 C 
ATOM     12  C   UNL     1       3.527  -5.255  23.449  0.00  0.00    +0.015 C 
ENDBRANCH   7   9
BRANCH   6  13
ATOM     13  O   UNL     1       6.611  -5.958  26.675  0.00  0.00    -0.506 OA
ATOM     14  H   UNL     1       7.331  -6.608  26.672  0.00  0.00    +0.292 HD
ENDBRANCH   6  13
BRANCH   3  15
ATOM     15  C   UNL     1       9.577  -2.950  24.139  0.00  0.00    +0.163 C 
BRANCH  15  16
ATOM     16  C   UNL     1       9.538  -1.469  24.458  0.00  0.00    +0.285 C 
ATOM     17  N   UNL     1       8.639  -0.894  25.317  0.00  0.00    -0.233 N 
ATOM     18  H   UNL     1       8.454  -1.369  26.192  0.00  0.00    +0.291 HD
ATOM     19  C   UNL     1       8.832   0.537  25.319  0.00  0.00    +0.273 C 
ATOM     20  C   UNL     1      10.014   0.704  24.361  0.00  0.00    +0.333 C 
ATOM     21  N   UNL     1      10.335  -0.646  23.823  0.00  0.00    -0.084 NA
ENDBRANCH  15  16
ENDBRANCH   3  15
TORSDOF 4
ENDMDL
MODEL 9
REMARK VINA RESULT:      -5.4      1.600      2.874
REMARK  Name = 
REMARK  9 active torsions:
REMARK  status: ('A' for Active; 'I' for Inactive)
REMARK    1  A    between atoms: C_1  and  C_2
REMARK    2  A    between atoms: C_4  and  C_16
REMARK    3  A    between atoms: C_5  and  O_6
REMARK    4  A    between atoms: C_7  and  C_8
REMARK    5  A    between atoms: C_9  and  C_10
REMARK    6  A    between atoms: C_10  and  C_11
REMARK    7  A    between atoms: C_16  and  C_17
REMARK    8  A    between atoms: C_16  and  C_18
REMARK    9  A    between atoms: C_16  and  C_19
REMARK                            x       y       z     vdW  Elec       q    Type
REMARK                         _______ _______ _______ _____ _____    ______ ____
ROOT
ATOM      1  C   UNL     1       9.491   0.096  21.479  0.00  0.00    +0.044 C 
ATOM      2  C   UNL     1       9.021   0.491  22.854  0.00  0.00    -0.046 A 
ATOM      3  C   UNL     1       9.151  -0.350  23.978  0.00  0.00    -0.027 A 
ATOM      4  C   UNL     1       8.710   0.137  25.237  0.00  0.00    -0.005 A 
ATOM      5  C   UNL     1       8.797  -0.738  26.463  0.00  0.00    +0.048 C 
ATOM      6  C   UNL     1       8.211   1.467  25.345  0.00  0.00    +0.124 A 
ATOM      7  C   UNL     1       8.117   2.342  24.249  0.00  0.00    -0.000 A 
ATOM      8  C   UNL     1       8.500   1.792  23.011  0.00  0.00    +0.011 A 
ENDROOT
BRANCH   7   9
ATOM      9  C   UNL     1       7.602   3.805  24.278  0.00  0.00    -0.009 C 
ATOM     10  C   UNL     1       7.718   4.508  22.894  0.00  0.00    +0.015 C 
ATOM     11  C   UNL     1       8.342   4.754  25.253  0.00  0.00    +0.015 C 
ATOM     12  C   UNL     1       6.107   3.764  24.657  0.00  0.00    +0.015 C 
ENDBRANCH   7   9
BRANCH   6  13
ATOM     13  O   UNL     1       7.811   1.850  26.597  0.00  0.00    -0.506 OA
ATOM     14  H   UNL     1       7.794   1.051  27.148  0.00  0.00    +0.292 HD
ENDBRANCH   6  13
BRANCH   3  15
ATOM     15  C   UNL     1       9.826  -1.707  23.847  0.00  0.00    +0.163 C 
BRANCH  15  16
ATOM     16  C   UNL     1       8.946  -2.933  23.717  0.00  0.00    +0.285 C 
ATOM     17  N   UNL     1       9.052  -4.041  24.517  0.00  0.00    -0.233 N 
ATOM     18  H   UNL     1       9.176  -3.893  25.511  0.00  0.00    +0.291 HD
ATOM     19  C   UNL     1       8.121  -5.047  24.063  0.00  0.00    +0.273 C 
ATOM     20  C   UNL     1       7.421  -4.335  22.902  0.00  0.00    +0.333 C 
ATOM     21  N   UNL     1       8.082  -3.013  22.736  0.00  0.00    -0.084 NA
ENDBRANCH  15  16
ENDBRANCH   3  15
TORSDOF 4
ENDMDL
