MODEL 1
REMARK VINA RESULT:      -6.7      0.000      0.000
REMARK  Name = 
REMARK  13 active torsions:
REMARK  status: ('A' for Active; 'I' for Inactive)
REMARK    1  A    between atoms: C_1  and  O_2
REMARK    2  A    between atoms: O_2  and  C_3
REMARK    3  A    between atoms: C_5  and  C_6
REMARK    4  A    between atoms: C_6  and  C_7
REMARK    5  A    between atoms: C_17  and  O_18
REMARK    6  A    between atoms: O_18  and  C_19
REMARK    7  A    between atoms: C_19  and  C_20
REMARK    8  A    between atoms: C_20  and  C_21
REMARK    9  A    between atoms: C_21  and  C_22
REMARK   10  A    between atoms: C_22  and  C_24
REMARK   11  A    between atoms: C_22  and  C_29
REMARK   12  A    between atoms: C_24  and  C_25
REMARK   13  A    between atoms: C_25  and  C_26
REMARK                            x       y       z     vdW  Elec       q    Type
REMARK                         _______ _______ _______ _____ _____    ______ ____
ROOT
ATOM      1  C   UNL     1       5.980  -3.926  22.288  0.00  0.00    +0.138 A 
ATOM      2  C   UNL     1       5.254  -3.327  23.341  0.00  0.00    +0.101 A 
ATOM      3 BR   UNL     1       3.665  -4.180  23.946  0.00  0.00    -0.043 Br
ATOM      4  C   UNL     1       5.693  -2.105  23.854  0.00  0.00    +0.138 A 
ATOM      5  C   UNL     1       6.800  -1.481  23.255  0.00  0.00    +0.051 A 
ATOM      6  C   UNL     1       7.658  -2.166  22.381  0.00  0.00    -0.036 A 
ATOM      7  C   UNL     1       7.209  -3.386  21.874  0.00  0.00    +0.051 A 
ENDROOT
BRANCH   1   9
ATOM      8  C   UNL     1       6.471  -6.136  21.662  0.00  0.00    +0.277 C 
ATOM      9  O   UNL     1       5.503  -5.089  21.729  0.00  0.00    -0.494 OA
ENDBRANCH   1   9
BRANCH   4  10
ATOM     10  O   UNL     1       5.162  -1.362  24.871  0.00  0.00    -0.491 OA
BRANCH  10  11
ATOM     11  C   UNL     1       5.658  -1.488  26.217  0.00  0.00    +0.229 C 
BRANCH  11  12
ATOM     12  C   UNL     1       5.093  -2.619  27.088  0.00  0.00    +0.042 C 
BRANCH  12  13
ATOM     13  C   UNL     1       6.083  -3.733  27.446  0.00  0.00    +0.012 C 
BRANCH  13  14
ATOM     14  C   UNL     1       5.875  -5.125  26.790  0.00  0.00    +0.035 C 
BRANCH  14  15
ATOM     15  C   UNL     1       5.855  -6.075  28.002  0.00  0.00    +0.045 C 
ATOM     16  O   UNL     1       4.825  -6.727  28.285  0.00  0.00    -0.550 OA
ATOM     17  O   UNL     1       7.002  -6.314  28.516  0.00  0.00    -0.550 OA
ENDBRANCH  14  15
BRANCH  14  18
ATOM     18  C   UNL     1       6.931  -5.441  25.718  0.00  0.00    +0.015 C 
BRANCH  18  19
ATOM     19  C   UNL     1       8.050  -4.396  25.672  0.00  0.00    +0.052 C 
BRANCH  19  20
ATOM     20  C   UNL     1       9.193  -4.654  24.679  0.00  0.00    +0.042 C 
ATOM     21  O   UNL     1       9.151  -5.790  24.120  0.00  0.00    -0.550 OA
ATOM     22  O   UNL     1      10.016  -3.713  24.504  0.00  0.00    -0.550 OA
ENDBRANCH  19  20
ENDBRANCH  18  19
ENDBRANCH  14  18
ENDBRANCH  13  14
ENDBRANCH  12  13
ENDBRANCH  11  12
ENDBRANCH  10  11
ENDBRANCH   4  10
BRANCH   6  23
ATOM     23  C   UNL     1       9.059  -1.652  22.048  0.00  0.00    +0.080 C 
BRANCH  23  24
ATOM     24  C   UNL     1       9.283  -0.183  22.364  0.00  0.00    +0.060 A 
ATOM     25  C   UNL     1       9.733   0.317  23.588  0.00  0.00    +0.133 A 
ATOM     26  N   UNL     1      10.257  -0.512  24.573  0.00  0.00    -0.343 N 
ATOM     27  H   UNL     1       9.659  -1.276  24.855  0.00  0.00    +0.144 HD
ATOM     28  H   UNL     1      10.538   0.065  25.361  0.00  0.00    +0.144 HD
ATOM     29  N   UNL     1       9.812   1.639  23.863  0.00  0.00    -0.157 NA
ATOM     30  C   UNL     1       9.515   2.499  22.861  0.00  0.00    +0.371 A 
ATOM     31  N   UNL     1       9.498   3.856  23.099  0.00  0.00    -0.288 N 
ATOM     32  H   UNL     1       9.387   4.098  24.074  0.00  0.00    +0.149 HD
ATOM     33  H   UNL     1       8.968   4.427  22.435  0.00  0.00    +0.149 HD
ATOM     34  N   UNL     1       9.241   2.067  21.653  0.00  0.00    -0.181 N 
ATOM     35  H   UNL     1       9.088   2.738  20.865  0.00  0.00    +0.456 HD
ATOM     36  C   UNL     1       9.122   0.778  21.387  0.00  0.00    +0.317 A 
ENDBRANCH  23  24
ENDBRANCH   6  23
TORSDOF 12
ENDMDL
MODEL 2
REMARK VINA RESULT:      -6.5      1.657      2.182
REMARK  Name = 
REMARK  13 active torsions:
REMARK  status: ('A' for Active; 'I' for Inactive)
REMARK    1  A    between atoms: C_1  and  O_2
REMARK    2  A    between atoms: O_2  and  C_3
REMARK    3  A    between atoms: C_5  and  C_6
REMARK    4  A    between atoms: C_6  and  C_7
REMARK    5  A    between atoms: C_17  and  O_18
REMARK    6  A    between atoms: O_18  and  C_19
REMARK    7  A    between atoms: C_19  and  C_20
REMARK    8  A    between atoms: C_20  and  C_21
REMARK    9  A    between atoms: C_21  and  C_22
REMARK   10  A    between atoms: C_22  and  C_24
REMARK   11  A    between atoms: C_22  and  C_29
REMARK   12  A    between atoms: C_24  and  C_25
REMARK   13  A    between atoms: C_25  and  C_26
REMARK                            x       y       z     vdW  Elec       q    Type
REMARK                         _______ _______ _______ _____ _____    ______ ____
ROOT
ATOM      1  C   UNL     1       5.129  -4.187  22.889  0.00  0.00    +0.138 A 
ATOM      2  C   UNL     1       4.030  -4.459  23.732  0.00  0.00    +0.101 A 
ATOM      3 BR   UNL     1       2.767  -5.770  23.180  0.00  0.00    -0.043 Br
ATOM      4  C   UNL     1       3.876  -3.712  24.902  0.00  0.00    +0.138 A 
ATOM      5  C   UNL     1       4.783  -2.671  25.162  0.00  0.00    +0.051 A 
ATOM      6  C   UNL     1       5.996  -2.549  24.467  0.00  0.00    -0.036 A 
ATOM      7  C   UNL     1       6.138  -3.299  23.298  0.00  0.00    +0.051 A 
ENDROOT
BRANCH   1   9
ATOM      8  C   UNL     1       6.550  -5.358  21.430  0.00  0.00    +0.277 C 
ATOM      9  O   UNL     1       5.237  -4.866  21.697  0.00  0.00    -0.494 OA
ENDBRANCH   1   9
BRANCH   4  10
ATOM     10  O   UNL     1       2.909  -3.815  25.862  0.00  0.00    -0.491 OA
BRANCH  10  11
ATOM     11  C   UNL     1       3.053  -4.729  26.965  0.00  0.00    +0.229 C 
BRANCH  11  12
ATOM     12  C   UNL     1       3.484  -4.156  28.323  0.00  0.00    +0.042 C 
BRANCH  12  13
ATOM     13  C   UNL     1       4.986  -4.221  28.620  0.00  0.00    +0.012 C 
BRANCH  13  14
ATOM     14  C   UNL     1       5.825  -5.298  27.881  0.00  0.00    +0.035 C 
BRANCH  14  15
ATOM     15  C   UNL     1       6.061  -6.357  28.974  0.00  0.00    +0.045 C 
ATOM     16  O   UNL     1       6.321  -6.015  30.150  0.00  0.00    -0.550 OA
ATOM     17  O   UNL     1       5.739  -7.551  28.644  0.00  0.00    -0.550 OA
ENDBRANCH  14  15
BRANCH  14  18
ATOM     18  C   UNL     1       7.093  -4.722  27.231  0.00  0.00    +0.015 C 
BRANCH  18  19
ATOM     19  C   UNL     1       7.506  -5.490  25.971  0.00  0.00    +0.052 C 
BRANCH  19  20
ATOM     20  C   UNL     1       8.895  -5.175  25.397  0.00  0.00    +0.042 C 
ATOM     21  O   UNL     1       8.966  -5.253  24.134  0.00  0.00    -0.550 OA
ATOM     22  O   UNL     1       9.790  -4.846  26.224  0.00  0.00    -0.550 OA
ENDBRANCH  19  20
ENDBRANCH  18  19
ENDBRANCH  14  18
ENDBRANCH  13  14
ENDBRANCH  12  13
ENDBRANCH  11  12
ENDBRANCH  10  11
ENDBRANCH   4  10
BRANCH   6  23
ATOM     23  C   UNL     1       7.152  -1.698  24.992  0.00  0.00    +0.080 C 
BRANCH  23  24
ATOM     24  C   UNL     1       7.811  -0.815  23.946  0.00  0.00    +0.060 A 
ATOM     25  C   UNL     1       9.070  -1.035  23.385  0.00  0.00    +0.133 A 
ATOM     26  N   UNL     1       9.751  -2.235  23.555  0.00  0.00    -0.343 N 
ATOM     27  H   UNL     1       9.886  -2.522  24.515  0.00  0.00    +0.144 HD
ATOM     28  H   UNL     1      10.628  -2.181  23.045  0.00  0.00    +0.144 HD
ATOM     29  N   UNL     1       9.666  -0.164  22.540  0.00  0.00    -0.157 NA
ATOM     30  C   UNL     1       8.955   0.926  22.171  0.00  0.00    +0.371 A 
ATOM     31  N   UNL     1       9.534   1.892  21.377  0.00  0.00    -0.288 N 
ATOM     32  H   UNL     1      10.545   1.884  21.396  0.00  0.00    +0.149 HD
ATOM     33  H   UNL     1       9.097   2.817  21.395  0.00  0.00    +0.149 HD
ATOM     34  N   UNL     1       7.710   1.087  22.553  0.00  0.00    -0.181 N 
ATOM     35  H   UNL     1       7.140   1.892  22.202  0.00  0.00    +0.456 HD
ATOM     36  C   UNL     1       7.135   0.262  23.411  0.00  0.00    +0.317 A 
ENDBRANCH  23  24
ENDBRANCH   6  23
TORSDOF 12
ENDMDL
MODEL 3
REMARK VINA RESULT:      -6.2      1.952      4.086
REMARK  Name = 
REMARK  13 active torsions:
REMARK  status: ('A' for Active; 'I' for Inactive)
REMARK    1  A    between atoms: C_1  and  O_2
REMARK    2  A    between atoms: O_2  and  C_3
REMARK    3  A    between atoms: C_5  and  C_6
REMARK    4  A    between atoms: C_6  and  C_7
REMARK    5  A    between atoms: C_17  and  O_18
REMARK    6  A    between atoms: O_18  and  C_19
REMARK    7  A    between atoms: C_19  and  C_20
REMARK    8  A    between atoms: C_20  and  C_21
REMARK    9  A    between atoms: C_21  and  C_22
REMARK   10  A    between atoms: C_22  and  C_24
REMARK   11  A    between atoms: C_22  and  C_29
REMARK   12  A    between atoms: C_24  and  C_25
REMARK   13  A    between atoms: C_25  and  C_26
REMARK                            x       y       z     vdW  Elec       q    Type
REMARK                         _______ _______ _______ _____ _____    ______ ____
ROOT
ATOM      1  C   UNL     1       8.095  -3.604  26.841  0.00  0.00    +0.138 A 
ATOM      2  C   UNL     1       6.765  -4.010  27.084  0.00  0.00    +0.101 A 
ATOM      3 BR   UNL     1       6.437  -5.836  27.508  0.00  0.00    -0.043 Br
ATOM      4  C   UNL     1       5.736  -3.076  26.941  0.00  0.00    +0.138 A 
ATOM      5  C   UNL     1       6.057  -1.784  26.493  0.00  0.00    +0.051 A 
ATOM      6  C   UNL     1       7.377  -1.307  26.478  0.00  0.00    -0.036 A 
ATOM      7  C   UNL     1       8.396  -2.250  26.620  0.00  0.00    +0.051 A 
ENDROOT
BRANCH   1   9
ATOM      8  C   UNL     1       9.541  -4.999  25.624  0.00  0.00    +0.277 C 
ATOM      9  O   UNL     1       9.098  -4.543  26.903  0.00  0.00    -0.494 OA
ENDBRANCH   1   9
BRANCH   4  10
ATOM     10  O   UNL     1       4.394  -3.242  27.140  0.00  0.00    -0.491 OA
BRANCH  10  11
ATOM     11  C   UNL     1       3.606  -4.039  26.237  0.00  0.00    +0.229 C 
BRANCH  11  12
ATOM     12  C   UNL     1       3.687  -3.719  24.737  0.00  0.00    +0.042 C 
BRANCH  12  13
ATOM     13  C   UNL     1       4.854  -4.368  23.986  0.00  0.00    +0.012 C 
BRANCH  13  14
ATOM     14  C   UNL     1       5.255  -3.766  22.612  0.00  0.00    +0.035 C 
BRANCH  14  15
ATOM     15  C   UNL     1       5.730  -5.000  21.823  0.00  0.00    +0.045 C 
ATOM     16  O   UNL     1       5.998  -4.915  20.603  0.00  0.00    -0.550 OA
ATOM     17  O   UNL     1       6.049  -6.009  22.544  0.00  0.00    -0.550 OA
ENDBRANCH  14  15
BRANCH  14  18
ATOM     18  C   UNL     1       6.278  -2.626  22.738  0.00  0.00    +0.015 C 
BRANCH  18  19
ATOM     19  C   UNL     1       7.663  -3.125  23.159  0.00  0.00    +0.052 C 
BRANCH  19  20
ATOM     20  C   UNL     1       8.863  -2.260  22.747  0.00  0.00    +0.042 C 
ATOM     21  O   UNL     1       8.670  -1.563  21.706  0.00  0.00    -0.550 OA
ATOM     22  O   UNL     1       9.881  -2.308  23.492  0.00  0.00    -0.550 OA
ENDBRANCH  19  20
ENDBRANCH  18  19
ENDBRANCH  14  18
ENDBRANCH  13  14
ENDBRANCH  12  13
ENDBRANCH  11  12
ENDBRANCH  10  11
ENDBRANCH   4  10
BRANCH   6  23
ATOM     23  C   UNL     1       7.702   0.184  26.389  0.00  0.00    +0.080 C 
BRANCH  23  24
ATOM     24  C   UNL     1       8.182   0.645  25.023  0.00  0.00    +0.060 A 
ATOM     25  C   UNL     1       9.517   0.824  24.657  0.00  0.00    +0.133 A 
ATOM     26  N   UNL     1      10.563   0.360  25.445  0.00  0.00    -0.343 N 
ATOM     27  H   UNL     1      10.555   0.678  26.404  0.00  0.00    +0.144 HD
ATOM     28  H   UNL     1      11.439   0.580  24.977  0.00  0.00    +0.144 HD
ATOM     29  N   UNL     1       9.894   1.343  23.467  0.00  0.00    -0.157 NA
ATOM     30  C   UNL     1       8.917   1.616  22.571  0.00  0.00    +0.371 A 
ATOM     31  N   UNL     1       9.228   2.220  21.373  0.00  0.00    -0.288 N 
ATOM     32  H   UNL     1      10.110   2.713  21.381  0.00  0.00    +0.149 HD
ATOM     33  H   UNL     1       8.459   2.692  20.889  0.00  0.00    +0.149 HD
ATOM     34  N   UNL     1       7.664   1.314  22.819  0.00  0.00    -0.181 N 
ATOM     35  H   UNL     1       6.924   1.456  22.094  0.00  0.00    +0.456 HD
ATOM     36  C   UNL     1       7.283   0.846  23.995  0.00  0.00    +0.317 A 
ENDBRANCH  23  24
ENDBRANCH   6  23
TORSDOF 12
ENDMDL
MODEL 4
REMARK VINA RESULT:      -6.2      1.785      3.643
REMARK  Name = 
REMARK  13 active torsions:
REMARK  status: ('A' for Active; 'I' for Inactive)
REMARK    1  A    between atoms: C_1  and  O_2
REMARK    2  A    between atoms: O_2  and  C_3
REMARK    3  A    between atoms: C_5  and  C_6
REMARK    4  A    between atoms: C_6  and  C_7
REMARK    5  A    between atoms: C_17  and  O_18
REMARK    6  A    between atoms: O_18  and  C_19
REMARK    7  A    between atoms: C_19  and  C_20
REMARK    8  A    between atoms: C_20  and  C_21
REMARK    9  A    between atoms: C_21  and  C_22
REMARK   10  A    between atoms: C_22  and  C_24
REMARK   11  A    between atoms: C_22  and  C_29
REMARK   12  A    between atoms: C_24  and  C_25
REMARK   13  A    between atoms: C_25  and  C_26
REMARK                            x       y       z     vdW  Elec       q    Type
REMARK                         _______ _______ _______ _____ _____    ______ ____
ROOT
ATOM      1  C   UNL     1       6.407  -4.704  23.132  0.00  0.00    +0.138 A 
ATOM      2  C   UNL     1       6.116  -5.460  24.288  0.00  0.00    +0.101 A 
ATOM      3 BR   UNL     1       4.588  -6.593  24.270  0.00  0.00    -0.043 Br
ATOM      4  C   UNL     1       6.920  -5.300  25.419  0.00  0.00    +0.138 A 
ATOM      5  C   UNL     1       7.946  -4.340  25.387  0.00  0.00    +0.051 A 
ATOM      6  C   UNL     1       8.388  -3.763  24.187  0.00  0.00    -0.036 A 
ATOM      7  C   UNL     1       7.577  -3.929  23.064  0.00  0.00    +0.051 A 
ENDROOT
BRANCH   1   9
ATOM      8  C   UNL     1       6.139  -5.496  20.937  0.00  0.00    +0.277 C 
ATOM      9  O   UNL     1       5.568  -4.801  22.046  0.00  0.00    -0.494 OA
ENDBRANCH   1   9
BRANCH   4  10
ATOM     10  O   UNL     1       6.834  -5.933  26.628  0.00  0.00    -0.491 OA
BRANCH  10  11
ATOM     11  C   UNL     1       6.294  -5.260  27.780  0.00  0.00    +0.229 C 
BRANCH  11  12
ATOM     12  C   UNL     1       4.768  -5.237  27.949  0.00  0.00    +0.042 C 
BRANCH  12  13
ATOM     13  C   UNL     1       4.045  -4.069  27.270  0.00  0.00    +0.012 C 
BRANCH  13  14
ATOM     14  C   UNL     1       4.807  -2.722  27.142  0.00  0.00    +0.035 C 
BRANCH  14  15
ATOM     15  C   UNL     1       4.164  -1.860  28.244  0.00  0.00    +0.045 C 
ATOM     16  O   UNL     1       4.690  -0.780  28.599  0.00  0.00    -0.550 OA
ATOM     17  O   UNL     1       2.975  -2.203  28.570  0.00  0.00    -0.550 OA
ENDBRANCH  14  15
BRANCH  14  18
ATOM     18  C   UNL     1       4.746  -2.137  25.722  0.00  0.00    +0.015 C 
BRANCH  18  19
ATOM     19  C   UNL     1       5.957  -1.257  25.398  0.00  0.00    +0.052 C 
BRANCH  19  20
ATOM     20  C   UNL     1       5.763   0.261  25.532  0.00  0.00    +0.042 C 
ATOM     21  O   UNL     1       6.796   0.886  25.915  0.00  0.00    -0.550 OA
ATOM     22  O   UNL     1       4.628   0.717  25.221  0.00  0.00    -0.550 OA
ENDBRANCH  19  20
ENDBRANCH  18  19
ENDBRANCH  14  18
ENDBRANCH  13  14
ENDBRANCH  12  13
ENDBRANCH  11  12
ENDBRANCH  10  11
ENDBRANCH   4  10
BRANCH   6  23
ATOM     23  C   UNL     1       9.735  -3.048  24.078  0.00  0.00    +0.080 C 
BRANCH  23  24
ATOM     24  C   UNL     1       9.673  -1.686  23.407  0.00  0.00    +0.060 A 
ATOM     25  C   UNL     1       9.436  -0.476  24.062  0.00  0.00    +0.133 A 
ATOM     26  N   UNL     1       9.474  -0.371  25.448  0.00  0.00    -0.343 N 
ATOM     27  H   UNL     1       8.871  -1.011  25.945  0.00  0.00    +0.144 HD
ATOM     28  H   UNL     1       9.296   0.597  25.701  0.00  0.00    +0.144 HD
ATOM     29  N   UNL     1       9.278   0.699  23.412  0.00  0.00    -0.157 NA
ATOM     30  C   UNL     1       9.444   0.691  22.069  0.00  0.00    +0.371 A 
ATOM     31  N   UNL     1       9.217   1.837  21.339  0.00  0.00    -0.288 N 
ATOM     32  H   UNL     1       8.630   2.512  21.810  0.00  0.00    +0.149 HD
ATOM     33  H   UNL     1       9.036   1.711  20.340  0.00  0.00    +0.149 HD
ATOM     34  N   UNL     1       9.821  -0.395  21.437  0.00  0.00    -0.181 N 
ATOM     35  H   UNL     1      10.023  -0.377  20.410  0.00  0.00    +0.456 HD
ATOM     36  C   UNL     1       9.937  -1.555  22.059  0.00  0.00    +0.317 A 
ENDBRANCH  23  24
ENDBRANCH   6  23
TORSDOF 12
ENDMDL
MODEL 5
REMARK VINA RESULT:      -6.1      1.958      3.948
REMARK  Name = 
REMARK  13 active torsions:
REMARK  status: ('A' for Active; 'I' for Inactive)
REMARK    1  A    between atoms: C_1  and  O_2
REMARK    2  A    between atoms: O_2  and  C_3
REMARK    3  A    between atoms: C_5  and  C_6
REMARK    4  A    between atoms: C_6  and  C_7
REMARK    5  A    between atoms: C_17  and  O_18
REMARK    6  A    between atoms: O_18  and  C_19
REMARK    7  A    between atoms: C_19  and  C_20
REMARK    8  A    between atoms: C_20  and  C_21
REMARK    9  A    between atoms: C_21  and  C_22
REMARK   10  A    between atoms: C_22  and  C_24
REMARK   11  A    between atoms: C_22  and  C_29
REMARK   12  A    between atoms: C_24  and  C_25
REMARK   13  A    between atoms: C_25  and  C_26
REMARK                            x       y       z     vdW  Elec       q    Type
REMARK                         _______ _______ _______ _____ _____    ______ ____
ROOT
ATOM      1  C   UNL     1       5.973  -1.098  25.582  0.00  0.00    +0.138 A 
ATOM      2  C   UNL     1       5.924  -2.204  26.458  0.00  0.00    +0.101 A 
ATOM      3 BR   UNL     1       4.319  -2.523  27.428  0.00  0.00    -0.043 Br
ATOM      4  C   UNL     1       7.072  -2.982  26.628  0.00  0.00    +0.138 A 
ATOM      5  C   UNL     1       8.253  -2.593  25.975  0.00  0.00    +0.051 A 
ATOM      6  C   UNL     1       8.253  -1.652  24.934  0.00  0.00    -0.036 A 
ATOM      7  C   UNL     1       7.101  -0.880  24.774  0.00  0.00    +0.051 A 
ENDROOT
BRANCH   1   9
ATOM      8  C   UNL     1       5.098   1.057  25.904  0.00  0.00    +0.277 C 
ATOM      9  O   UNL     1       4.869  -0.285  25.476  0.00  0.00    -0.494 OA
ENDBRANCH   1   9
BRANCH   4  10
ATOM     10  O   UNL     1       7.245  -4.095  27.403  0.00  0.00    -0.491 OA
BRANCH  10  11
ATOM     11  C   UNL     1       7.116  -5.415  26.842  0.00  0.00    +0.229 C 
BRANCH  11  12
ATOM     12  C   UNL     1       5.707  -5.909  26.485  0.00  0.00    +0.042 C 
BRANCH  12  13
ATOM     13  C   UNL     1       5.379  -5.942  24.988  0.00  0.00    +0.012 C 
BRANCH  13  14
ATOM     14  C   UNL     1       4.348  -4.915  24.449  0.00  0.00    +0.035 C 
BRANCH  14  15
ATOM     15  C   UNL     1       3.221  -5.812  23.906  0.00  0.00    +0.045 C 
ATOM     16  O   UNL     1       2.498  -6.474  24.685  0.00  0.00    -0.550 OA
ATOM     17  O   UNL     1       2.944  -5.637  22.668  0.00  0.00    -0.550 OA
ENDBRANCH  14  15
BRANCH  14  18
ATOM     18  C   UNL     1       4.959  -3.933  23.437  0.00  0.00    +0.015 C 
BRANCH  18  19
ATOM     19  C   UNL     1       6.376  -4.333  23.014  0.00  0.00    +0.052 C 
BRANCH  19  20
ATOM     20  C   UNL     1       6.509  -5.106  21.693  0.00  0.00    +0.042 C 
ATOM     21  O   UNL     1       7.273  -6.115  21.755  0.00  0.00    -0.550 OA
ATOM     22  O   UNL     1       5.831  -4.682  20.716  0.00  0.00    -0.550 OA
ENDBRANCH  19  20
ENDBRANCH  18  19
ENDBRANCH  14  18
ENDBRANCH  13  14
ENDBRANCH  12  13
ENDBRANCH  11  12
ENDBRANCH  10  11
ENDBRANCH   4  10
BRANCH   6  23
ATOM     23  C   UNL     1       9.423  -1.519  23.959  0.00  0.00    +0.080 C 
BRANCH  23  24
ATOM     24  C   UNL     1       9.770  -0.089  23.583  0.00  0.00    +0.060 A 
ATOM     25  C   UNL     1       9.857   0.404  22.279  0.00  0.00    +0.133 A 
ATOM     26  N   UNL     1       9.389  -0.320  21.189  0.00  0.00    -0.343 N 
ATOM     27  H   UNL     1       9.767  -1.253  21.096  0.00  0.00    +0.144 HD
ATOM     28  H   UNL     1       9.533   0.236  20.350  0.00  0.00    +0.144 HD
ATOM     29  N   UNL     1      10.279   1.654  21.987  0.00  0.00    -0.157 NA
ATOM     30  C   UNL     1      10.545   2.478  23.028  0.00  0.00    +0.371 A 
ATOM     31  N   UNL     1      11.055   3.737  22.798  0.00  0.00    -0.288 N 
ATOM     32  H   UNL     1      11.501   3.839  21.897  0.00  0.00    +0.149 HD
ATOM     33  H   UNL     1      11.535   4.182  23.585  0.00  0.00    +0.149 HD
ATOM     34  N   UNL     1      10.325   2.102  24.265  0.00  0.00    -0.181 N 
ATOM     35  H   UNL     1      10.460   2.768  25.061  0.00  0.00    +0.456 HD
ATOM     36  C   UNL     1       9.953   0.868  24.560  0.00  0.00    +0.317 A 
ENDBRANCH  23  24
ENDBRANCH   6  23
TORSDOF 12
ENDMDL
MODEL 6
REMARK VINA RESULT:      -6.1      1.871      3.594
REMARK  Name = 
REMARK  13 active torsions:
REMARK  status: ('A' for Active; 'I' for Inactive)
REMARK    1  A    between atoms: C_1  and  O_2
REMARK    2  A    between atoms: O_2  and  C_3
REMARK    3  A    between atoms: C_5  and  C_6
REMARK    4  A    between atoms: C_6  and  C_7
REMARK    5  A    between atoms: C_17  and  O_18
REMARK    6  A    between atoms: O_18  and  C_19
REMARK    7  A    between atoms: C_19  and  C_20
REMARK    8  A    between atoms: C_20  and  C_21
REMARK    9  A    between atoms: C_21  and  C_22
REMARK   10  A    between atoms: C_22  and  C_24
REMARK   11  A    between atoms: C_22  and  C_29
REMARK   12  A    between atoms: C_24  and  C_25
REMARK   13  A    between atoms: C_25  and  C_26
REMARK                            x       y       z     vdW  Elec       q    Type
REMARK                         _______ _______ _______ _____ _____    ______ ____
ROOT
ATOM      1  C   UNL     1       6.647  -4.392  22.934  0.00  0.00    +0.138 A 
ATOM      2  C   UNL     1       6.393  -5.181  24.077  0.00  0.00    +0.101 A 
ATOM      3 BR   UNL     1       4.872  -6.324  24.070  0.00  0.00    -0.043 Br
ATOM      4  C   UNL     1       7.227  -5.046  25.190  0.00  0.00    +0.138 A 
ATOM      5  C   UNL     1       8.245  -4.079  25.156  0.00  0.00    +0.051 A 
ATOM      6  C   UNL     1       8.651  -3.466  23.960  0.00  0.00    -0.036 A 
ATOM      7  C   UNL     1       7.809  -3.608  22.855  0.00  0.00    +0.051 A 
ENDROOT
BRANCH   1   9
ATOM      8  C   UNL     1       6.177  -5.401  20.866  0.00  0.00    +0.277 C 
ATOM      9  O   UNL     1       5.779  -4.466  21.869  0.00  0.00    -0.494 OA
ENDBRANCH   1   9
BRANCH   4  10
ATOM     10  O   UNL     1       7.178  -5.712  26.383  0.00  0.00    -0.491 OA
BRANCH  10  11
ATOM     11  C   UNL     1       6.611  -5.094  27.553  0.00  0.00    +0.229 C 
BRANCH  11  12
ATOM     12  C   UNL     1       5.096  -5.217  27.768  0.00  0.00    +0.042 C 
BRANCH  12  13
ATOM     13  C   UNL     1       4.253  -4.071  27.197  0.00  0.00    +0.012 C 
BRANCH  13  14
ATOM     14  C   UNL     1       4.941  -2.694  27.001  0.00  0.00    +0.035 C 
BRANCH  14  15
ATOM     15  C   UNL     1       4.342  -1.846  28.138  0.00  0.00    +0.045 C 
ATOM     16  O   UNL     1       3.514  -2.341  28.936  0.00  0.00    -0.550 OA
ATOM     17  O   UNL     1       4.925  -0.724  28.336  0.00  0.00    -0.550 OA
ENDBRANCH  14  15
BRANCH  14  18
ATOM     18  C   UNL     1       4.751  -2.130  25.584  0.00  0.00    +0.015 C 
BRANCH  18  19
ATOM     19  C   UNL     1       5.948  -1.296  25.118  0.00  0.00    +0.052 C 
BRANCH  19  20
ATOM     20  C   UNL     1       5.687   0.192  24.843  0.00  0.00    +0.042 C 
ATOM     21  O   UNL     1       6.537   0.737  24.078  0.00  0.00    -0.550 OA
ATOM     22  O   UNL     1       4.657   0.695  25.372  0.00  0.00    -0.550 OA
ENDBRANCH  19  20
ENDBRANCH  18  19
ENDBRANCH  14  18
ENDBRANCH  13  14
ENDBRANCH  12  13
ENDBRANCH  11  12
ENDBRANCH  10  11
ENDBRANCH   4  10
BRANCH   6  23
ATOM     23  C   UNL     1       9.989  -2.739  23.833  0.00  0.00    +0.080 C 
BRANCH  23  24
ATOM     24  C   UNL     1       9.884  -1.224  23.816  0.00  0.00    +0.060 A 
ATOM     25  C   UNL     1       9.957  -0.423  22.675  0.00  0.00    +0.133 A 
ATOM     26  N   UNL     1       9.889  -0.962  21.395  0.00  0.00    -0.343 N 
ATOM     27  H   UNL     1      10.564  -1.688  21.197  0.00  0.00    +0.144 HD
ATOM     28  H   UNL     1       9.939  -0.200  20.724  0.00  0.00    +0.144 HD
ATOM     29  N   UNL     1       9.971   0.928  22.718  0.00  0.00    -0.157 NA
ATOM     30  C   UNL     1       9.823   1.511  23.930  0.00  0.00    +0.371 A 
ATOM     31  N   UNL     1       9.910   2.881  24.052  0.00  0.00    -0.288 N 
ATOM     32  H   UNL     1      10.400   3.328  23.290  0.00  0.00    +0.149 HD
ATOM     33  H   UNL     1      10.117   3.241  24.987  0.00  0.00    +0.149 HD
ATOM     34  N   UNL     1       9.595   0.795  25.005  0.00  0.00    -0.181 N 
ATOM     35  H   UNL     1       9.405   1.254  25.926  0.00  0.00    +0.456 HD
ATOM     36  C   UNL     1       9.621  -0.526  24.978  0.00  0.00    +0.317 A 
ENDBRANCH  23  24
ENDBRANCH   6  23
TORSDOF 12
ENDMDL
MODEL 7
REMARK VINA RESULT:      -6.1      1.781      3.574
REMARK  Name = 
REMARK  13 active torsions:
REMARK  status: ('A' for Active; 'I' for Inactive)
REMARK    1  A    between atoms: C_1  and  O_2
REMARK    2  A    between atoms: O_2  and  C_3
REMARK    3  A    between atoms: C_5  and  C_6
REMARK    4  A    between atoms: C_6  and  C_7
REMARK    5  A    between atoms: C_17  and  O_18
REMARK    6  A    between atoms: O_18  and  C_19
REMARK    7  A    between atoms: C_19  and  C_20
REMARK    8  A    between atoms: C_20  and  C_21
REMARK    9  A    between atoms: C_21  and  C_22
REMARK   10  A    between atoms: C_22  and  C_24
REMARK   11  A    between atoms: C_22  and  C_29
REMARK   12  A    between atoms: C_24  and  C_25
REMARK   13  A    between atoms: C_25  and  C_26
REMARK                            x       y       z     vdW  Elec       q    Type
REMARK                         _______ _______ _______ _____ _____    ______ ____
ROOT
ATOM      1  C   UNL     1       7.699  -3.211  22.404  0.00  0.00    +0.138 A 
ATOM      2  C   UNL     1       8.036  -4.284  23.258  0.00  0.00    +0.101 A 
ATOM      3 BR   UNL     1       7.032  -5.895  23.128  0.00  0.00    -0.043 Br
ATOM      4  C   UNL     1       9.046  -4.101  24.205  0.00  0.00    +0.138 A 
ATOM      5  C   UNL     1       9.641  -2.834  24.320  0.00  0.00    +0.051 A 
ATOM      6  C   UNL     1       9.485  -1.846  23.336  0.00  0.00    -0.036 A 
ATOM      7  C   UNL     1       8.473  -2.039  22.395  0.00  0.00    +0.051 A 
ENDROOT
BRANCH   1   9
ATOM      8  C   UNL     1       5.376  -3.063  22.092  0.00  0.00    +0.277 C 
ATOM      9  O   UNL     1       6.651  -3.364  21.525  0.00  0.00    -0.494 OA
ENDBRANCH   1   9
BRANCH   4  10
ATOM     10  O   UNL     1       9.541  -4.996  25.112  0.00  0.00    -0.491 OA
BRANCH  10  11
ATOM     11  C   UNL     1       9.142  -4.947  26.494  0.00  0.00    +0.229 C 
BRANCH  11  12
ATOM     12  C   UNL     1       7.676  -5.254  26.830  0.00  0.00    +0.042 C 
BRANCH  12  13
ATOM     13  C   UNL     1       6.811  -4.039  27.183  0.00  0.00    +0.012 C 
BRANCH  13  14
ATOM     14  C   UNL     1       6.066  -3.321  26.026  0.00  0.00    +0.035 C 
BRANCH  14  15
ATOM     15  C   UNL     1       6.679  -1.909  26.047  0.00  0.00    +0.045 C 
ATOM     16  O   UNL     1       7.583  -1.616  26.863  0.00  0.00    -0.550 OA
ATOM     17  O   UNL     1       6.373  -1.175  25.044  0.00  0.00    -0.550 OA
ENDBRANCH  14  15
BRANCH  14  18
ATOM     18  C   UNL     1       4.537  -3.381  26.175  0.00  0.00    +0.015 C 
BRANCH  18  19
ATOM     19  C   UNL     1       4.042  -4.773  26.580  0.00  0.00    +0.052 C 
BRANCH  19  20
ATOM     20  C   UNL     1       4.091  -5.864  25.500  0.00  0.00    +0.042 C 
ATOM     21  O   UNL     1       4.682  -6.926  25.858  0.00  0.00    -0.550 OA
ATOM     22  O   UNL     1       3.521  -5.603  24.404  0.00  0.00    -0.550 OA
ENDBRANCH  19  20
ENDBRANCH  18  19
ENDBRANCH  14  18
ENDBRANCH  13  14
ENDBRANCH  12  13
ENDBRANCH  11  12
ENDBRANCH  10  11
ENDBRANCH   4  10
BRANCH   6  23
ATOM     23  C   UNL     1      10.424  -0.644  23.236  0.00  0.00    +0.080 C 
BRANCH  23  24
ATOM     24  C   UNL     1       9.722   0.693  23.072  0.00  0.00    +0.060 A 
ATOM     25  C   UNL     1       8.931   1.311  24.043  0.00  0.00    +0.133 A 
ATOM     26  N   UNL     1       8.907   0.869  25.361  0.00  0.00    -0.343 N 
ATOM     27  H   UNL     1       8.680  -0.108  25.484  0.00  0.00    +0.144 HD
ATOM     28  H   UNL     1       8.285   1.475  25.890  0.00  0.00    +0.144 HD
ATOM     29  N   UNL     1       8.234   2.446  23.816  0.00  0.00    -0.157 NA
ATOM     30  C   UNL     1       8.390   3.040  22.610  0.00  0.00    +0.371 A 
ATOM     31  N   UNL     1       7.647   4.154  22.287  0.00  0.00    -0.288 N 
ATOM     32  H   UNL     1       6.806   4.257  22.838  0.00  0.00    +0.149 HD
ATOM     33  H   UNL     1       7.554   4.364  21.289  0.00  0.00    +0.149 HD
ATOM     34  N   UNL     1       9.245   2.575  21.730  0.00  0.00    -0.181 N 
ATOM     35  H   UNL     1       9.418   3.080  20.830  0.00  0.00    +0.456 HD
ATOM     36  C   UNL     1       9.899   1.443  21.928  0.00  0.00    +0.317 A 
ENDBRANCH  23  24
ENDBRANCH   6  23
TORSDOF 12
ENDMDL
MODEL 8
REMARK VINA RESULT:      -6.0      1.881      3.797
REMARK  Name = 
REMARK  13 active torsions:
REMARK  status: ('A' for Active; 'I' for Inactive)
REMARK    1  A    between atoms: C_1  and  O_2
REMARK    2  A    between atoms: O_2  and  C_3
REMARK    3  A    between atoms: C_5  and  C_6
REMARK    4  A    between atoms: C_6  and  C_7
REMARK    5  A    between atoms: C_17  and  O_18
REMARK    6  A    between atoms: O_18  and  C_19
REMARK    7  A    between atoms: C_19  and  C_20
REMARK    8  A    between atoms: C_20  and  C_21
REMARK    9  A    between atoms: C_21  and  C_22
REMARK   10  A    between atoms: C_22  and  C_24
REMARK   11  A    between atoms: C_22  and  C_29
REMARK   12  A    between atoms: C_24  and  C_25
REMARK   13  A    between atoms: C_25  and  C_26
REMARK                            x       y       z     vdW  Elec       q    Type
REMARK                         _______ _______ _______ _____ _____    ______ ____
ROOT
ATOM      1  C   UNL     1       6.903  -3.781  22.404  0.00  0.00    +0.138 A 
ATOM      2  C   UNL     1       6.980  -4.537  23.594  0.00  0.00    +0.101 A 
ATOM      3 BR   UNL     1       5.648  -5.857  23.918  0.00  0.00    -0.043 Br
ATOM      4  C   UNL     1       7.990  -4.246  24.514  0.00  0.00    +0.138 A 
ATOM      5  C   UNL     1       8.848  -3.165  24.254  0.00  0.00    +0.051 A 
ATOM      6  C   UNL     1       8.931  -2.568  22.986  0.00  0.00    -0.036 A 
ATOM      7  C   UNL     1       7.916  -2.866  22.075  0.00  0.00    +0.051 A 
ENDROOT
BRANCH   1   9
ATOM      8  C   UNL     1       6.068  -5.133  20.674  0.00  0.00    +0.277 C 
ATOM      9  O   UNL     1       5.861  -4.014  21.535  0.00  0.00    -0.494 OA
ENDBRANCH   1   9
BRANCH   4  10
ATOM     10  O   UNL     1       8.261  -4.853  25.708  0.00  0.00    -0.491 OA
BRANCH  10  11
ATOM     11  C   UNL     1       7.809  -4.280  26.949  0.00  0.00    +0.229 C 
BRANCH  11  12
ATOM     12  C   UNL     1       6.308  -4.001  27.108  0.00  0.00    +0.042 C 
BRANCH  12  13
ATOM     13  C   UNL     1       5.904  -2.523  27.079  0.00  0.00    +0.012 C 
BRANCH  13  14
ATOM     14  C   UNL     1       6.658  -1.586  26.097  0.00  0.00    +0.035 C 
BRANCH  14  15
ATOM     15  C   UNL     1       7.429  -0.648  27.044  0.00  0.00    +0.045 C 
ATOM     16  O   UNL     1       8.667  -0.497  26.927  0.00  0.00    -0.550 OA
ATOM     17  O   UNL     1       6.693   0.115  27.762  0.00  0.00    -0.550 OA
ENDBRANCH  14  15
BRANCH  14  18
ATOM     18  C   UNL     1       5.719  -0.892  25.098  0.00  0.00    +0.015 C 
BRANCH  18  19
ATOM     19  C   UNL     1       6.467   0.043  24.142  0.00  0.00    +0.052 C 
BRANCH  19  20
ATOM     20  C   UNL     1       5.998   1.505  24.101  0.00  0.00    +0.042 C 
ATOM     21  O   UNL     1       5.787   2.017  25.240  0.00  0.00    -0.550 OA
ATOM     22  O   UNL     1       5.907   2.040  22.961  0.00  0.00    -0.550 OA
ENDBRANCH  19  20
ENDBRANCH  18  19
ENDBRANCH  14  18
ENDBRANCH  13  14
ENDBRANCH  12  13
ENDBRANCH  11  12
ENDBRANCH  10  11
ENDBRANCH   4  10
BRANCH   6  23
ATOM     23  C   UNL     1      10.113  -1.690  22.577  0.00  0.00    +0.080 C 
BRANCH  23  24
ATOM     24  C   UNL     1       9.836  -0.197  22.622  0.00  0.00    +0.060 A 
ATOM     25  C   UNL     1      10.019   0.623  23.737  0.00  0.00    +0.133 A 
ATOM     26  N   UNL     1      10.712   0.190  24.861  0.00  0.00    -0.343 N 
ATOM     27  H   UNL     1      10.372  -0.668  25.273  0.00  0.00    +0.144 HD
ATOM     28  H   UNL     1      10.741   0.952  25.533  0.00  0.00    +0.144 HD
ATOM     29  N   UNL     1       9.653   1.924  23.766  0.00  0.00    -0.157 NA
ATOM     30  C   UNL     1       9.165   2.457  22.622  0.00  0.00    +0.371 A 
ATOM     31  N   UNL     1       8.701   3.754  22.608  0.00  0.00    -0.288 N 
ATOM     32  H   UNL     1       8.452   4.108  23.522  0.00  0.00    +0.149 HD
ATOM     33  H   UNL     1       8.062   3.999  21.847  0.00  0.00    +0.149 HD
ATOM     34  N   UNL     1       9.125   1.761  21.511  0.00  0.00    -0.181 N 
ATOM     35  H   UNL     1       8.820   2.201  20.612  0.00  0.00    +0.456 HD
ATOM     36  C   UNL     1       9.442   0.477  21.485  0.00  0.00    +0.317 A 
ENDBRANCH  23  24
ENDBRANCH   6  23
TORSDOF 12
ENDMDL
MODEL 9
REMARK VINA RESULT:      -5.9      2.901      5.305
REMARK  Name = 
REMARK  13 active torsions:
REMARK  status: ('A' for Active; 'I' for Inactive)
REMARK    1  A    between atoms: C_1  and  O_2
REMARK    2  A    between atoms: O_2  and  C_3
REMARK    3  A    between atoms: C_5  and  C_6
REMARK    4  A    between atoms: C_6  and  C_7
REMARK    5  A    between atoms: C_17  and  O_18
REMARK    6  A    between atoms: O_18  and  C_19
REMARK    7  A    between atoms: C_19  and  C_20
REMARK    8  A    between atoms: C_20  and  C_21
REMARK    9  A    between atoms: C_21  and  C_22
REMARK   10  A    between atoms: C_22  and  C_24
REMARK   11  A    between atoms: C_22  and  C_29
REMARK   12  A    between atoms: C_24  and  C_25
REMARK   13  A    between atoms: C_25  and  C_26
REMARK                            x       y       z     vdW  Elec       q    Type
REMARK                         _______ _______ _______ _____ _____    ______ ____
ROOT
ATOM      1  C   UNL     1       6.285  -3.902  22.787  0.00  0.00    +0.138 A 
ATOM      2  C   UNL     1       5.522  -3.164  23.718  0.00  0.00    +0.101 A 
ATOM      3 BR   UNL     1       3.923  -3.939  24.397  0.00  0.00    -0.043 Br
ATOM      4  C   UNL     1       5.934  -1.873  24.056  0.00  0.00    +0.138 A 
ATOM      5  C   UNL     1       7.052  -1.330  23.403  0.00  0.00    +0.051 A 
ATOM      6  C   UNL     1       7.943  -2.124  22.665  0.00  0.00    -0.036 A 
ATOM      7  C   UNL     1       7.520  -3.412  22.333  0.00  0.00    +0.051 A 
ENDROOT
BRANCH   1   9
ATOM      8  C   UNL     1       6.446  -5.623  21.196  0.00  0.00    +0.277 C 
ATOM      9  O   UNL     1       5.836  -5.141  22.393  0.00  0.00    -0.494 OA
ENDBRANCH   1   9
BRANCH   4  10
ATOM     10  O   UNL     1       5.365  -0.995  24.936  0.00  0.00    -0.491 OA
BRANCH  10  11
ATOM     11  C   UNL     1       5.886  -0.842  26.269  0.00  0.00    +0.229 C 
BRANCH  11  12
ATOM     12  C   UNL     1       6.020   0.581  26.830  0.00  0.00    +0.042 C 
BRANCH  12  13
ATOM     13  C   UNL     1       7.226   1.380  26.321  0.00  0.00    +0.012 C 
BRANCH  13  14
ATOM     14  C   UNL     1       6.959   2.529  25.311  0.00  0.00    +0.035 C 
BRANCH  14  15
ATOM     15  C   UNL     1       7.536   3.760  26.034  0.00  0.00    +0.045 C 
ATOM     16  O   UNL     1       7.562   3.814  27.285  0.00  0.00    -0.550 OA
ATOM     17  O   UNL     1       8.181   4.571  25.282  0.00  0.00    -0.550 OA
ENDBRANCH  14  15
BRANCH  14  18
ATOM     18  C   UNL     1       5.480   2.633  24.905  0.00  0.00    +0.015 C 
BRANCH  18  19
ATOM     19  C   UNL     1       5.290   2.649  23.385  0.00  0.00    +0.052 C 
BRANCH  19  20
ATOM     20  C   UNL     1       5.999   3.772  22.613  0.00  0.00    +0.042 C 
ATOM     21  O   UNL     1       5.549   4.933  22.853  0.00  0.00    -0.550 OA
ATOM     22  O   UNL     1       6.955   3.431  21.863  0.00  0.00    -0.550 OA
ENDBRANCH  19  20
ENDBRANCH  18  19
ENDBRANCH  14  18
ENDBRANCH  13  14
ENDBRANCH  12  13
ENDBRANCH  11  12
ENDBRANCH  10  11
ENDBRANCH   4  10
BRANCH   6  23
ATOM     23  C   UNL     1       9.348  -1.646  22.299  0.00  0.00    +0.080 C 
BRANCH  23  24
ATOM     24  C   UNL     1       9.590  -0.165  22.531  0.00  0.00    +0.060 A 
ATOM     25  C   UNL     1       9.986   0.407  23.742  0.00  0.00    +0.133 A 
ATOM     26  N   UNL     1      10.437  -0.365  24.806  0.00  0.00    -0.343 N 
ATOM     27  H   UNL     1       9.807  -1.097  25.105  0.00  0.00    +0.144 HD
ATOM     28  H   UNL     1      10.689   0.257  25.569  0.00  0.00    +0.144 HD
ATOM     29  N   UNL     1      10.081   1.742  23.934  0.00  0.00    -0.157 NA
ATOM     30  C   UNL     1       9.858   2.539  22.863  0.00  0.00    +0.371 A 
ATOM     31  N   UNL     1       9.861   3.909  23.011  0.00  0.00    -0.288 N 
ATOM     32  H   UNL     1       9.704   4.218  23.960  0.00  0.00    +0.149 HD
ATOM     33  H   UNL     1       9.381   4.445  22.283  0.00  0.00    +0.149 HD
ATOM     34  N   UNL     1       9.639   2.034  21.673  0.00  0.00    -0.181 N 
ATOM     35  H   UNL     1       9.544   2.653  20.835  0.00  0.00    +0.456 HD
ATOM     36  C   UNL     1       9.503   0.732  21.486  0.00  0.00    +0.317 A 
ENDBRANCH  23  24
ENDBRANCH   6  23
TORSDOF 12
ENDMDL
