MODEL 1
REMARK VINA RESULT:      -6.3      0.000      0.000
REMARK  Name = 
REMARK  7 active torsions:
REMARK  status: ('A' for Active; 'I' for Inactive)
REMARK    1  A    between atoms: C_1  and  C_2
REMARK    2  A    between atoms: C_3  and  C_4
REMARK    3  A    between atoms: C_4  and  C_5
REMARK    4  A    between atoms: C_5  and  O_6
REMARK    5  A    between atoms: N_9  and  C_10
REMARK    6  A    between atoms: C_10  and  C_11
REMARK    7  A    between atoms: C_14  and  C_15
REMARK                            x       y       z     vdW  Elec       q    Type
REMARK                         _______ _______ _______ _____ _____    ______ ____
ROOT
ATOM      1  C   UNL     1      10.043  -2.489  23.557  0.00  0.00    +0.399 C 
ENDROOT
BRANCH   1   2
ATOM      2  C   UNL     1      10.012  -0.993  23.501  0.00  0.00    +0.075 A 
ATOM      3  C   UNL     1       9.948  -0.256  22.331  0.00  0.00    +0.129 A 
ATOM      4  N   UNL     1       9.651  -0.850  21.103  0.00  0.00    -0.343 N 
ATOM      5  H   UNL     1       8.674  -1.135  21.094  0.00  0.00    +0.144 HD
ATOM      6  H   UNL     1       9.717  -0.077  20.430  0.00  0.00    +0.144 HD
ATOM      7  N   UNL     1      10.101   1.072  22.304  0.00  0.00    -0.218 NA
ATOM      8  C   UNL     1      10.226   1.706  23.481  0.00  0.00    +0.128 A 
ATOM      9  C   UNL     1      10.533   3.173  23.488  0.00  0.00    +0.088 C 
ATOM     10  N   UNL     1      10.112   1.096  24.672  0.00  0.00    -0.240 NA
ATOM     11  C   UNL     1      10.007  -0.239  24.654  0.00  0.00    +0.126 A 
ENDBRANCH   1   2
BRANCH   1  14
ATOM     12  C   UNL     1       9.624  -4.990  25.227  0.00  0.00    +0.122 C 
ATOM     13  C   UNL     1       8.491  -4.192  24.688  0.00  0.00    +0.191 A 
ATOM     14  N   UNL     1       8.724  -3.099  23.844  0.00  0.00    -0.190 N 
ATOM     15  C   UNL     1       7.618  -2.514  23.407  0.00  0.00    +0.357 A 
ATOM     16  S   UNL     1       6.215  -3.234  24.058  0.00  0.00    -0.027 S 
ATOM     17  C   UNL     1       7.143  -4.351  24.971  0.00  0.00    +0.064 A 
BRANCH  17  18
ATOM     18  C   UNL     1       6.456  -5.316  25.911  0.00  0.00    +0.076 C 
BRANCH  18  19
ATOM     19  C   UNL     1       6.768  -5.024  27.372  0.00  0.00    +0.161 C 
BRANCH  19  20
ATOM     20  O   UNL     1       7.553  -6.087  27.902  0.00  0.00    -0.395 OA
ATOM     21  H   UNL     1       7.358  -6.880  27.365  0.00  0.00    +0.209 HD
ENDBRANCH  19  20
ENDBRANCH  18  19
ENDBRANCH  17  18
ENDBRANCH   1  14
TORSDOF 5
ENDMDL
MODEL 2
REMARK VINA RESULT:      -6.1      3.454      6.607
REMARK  Name = 
REMARK  7 active torsions:
REMARK  status: ('A' for Active; 'I' for Inactive)
REMARK    1  A    between atoms: C_1  and  C_2
REMARK    2  A    between atoms: C_3  and  C_4
REMARK    3  A    between atoms: C_4  and  C_5
REMARK    4  A    between atoms: C_5  and  O_6
REMARK    5  A    between atoms: N_9  and  C_10
REMARK    6  A    between atoms: C_10  and  C_11
REMARK    7  A    between atoms: C_14  and  C_15
REMARK                            x       y       z     vdW  Elec       q    Type
REMARK                         _______ _______ _______ _____ _____    ______ ____
ROOT
ATOM      1  C   UNL     1       8.079  -4.241  23.717  0.00  0.00    +0.399 C 
ENDROOT
BRANCH   1   2
ATOM      2  C   UNL     1       7.626  -4.491  25.122  0.00  0.00    +0.075 A 
ATOM      3  C   UNL     1       8.310  -5.276  26.034  0.00  0.00    +0.129 A 
ATOM      4  N   UNL     1       9.620  -5.701  25.804  0.00  0.00    -0.343 N 
ATOM      5  H   UNL     1      10.249  -4.904  25.867  0.00  0.00    +0.144 HD
ATOM      6  H   UNL     1       9.838  -6.288  26.618  0.00  0.00    +0.144 HD
ATOM      7  N   UNL     1       7.794  -5.624  27.218  0.00  0.00    -0.218 NA
ATOM      8  C   UNL     1       6.602  -5.103  27.552  0.00  0.00    +0.128 A 
ATOM      9  C   UNL     1       5.928  -5.573  28.806  0.00  0.00    +0.088 C 
ATOM     10  N   UNL     1       5.954  -4.189  26.812  0.00  0.00    -0.240 NA
ATOM     11  C   UNL     1       6.482  -3.903  25.614  0.00  0.00    +0.126 A 
ENDBRANCH   1   2
BRANCH   1  14
ATOM     12  C   UNL     1       6.491  -1.955  22.504  0.00  0.00    +0.122 C 
ATOM     13  C   UNL     1       7.869  -1.776  23.032  0.00  0.00    +0.191 A 
ATOM     14  N   UNL     1       8.604  -2.873  23.497  0.00  0.00    -0.190 N 
ATOM     15  C   UNL     1       9.831  -2.567  23.895  0.00  0.00    +0.357 A 
ATOM     16  S   UNL     1      10.139  -0.893  23.780  0.00  0.00    -0.027 S 
ATOM     17  C   UNL     1       8.556  -0.583  23.196  0.00  0.00    +0.064 A 
BRANCH  17  18
ATOM     18  C   UNL     1       8.108   0.839  22.941  0.00  0.00    +0.076 C 
BRANCH  18  19
ATOM     19  C   UNL     1       8.430   1.302  21.527  0.00  0.00    +0.161 C 
BRANCH  19  20
ATOM     20  O   UNL     1       9.663   2.014  21.540  0.00  0.00    -0.395 OA
ATOM     21  H   UNL     1       9.708   2.490  22.392  0.00  0.00    +0.209 HD
ENDBRANCH  19  20
ENDBRANCH  18  19
ENDBRANCH  17  18
ENDBRANCH   1  14
TORSDOF 5
ENDMDL
MODEL 3
REMARK VINA RESULT:      -6.0      3.349      6.709
REMARK  Name = 
REMARK  7 active torsions:
REMARK  status: ('A' for Active; 'I' for Inactive)
REMARK    1  A    between atoms: C_1  and  C_2
REMARK    2  A    between atoms: C_3  and  C_4
REMARK    3  A    between atoms: C_4  and  C_5
REMARK    4  A    between atoms: C_5  and  O_6
REMARK    5  A    between atoms: N_9  and  C_10
REMARK    6  A    between atoms: C_10  and  C_11
REMARK    7  A    between atoms: C_14  and  C_15
REMARK                            x       y       z     vdW  Elec       q    Type
REMARK                         _______ _______ _______ _____ _____    ______ ____
ROOT
ATOM      1  C   UNL     1       9.291  -3.341  24.317  0.00  0.00    +0.399 C 
ENDROOT
BRANCH   1   2
ATOM      2  C   UNL     1       8.170  -4.107  24.949  0.00  0.00    +0.075 A 
ATOM      3  C   UNL     1       8.314  -4.939  26.046  0.00  0.00    +0.129 A 
ATOM      4  N   UNL     1       9.475  -4.941  26.821  0.00  0.00    -0.343 N 
ATOM      5  H   UNL     1       9.531  -4.071  27.347  0.00  0.00    +0.144 HD
ATOM      6  H   UNL     1       9.307  -5.674  27.520  0.00  0.00    +0.144 HD
ATOM      7  N   UNL     1       7.335  -5.743  26.476  0.00  0.00    -0.218 NA
ATOM      8  C   UNL     1       6.145  -5.655  25.862  0.00  0.00    +0.128 A 
ATOM      9  C   UNL     1       5.066  -6.631  26.223  0.00  0.00    +0.088 C 
ATOM     10  N   UNL     1       5.860  -4.747  24.914  0.00  0.00    -0.240 NA
ATOM     11  C   UNL     1       6.879  -3.993  24.480  0.00  0.00    +0.126 A 
ENDBRANCH   1   2
BRANCH   1  14
ATOM     12  C   UNL     1       9.234  -1.496  21.906  0.00  0.00    +0.122 C 
ATOM     13  C   UNL     1       8.991  -1.008  23.290  0.00  0.00    +0.191 A 
ATOM     14  N   UNL     1       9.118  -1.872  24.384  0.00  0.00    -0.190 N 
ATOM     15  C   UNL     1       8.915  -1.286  25.556  0.00  0.00    +0.357 A 
ATOM     16  S   UNL     1       8.491   0.358  25.382  0.00  0.00    -0.027 S 
ATOM     17  C   UNL     1       8.566   0.255  23.671  0.00  0.00    +0.064 A 
BRANCH  17  18
ATOM     18  C   UNL     1       8.195   1.452  22.824  0.00  0.00    +0.076 C 
BRANCH  18  19
ATOM     19  C   UNL     1       9.338   2.450  22.699  0.00  0.00    +0.161 C 
BRANCH  19  20
ATOM     20  O   UNL     1      10.104   2.139  21.540  0.00  0.00    -0.395 OA
ATOM     21  H   UNL     1       9.750   1.302  21.181  0.00  0.00    +0.209 HD
ENDBRANCH  19  20
ENDBRANCH  18  19
ENDBRANCH  17  18
ENDBRANCH   1  14
TORSDOF 5
ENDMDL
MODEL 4
REMARK VINA RESULT:      -6.0      3.544      6.755
REMARK  Name = 
REMARK  7 active torsions:
REMARK  status: ('A' for Active; 'I' for Inactive)
REMARK    1  A    between atoms: C_1  and  C_2
REMARK    2  A    between atoms: C_3  and  C_4
REMARK    3  A    between atoms: C_4  and  C_5
REMARK    4  A    between atoms: C_5  and  O_6
REMARK    5  A    between atoms: N_9  and  C_10
REMARK    6  A    between atoms: C_10  and  C_11
REMARK    7  A    between atoms: C_14  and  C_15
REMARK                            x       y       z     vdW  Elec       q    Type
REMARK                         _______ _______ _______ _____ _____    ______ ____
ROOT
ATOM      1  C   UNL     1       8.684  -2.204  26.203  0.00  0.00    +0.399 C 
ENDROOT
BRANCH   1   2
ATOM      2  C   UNL     1       7.776  -3.379  26.396  0.00  0.00    +0.075 A 
ATOM      3  C   UNL     1       8.200  -4.696  26.435  0.00  0.00    +0.129 A 
ATOM      4  N   UNL     1       9.550  -5.031  26.553  0.00  0.00    -0.343 N 
ATOM      5  H   UNL     1       9.877  -4.794  27.486  0.00  0.00    +0.144 HD
ATOM      6  H   UNL     1       9.557  -6.057  26.512  0.00  0.00    +0.144 HD
ATOM      7  N   UNL     1       7.351  -5.730  26.430  0.00  0.00    -0.218 NA
ATOM      8  C   UNL     1       6.038  -5.453  26.483  0.00  0.00    +0.128 A 
ATOM      9  C   UNL     1       5.053  -6.575  26.343  0.00  0.00    +0.088 C 
ATOM     10  N   UNL     1       5.542  -4.215  26.635  0.00  0.00    -0.240 NA
ATOM     11  C   UNL     1       6.423  -3.206  26.589  0.00  0.00    +0.126 A 
ENDBRANCH   1   2
BRANCH   1  14
ATOM     12  C   UNL     1       7.117   0.094  24.987  0.00  0.00    +0.122 C 
ATOM     13  C   UNL     1       8.159  -0.649  24.230  0.00  0.00    +0.191 A 
ATOM     14  N   UNL     1       8.793  -1.763  24.794  0.00  0.00    -0.190 N 
ATOM     15  C   UNL     1       9.665  -2.349  23.986  0.00  0.00    +0.357 A 
ATOM     16  S   UNL     1       9.807  -1.528  22.497  0.00  0.00    -0.027 S 
ATOM     17  C   UNL     1       8.670  -0.338  22.980  0.00  0.00    +0.064 A 
BRANCH  17  18
ATOM     18  C   UNL     1       8.365   0.831  22.070  0.00  0.00    +0.076 C 
BRANCH  18  19
ATOM     19  C   UNL     1       9.135   2.086  22.461  0.00  0.00    +0.161 C 
BRANCH  19  20
ATOM     20  O   UNL     1      10.234   2.253  21.571  0.00  0.00    -0.395 OA
ATOM     21  H   UNL     1      10.762   3.003  21.908  0.00  0.00    +0.209 HD
ENDBRANCH  19  20
ENDBRANCH  18  19
ENDBRANCH  17  18
ENDBRANCH   1  14
TORSDOF 5
ENDMDL
MODEL 5
REMARK VINA RESULT:      -5.9      1.922      2.341
REMARK  Name = 
REMARK  7 active torsions:
REMARK  status: ('A' for Active; 'I' for Inactive)
REMARK    1  A    between atoms: C_1  and  C_2
REMARK    2  A    between atoms: C_3  and  C_4
REMARK    3  A    between atoms: C_4  and  C_5
REMARK    4  A    between atoms: C_5  and  O_6
REMARK    5  A    between atoms: N_9  and  C_10
REMARK    6  A    between atoms: C_10  and  C_11
REMARK    7  A    between atoms: C_14  and  C_15
REMARK                            x       y       z     vdW  Elec       q    Type
REMARK                         _______ _______ _______ _____ _____    ______ ____
ROOT
ATOM      1  C   UNL     1       9.815  -2.598  23.749  0.00  0.00    +0.399 C 
ENDROOT
BRANCH   1   2
ATOM      2  C   UNL     1       9.875  -1.107  23.624  0.00  0.00    +0.075 A 
ATOM      3  C   UNL     1       9.950  -0.426  22.421  0.00  0.00    +0.129 A 
ATOM      4  N   UNL     1       9.720  -1.062  21.200  0.00  0.00    -0.343 N 
ATOM      5  H   UNL     1       8.732  -1.295  21.122  0.00  0.00    +0.144 HD
ATOM      6  H   UNL     1       9.885  -0.329  20.501  0.00  0.00    +0.144 HD
ATOM      7  N   UNL     1      10.179   0.890  22.348  0.00  0.00    -0.218 NA
ATOM      8  C   UNL     1      10.244   1.572  23.502  0.00  0.00    +0.128 A 
ATOM      9  C   UNL     1      10.633   3.020  23.470  0.00  0.00    +0.088 C 
ATOM     10  N   UNL     1       9.999   1.029  24.705  0.00  0.00    -0.240 NA
ATOM     11  C   UNL     1       9.818  -0.298  24.739  0.00  0.00    +0.126 A 
ENDBRANCH   1   2
BRANCH   1  14
ATOM     12  C   UNL     1       7.201  -3.105  22.290  0.00  0.00    +0.122 C 
ATOM     13  C   UNL     1       7.386  -3.425  23.730  0.00  0.00    +0.191 A 
ATOM     14  N   UNL     1       8.574  -3.090  24.390  0.00  0.00    -0.190 N 
ATOM     15  C   UNL     1       8.576  -3.397  25.680  0.00  0.00    +0.357 A 
ATOM     16  S   UNL     1       7.134  -4.177  26.152  0.00  0.00    -0.027 S 
ATOM     17  C   UNL     1       6.509  -4.111  24.556  0.00  0.00    +0.064 A 
BRANCH  17  18
ATOM     18  C   UNL     1       5.177  -4.753  24.238  0.00  0.00    +0.076 C 
BRANCH  18  19
ATOM     19  C   UNL     1       5.331  -6.065  23.480  0.00  0.00    +0.161 C 
BRANCH  19  20
ATOM     20  O   UNL     1       4.545  -6.013  22.295  0.00  0.00    -0.395 OA
ATOM     21  H   UNL     1       4.610  -5.101  21.950  0.00  0.00    +0.209 HD
ENDBRANCH  19  20
ENDBRANCH  18  19
ENDBRANCH  17  18
ENDBRANCH   1  14
TORSDOF 5
ENDMDL
MODEL 6
REMARK VINA RESULT:      -5.6      1.604      2.371
REMARK  Name = 
REMARK  7 active torsions:
REMARK  status: ('A' for Active; 'I' for Inactive)
REMARK    1  A    between atoms: C_1  and  C_2
REMARK    2  A    between atoms: C_3  and  C_4
REMARK    3  A    between atoms: C_4  and  C_5
REMARK    4  A    between atoms: C_5  and  O_6
REMARK    5  A    between atoms: N_9  and  C_10
REMARK    6  A    between atoms: C_10  and  C_11
REMARK    7  A    between atoms: C_14  and  C_15
REMARK                            x       y       z     vdW  Elec       q    Type
REMARK                         _______ _______ _______ _____ _____    ______ ____
ROOT
ATOM      1  C   UNL     1       9.507  -3.581  24.493  0.00  0.00    +0.399 C 
ENDROOT
BRANCH   1   2
ATOM      2  C   UNL     1       9.579  -2.185  23.955  0.00  0.00    +0.075 A 
ATOM      3  C   UNL     1       9.060  -1.074  24.597  0.00  0.00    +0.129 A 
ATOM      4  N   UNL     1       8.644  -1.120  25.928  0.00  0.00    -0.343 N 
ATOM      5  H   UNL     1       9.457  -1.213  26.533  0.00  0.00    +0.144 HD
ATOM      6  H   UNL     1       8.276  -0.178  26.108  0.00  0.00    +0.144 HD
ATOM      7  N   UNL     1       8.983   0.127  24.013  0.00  0.00    -0.218 NA
ATOM      8  C   UNL     1       9.521   0.258  22.790  0.00  0.00    +0.128 A 
ATOM      9  C   UNL     1       9.337   1.547  22.048  0.00  0.00    +0.088 C 
ATOM     10  N   UNL     1      10.208  -0.715  22.170  0.00  0.00    -0.240 NA
ATOM     11  C   UNL     1      10.222  -1.914  22.767  0.00  0.00    +0.126 A 
ENDBRANCH   1   2
BRANCH   1  14
ATOM     12  C   UNL     1       7.909  -4.758  26.790  0.00  0.00    +0.122 C 
ATOM     13  C   UNL     1       7.367  -4.663  25.409  0.00  0.00    +0.191 A 
ATOM     14  N   UNL     1       8.168  -4.201  24.358  0.00  0.00    -0.190 N 
ATOM     15  C   UNL     1       7.565  -4.214  23.178  0.00  0.00    +0.357 A 
ATOM     16  S   UNL     1       5.946  -4.739  23.296  0.00  0.00    -0.027 S 
ATOM     17  C   UNL     1       6.071  -4.929  24.996  0.00  0.00    +0.064 A 
BRANCH  17  18
ATOM     18  C   UNL     1       4.858  -5.334  25.804  0.00  0.00    +0.076 C 
BRANCH  18  19
ATOM     19  C   UNL     1       4.743  -6.845  25.958  0.00  0.00    +0.161 C 
BRANCH  19  20
ATOM     20  O   UNL     1       5.204  -7.217  27.253  0.00  0.00    -0.395 OA
ATOM     21  H   UNL     1       4.528  -6.919  27.892  0.00  0.00    +0.209 HD
ENDBRANCH  19  20
ENDBRANCH  18  19
ENDBRANCH  17  18
ENDBRANCH   1  14
TORSDOF 5
ENDMDL
MODEL 7
REMARK VINA RESULT:      -5.6      3.501      6.369
REMARK  Name = 
REMARK  7 active torsions:
REMARK  status: ('A' for Active; 'I' for Inactive)
REMARK    1  A    between atoms: C_1  and  C_2
REMARK    2  A    between atoms: C_3  and  C_4
REMARK    3  A    between atoms: C_4  and  C_5
REMARK    4  A    between atoms: C_5  and  O_6
REMARK    5  A    between atoms: N_9  and  C_10
REMARK    6  A    between atoms: C_10  and  C_11
REMARK    7  A    between atoms: C_14  and  C_15
REMARK                            x       y       z     vdW  Elec       q    Type
REMARK                         _______ _______ _______ _____ _____    ______ ____
ROOT
ATOM      1  C   UNL     1       8.794  -0.872  22.175  0.00  0.00    +0.399 C 
ENDROOT
BRANCH   1   2
ATOM      2  C   UNL     1       8.793  -2.169  22.924  0.00  0.00    +0.075 A 
ATOM      3  C   UNL     1       7.749  -3.078  22.910  0.00  0.00    +0.129 A 
ATOM      4  N   UNL     1       6.702  -2.983  21.992  0.00  0.00    -0.343 N 
ATOM      5  H   UNL     1       7.047  -3.214  21.063  0.00  0.00    +0.144 HD
ATOM      6  H   UNL     1       6.073  -3.752  22.250  0.00  0.00    +0.144 HD
ATOM      7  N   UNL     1       7.703  -4.138  23.725  0.00  0.00    -0.218 NA
ATOM      8  C   UNL     1       8.767  -4.361  24.513  0.00  0.00    +0.128 A 
ATOM      9  C   UNL     1       8.699  -5.457  25.534  0.00  0.00    +0.088 C 
ATOM     10  N   UNL     1       9.899  -3.641  24.459  0.00  0.00    -0.240 NA
ATOM     11  C   UNL     1       9.887  -2.562  23.664  0.00  0.00    +0.126 A 
ENDBRANCH   1   2
BRANCH   1  14
ATOM     12  C   UNL     1      10.500   1.015  23.832  0.00  0.00    +0.122 C 
ATOM     13  C   UNL     1       9.037   1.211  23.655  0.00  0.00    +0.191 A 
ATOM     14  N   UNL     1       8.268   0.268  22.962  0.00  0.00    -0.190 N 
ATOM     15  C   UNL     1       6.975   0.553  22.924  0.00  0.00    +0.357 A 
ATOM     16  S   UNL     1       6.627   2.038  23.688  0.00  0.00    -0.027 S 
ATOM     17  C   UNL     1       8.282   2.302  24.056  0.00  0.00    +0.064 A 
BRANCH  17  18
ATOM     18  C   UNL     1       8.713   3.588  24.725  0.00  0.00    +0.076 C 
BRANCH  18  19
ATOM     19  C   UNL     1       9.029   4.687  23.719  0.00  0.00    +0.161 C 
BRANCH  19  20
ATOM     20  O   UNL     1      10.402   4.601  23.352  0.00  0.00    -0.395 OA
ATOM     21  H   UNL     1      10.873   5.301  23.844  0.00  0.00    +0.209 HD
ENDBRANCH  19  20
ENDBRANCH  18  19
ENDBRANCH  17  18
ENDBRANCH   1  14
TORSDOF 5
ENDMDL
MODEL 8
REMARK VINA RESULT:      -5.5      3.870      6.703
REMARK  Name = 
REMARK  7 active torsions:
REMARK  status: ('A' for Active; 'I' for Inactive)
REMARK    1  A    between atoms: C_1  and  C_2
REMARK    2  A    between atoms: C_3  and  C_4
REMARK    3  A    between atoms: C_4  and  C_5
REMARK    4  A    between atoms: C_5  and  O_6
REMARK    5  A    between atoms: N_9  and  C_10
REMARK    6  A    between atoms: C_10  and  C_11
REMARK    7  A    between atoms: C_14  and  C_15
REMARK                            x       y       z     vdW  Elec       q    Type
REMARK                         _______ _______ _______ _____ _____    ______ ____
ROOT
ATOM      1  C   UNL     1       9.366  -1.756  24.438  0.00  0.00    +0.399 C 
ENDROOT
BRANCH   1   2
ATOM      2  C   UNL     1       8.592  -2.888  23.836  0.00  0.00    +0.075 A 
ATOM      3  C   UNL     1       8.708  -4.209  24.230  0.00  0.00    +0.129 A 
ATOM      4  N   UNL     1       9.375  -4.572  25.402  0.00  0.00    -0.343 N 
ATOM      5  H   UNL     1       8.828  -4.276  26.207  0.00  0.00    +0.144 HD
ATOM      6  H   UNL     1       9.334  -5.598  25.405  0.00  0.00    +0.144 HD
ATOM      7  N   UNL     1       8.138  -5.217  23.559  0.00  0.00    -0.218 NA
ATOM      8  C   UNL     1       7.351  -4.901  22.518  0.00  0.00    +0.128 A 
ATOM      9  C   UNL     1       6.804  -6.001  21.659  0.00  0.00    +0.088 C 
ATOM     10  N   UNL     1       7.032  -3.641  22.179  0.00  0.00    -0.240 NA
ATOM     11  C   UNL     1       7.659  -2.663  22.847  0.00  0.00    +0.126 A 
ENDBRANCH   1   2
BRANCH   1  14
ATOM     12  C   UNL     1       7.453   0.496  25.138  0.00  0.00    +0.122 C 
ATOM     13  C   UNL     1       8.446   0.607  24.036  0.00  0.00    +0.191 A 
ATOM     14  N   UNL     1       9.245  -0.487  23.683  0.00  0.00    -0.190 N 
ATOM     15  C   UNL     1      10.049  -0.254  22.655  0.00  0.00    +0.357 A 
ATOM     16  S   UNL     1       9.917   1.352  22.094  0.00  0.00    -0.027 S 
ATOM     17  C   UNL     1       8.755   1.737  23.296  0.00  0.00    +0.064 A 
BRANCH  17  18
ATOM     18  C   UNL     1       8.229   3.150  23.415  0.00  0.00    +0.076 C 
BRANCH  18  19
ATOM     19  C   UNL     1       7.354   3.544  22.234  0.00  0.00    +0.161 C 
BRANCH  19  20
ATOM     20  O   UNL     1       7.594   4.911  21.913  0.00  0.00    -0.395 OA
ATOM     21  H   UNL     1       7.699   4.961  20.942  0.00  0.00    +0.209 HD
ENDBRANCH  19  20
ENDBRANCH  18  19
ENDBRANCH  17  18
ENDBRANCH   1  14
TORSDOF 5
ENDMDL
MODEL 9
REMARK VINA RESULT:      -5.5      3.572      6.479
REMARK  Name = 
REMARK  7 active torsions:
REMARK  status: ('A' for Active; 'I' for Inactive)
REMARK    1  A    between atoms: C_1  and  C_2
REMARK    2  A    between atoms: C_3  and  C_4
REMARK    3  A    between atoms: C_4  and  C_5
REMARK    4  A    between atoms: C_5  and  O_6
REMARK    5  A    between atoms: N_9  and  C_10
REMARK    6  A    between atoms: C_10  and  C_11
REMARK    7  A    between atoms: C_14  and  C_15
REMARK                            x       y       z     vdW  Elec       q    Type
REMARK                         _______ _______ _______ _____ _____    ______ ____
ROOT
ATOM      1  C   UNL     1       7.958  -4.781  23.810  0.00  0.00    +0.399 C 
ENDROOT
BRANCH   1   2
ATOM      2  C   UNL     1       6.502  -5.108  23.678  0.00  0.00    +0.075 A 
ATOM      3  C   UNL     1       5.904  -5.549  22.511  0.00  0.00    +0.129 A 
ATOM      4  N   UNL     1       6.655  -5.974  21.414  0.00  0.00    -0.343 N 
ATOM      5  H   UNL     1       7.106  -6.858  21.635  0.00  0.00    +0.144 HD
ATOM      6  H   UNL     1       5.951  -6.195  20.700  0.00  0.00    +0.144 HD
ATOM      7  N   UNL     1       4.578  -5.662  22.376  0.00  0.00    -0.218 NA
ATOM      8  C   UNL     1       3.822  -5.420  23.459  0.00  0.00    +0.128 A 
ATOM      9  C   UNL     1       2.330  -5.404  23.316  0.00  0.00    +0.088 C 
ATOM     10  N   UNL     1       4.325  -5.169  24.678  0.00  0.00    -0.240 NA
ATOM     11  C   UNL     1       5.654  -5.020  24.760  0.00  0.00    +0.126 A 
ENDBRANCH   1   2
BRANCH   1  14
ATOM     12  C   UNL     1       8.538  -3.080  26.257  0.00  0.00    +0.122 C 
ATOM     13  C   UNL     1       8.612  -2.539  24.875  0.00  0.00    +0.191 A 
ATOM     14  N   UNL     1       8.246  -3.329  23.778  0.00  0.00    -0.190 N 
ATOM     15  C   UNL     1       8.319  -2.698  22.614  0.00  0.00    +0.357 A 
ATOM     16  S   UNL     1       8.906  -1.105  22.789  0.00  0.00    -0.027 S 
ATOM     17  C   UNL     1       9.081  -1.295  24.485  0.00  0.00    +0.064 A 
BRANCH  17  18
ATOM     18  C   UNL     1       9.679  -0.179  25.313  0.00  0.00    +0.076 C 
BRANCH  18  19
ATOM     19  C   UNL     1      10.652   0.678  24.515  0.00  0.00    +0.161 C 
BRANCH  19  20
ATOM     20  O   UNL     1      10.079   1.965  24.312  0.00  0.00    -0.395 OA
ATOM     21  H   UNL     1      10.396   2.536  25.039  0.00  0.00    +0.209 HD
ENDBRANCH  19  20
ENDBRANCH  18  19
ENDBRANCH  17  18
ENDBRANCH   1  14
TORSDOF 5
ENDMDL
