MODEL 1
REMARK VINA RESULT:      -4.4      0.000      0.000
REMARK  Name = 
REMARK  3 active torsions:
REMARK  status: ('A' for Active; 'I' for Inactive)
REMARK    1  A    between atoms: C_1  and  C_2
REMARK    2  A    between atoms: C_5  and  O_7
REMARK    3  A    between atoms: C_10  and  O_12
REMARK                            x       y       z     vdW  Elec       q    Type
REMARK                         _______ _______ _______ _____ _____    ______ ____
ROOT
ATOM      1  C   UNL     1      10.737   1.864  24.143  0.00  0.00    +0.040 C 
ATOM      2  C   UNL     1       9.885   0.805  23.452  0.00  0.00    +0.147 C 
ATOM      3  C   UNL     1       9.925   0.962  21.920  0.00  0.00    +0.143 C 
ATOM      4  C   UNL     1       9.181  -0.191  21.246  0.00  0.00    +0.039 C 
ATOM      5  C   UNL     1       9.669  -1.528  21.783  0.00  0.00    +0.064 C 
ATOM      6  C   UNL     1       9.616  -1.547  23.307  0.00  0.00    +0.247 C 
ATOM      7  O   UNL     1      10.375  -0.480  23.854  0.00  0.00    -0.346 OA
ENDROOT
BRANCH   3   8
ATOM      8  O   UNL     1       9.354   2.199  21.504  0.00  0.00    -0.389 OA
ATOM      9  H   UNL     1       8.681   2.017  20.826  0.00  0.00    +0.210 HD
ENDBRANCH   3   8
BRANCH   6  10
ATOM     10  O   UNL     1      10.182  -2.762  23.757  0.00  0.00    -0.367 OA
ATOM     11  H   UNL     1      11.109  -2.542  23.950  0.00  0.00    +0.212 HD
ENDBRANCH   6  10
TORSDOF 2
ENDMDL
MODEL 2
REMARK VINA RESULT:      -4.3      1.075      3.235
REMARK  Name = 
REMARK  3 active torsions:
REMARK  status: ('A' for Active; 'I' for Inactive)
REMARK    1  A    between atoms: C_1  and  C_2
REMARK    2  A    between atoms: C_5  and  O_7
REMARK    3  A    between atoms: C_10  and  O_12
REMARK                            x       y       z     vdW  Elec       q    Type
REMARK                         _______ _______ _______ _____ _____    ______ ____
ROOT
ATOM      1  C   UNL     1       9.522  -0.135  25.575  0.00  0.00    +0.040 C 
ATOM      2  C   UNL     1       9.993  -0.192  24.125  0.00  0.00    +0.147 C 
ATOM      3  C   UNL     1       9.457  -1.446  23.408  0.00  0.00    +0.143 C 
ATOM      4  C   UNL     1       9.824  -1.409  21.925  0.00  0.00    +0.039 C 
ATOM      5  C   UNL     1       9.424  -0.077  21.308  0.00  0.00    +0.064 C 
ATOM      6  C   UNL     1       9.982   1.083  22.125  0.00  0.00    +0.247 C 
ATOM      7  O   UNL     1       9.551   1.006  23.476  0.00  0.00    -0.346 OA
ENDROOT
BRANCH   3   8
ATOM      8  O   UNL     1       9.966  -2.642  23.991  0.00  0.00    -0.389 OA
ATOM      9  H   UNL     1       9.518  -3.402  23.580  0.00  0.00    +0.210 HD
ENDBRANCH   3   8
BRANCH   6  10
ATOM     10  O   UNL     1       9.492   2.290  21.578  0.00  0.00    -0.367 OA
ATOM     11  H   UNL     1       9.417   2.114  20.625  0.00  0.00    +0.212 HD
ENDBRANCH   6  10
TORSDOF 2
ENDMDL
MODEL 3
REMARK VINA RESULT:      -4.2      2.769      4.016
REMARK  Name = 
REMARK  3 active torsions:
REMARK  status: ('A' for Active; 'I' for Inactive)
REMARK    1  A    between atoms: C_1  and  C_2
REMARK    2  A    between atoms: C_5  and  O_7
REMARK    3  A    between atoms: C_10  and  O_12
REMARK                            x       y       z     vdW  Elec       q    Type
REMARK                         _______ _______ _______ _____ _____    ______ ____
ROOT
ATOM      1  C   UNL     1      10.241  -1.619  22.828  0.00  0.00    +0.040 C 
ATOM      2  C   UNL     1       9.366  -2.503  23.711  0.00  0.00    +0.147 C 
ATOM      3  C   UNL     1       8.119  -2.997  22.952  0.00  0.00    +0.143 C 
ATOM      4  C   UNL     1       7.334  -3.990  23.808  0.00  0.00    +0.039 C 
ATOM      5  C   UNL     1       8.253  -5.079  24.342  0.00  0.00    +0.064 C 
ATOM      6  C   UNL     1       9.464  -4.466  25.038  0.00  0.00    +0.247 C 
ATOM      7  O   UNL     1      10.169  -3.601  24.160  0.00  0.00    -0.346 OA
ENDROOT
BRANCH   3   8
ATOM      8  O   UNL     1       7.268  -1.917  22.581  0.00  0.00    -0.389 OA
ATOM      9  H   UNL     1       7.696  -1.417  21.864  0.00  0.00    +0.210 HD
ENDBRANCH   3   8
BRANCH   6  10
ATOM     10  O   UNL     1      10.336  -5.511  25.415  0.00  0.00    -0.367 OA
ATOM     11  H   UNL     1      10.361  -6.100  24.642  0.00  0.00    +0.212 HD
ENDBRANCH   6  10
TORSDOF 2
ENDMDL
MODEL 4
REMARK VINA RESULT:      -4.1      5.834      6.561
REMARK  Name = 
REMARK  3 active torsions:
REMARK  status: ('A' for Active; 'I' for Inactive)
REMARK    1  A    between atoms: C_1  and  C_2
REMARK    2  A    between atoms: C_5  and  O_7
REMARK    3  A    between atoms: C_10  and  O_12
REMARK                            x       y       z     vdW  Elec       q    Type
REMARK                         _______ _______ _______ _____ _____    ______ ____
ROOT
ATOM      1  C   UNL     1       7.182  -5.757  21.957  0.00  0.00    +0.040 C 
ATOM      2  C   UNL     1       7.464  -5.111  23.309  0.00  0.00    +0.147 C 
ATOM      3  C   UNL     1       6.328  -5.390  24.313  0.00  0.00    +0.143 C 
ATOM      4  C   UNL     1       6.696  -4.855  25.697  0.00  0.00    +0.039 C 
ATOM      5  C   UNL     1       8.075  -5.347  26.110  0.00  0.00    +0.064 C 
ATOM      6  C   UNL     1       9.102  -5.046  25.023  0.00  0.00    +0.247 C 
ATOM      7  O   UNL     1       8.714  -5.624  23.786  0.00  0.00    -0.346 OA
ENDROOT
BRANCH   3   8
ATOM      8  O   UNL     1       5.100  -4.805  23.892  0.00  0.00    -0.389 OA
ATOM      9  H   UNL     1       4.598  -4.537  24.681  0.00  0.00    +0.210 HD
ENDBRANCH   3   8
BRANCH   6  10
ATOM     10  O   UNL     1      10.336  -5.620  25.405  0.00  0.00    -0.367 OA
ATOM     11  H   UNL     1      10.200  -5.902  26.325  0.00  0.00    +0.212 HD
ENDBRANCH   6  10
TORSDOF 2
ENDMDL
MODEL 5
REMARK VINA RESULT:      -4.1      2.299      3.806
REMARK  Name = 
REMARK  3 active torsions:
REMARK  status: ('A' for Active; 'I' for Inactive)
REMARK    1  A    between atoms: C_1  and  C_2
REMARK    2  A    between atoms: C_5  and  O_7
REMARK    3  A    between atoms: C_10  and  O_12
REMARK                            x       y       z     vdW  Elec       q    Type
REMARK                         _______ _______ _______ _____ _____    ______ ____
ROOT
ATOM      1  C   UNL     1       7.921  -2.794  22.608  0.00  0.00    +0.040 C 
ATOM      2  C   UNL     1       8.304  -1.323  22.725  0.00  0.00    +0.147 C 
ATOM      3  C   UNL     1       9.321  -0.918  21.640  0.00  0.00    +0.143 C 
ATOM      4  C   UNL     1       9.582   0.587  21.689  0.00  0.00    +0.039 C 
ATOM      5  C   UNL     1       8.270   1.357  21.682  0.00  0.00    +0.064 C 
ATOM      6  C   UNL     1       7.338   0.843  22.774  0.00  0.00    +0.247 C 
ATOM      7  O   UNL     1       7.103  -0.549  22.625  0.00  0.00    -0.346 OA
ENDROOT
BRANCH   3   8
ATOM      8  O   UNL     1      10.553  -1.617  21.788  0.00  0.00    -0.389 OA
ATOM      9  H   UNL     1      10.449  -2.510  21.416  0.00  0.00    +0.210 HD
ENDBRANCH   3   8
BRANCH   6  10
ATOM     10  O   UNL     1       6.099   1.511  22.654  0.00  0.00    -0.367 OA
ATOM     11  H   UNL     1       6.114   1.893  21.761  0.00  0.00    +0.212 HD
ENDBRANCH   6  10
TORSDOF 2
ENDMDL
MODEL 6
REMARK VINA RESULT:      -4.0      1.397      3.898
REMARK  Name = 
REMARK  3 active torsions:
REMARK  status: ('A' for Active; 'I' for Inactive)
REMARK    1  A    between atoms: C_1  and  C_2
REMARK    2  A    between atoms: C_5  and  O_7
REMARK    3  A    between atoms: C_10  and  O_12
REMARK                            x       y       z     vdW  Elec       q    Type
REMARK                         _______ _______ _______ _____ _____    ______ ____
ROOT
ATOM      1  C   UNL     1       8.654  -2.043  22.187  0.00  0.00    +0.040 C 
ATOM      2  C   UNL     1       8.875  -0.729  22.929  0.00  0.00    +0.147 C 
ATOM      3  C   UNL     1       9.745  -0.931  24.185  0.00  0.00    +0.143 C 
ATOM      4  C   UNL     1      10.069   0.415  24.832  0.00  0.00    +0.039 C 
ATOM      5  C   UNL     1      10.621   1.386  23.798  0.00  0.00    +0.064 C 
ATOM      6  C   UNL     1       9.692   1.472  22.592  0.00  0.00    +0.247 C 
ATOM      7  O   UNL     1       9.487   0.190  22.017  0.00  0.00    -0.346 OA
ENDROOT
BRANCH   3   8
ATOM      8  O   UNL     1       9.102  -1.772  25.139  0.00  0.00    -0.389 OA
ATOM      9  H   UNL     1       9.186  -1.363  26.018  0.00  0.00    +0.210 HD
ENDBRANCH   3   8
BRANCH   6  10
ATOM     10  O   UNL     1      10.302   2.295  21.618  0.00  0.00    -0.367 OA
ATOM     11  H   UNL     1      10.115   3.202  21.914  0.00  0.00    +0.212 HD
ENDBRANCH   6  10
TORSDOF 2
ENDMDL
MODEL 7
REMARK VINA RESULT:      -3.8      2.024      2.687
REMARK  Name = 
REMARK  3 active torsions:
REMARK  status: ('A' for Active; 'I' for Inactive)
REMARK    1  A    between atoms: C_1  and  C_2
REMARK    2  A    between atoms: C_5  and  O_7
REMARK    3  A    between atoms: C_10  and  O_12
REMARK                            x       y       z     vdW  Elec       q    Type
REMARK                         _______ _______ _______ _____ _____    ______ ____
ROOT
ATOM      1  C   UNL     1       9.108  -0.423  25.761  0.00  0.00    +0.040 C 
ATOM      2  C   UNL     1       8.880   0.227  24.400  0.00  0.00    +0.147 C 
ATOM      3  C   UNL     1       9.454   1.656  24.356  0.00  0.00    +0.143 C 
ATOM      4  C   UNL     1       9.339   2.234  22.945  0.00  0.00    +0.039 C 
ATOM      5  C   UNL     1       9.912   1.263  21.923  0.00  0.00    +0.064 C 
ATOM      6  C   UNL     1       9.294  -0.121  22.090  0.00  0.00    +0.247 C 
ATOM      7  O   UNL     1       9.491  -0.608  23.409  0.00  0.00    -0.346 OA
ENDROOT
BRANCH   3   8
ATOM      8  O   UNL     1       8.789   2.518  25.274  0.00  0.00    -0.389 OA
ATOM      9  H   UNL     1       8.692   2.051  26.123  0.00  0.00    +0.210 HD
ENDBRANCH   3   8
BRANCH   6  10
ATOM     10  O   UNL     1       9.936  -1.007  21.197  0.00  0.00    -0.367 OA
ATOM     11  H   UNL     1      10.064  -1.822  21.710  0.00  0.00    +0.212 HD
ENDBRANCH   6  10
TORSDOF 2
ENDMDL
MODEL 8
REMARK VINA RESULT:      -3.8      1.730      1.730
REMARK  Name = 
REMARK  3 active torsions:
REMARK  status: ('A' for Active; 'I' for Inactive)
REMARK    1  A    between atoms: C_1  and  C_2
REMARK    2  A    between atoms: C_5  and  O_7
REMARK    3  A    between atoms: C_10  and  O_12
REMARK                            x       y       z     vdW  Elec       q    Type
REMARK                         _______ _______ _______ _____ _____    ______ ____
ROOT
ATOM      1  C   UNL     1       8.841   2.445  24.321  0.00  0.00    +0.040 C 
ATOM      2  C   UNL     1       8.534   1.438  23.217  0.00  0.00    +0.147 C 
ATOM      3  C   UNL     1       9.765   1.194  22.322  0.00  0.00    +0.143 C 
ATOM      4  C   UNL     1       9.478   0.081  21.314  0.00  0.00    +0.039 C 
ATOM      5  C   UNL     1       8.922  -1.148  22.018  0.00  0.00    +0.064 C 
ATOM      6  C   UNL     1       7.735  -0.772  22.898  0.00  0.00    +0.247 C 
ATOM      7  O   UNL     1       8.098   0.225  23.842  0.00  0.00    -0.346 OA
ENDROOT
BRANCH   3   8
ATOM      8  O   UNL     1      10.151   2.375  21.626  0.00  0.00    -0.389 OA
ATOM      9  H   UNL     1       9.478   3.060  21.782  0.00  0.00    +0.210 HD
ENDBRANCH   3   8
BRANCH   6  10
ATOM     10  O   UNL     1       7.328  -1.922  23.612  0.00  0.00    -0.367 OA
ATOM     11  H   UNL     1       7.717  -1.811  24.496  0.00  0.00    +0.212 HD
ENDBRANCH   6  10
TORSDOF 2
ENDMDL
MODEL 9
REMARK VINA RESULT:      -3.7      2.104      3.026
REMARK  Name = 
REMARK  3 active torsions:
REMARK  status: ('A' for Active; 'I' for Inactive)
REMARK    1  A    between atoms: C_1  and  C_2
REMARK    2  A    between atoms: C_5  and  O_7
REMARK    3  A    between atoms: C_10  and  O_12
REMARK                            x       y       z     vdW  Elec       q    Type
REMARK                         _______ _______ _______ _____ _____    ______ ____
ROOT
ATOM      1  C   UNL     1       7.204   2.992  22.173  0.00  0.00    +0.040 C 
ATOM      2  C   UNL     1       8.589   2.359  22.267  0.00  0.00    +0.147 C 
ATOM      3  C   UNL     1       9.085   2.306  23.725  0.00  0.00    +0.143 C 
ATOM      4  C   UNL     1      10.407   1.545  23.811  0.00  0.00    +0.039 C 
ATOM      5  C   UNL     1      10.297   0.202  23.105  0.00  0.00    +0.064 C 
ATOM      6  C   UNL     1       9.763   0.382  21.688  0.00  0.00    +0.247 C 
ATOM      7  O   UNL     1       8.509   1.047  21.699  0.00  0.00    -0.346 OA
ENDROOT
BRANCH   3   8
ATOM      8  O   UNL     1       9.255   3.612  24.270  0.00  0.00    -0.389 OA
ATOM      9  H   UNL     1       8.589   3.746  24.965  0.00  0.00    +0.210 HD
ENDBRANCH   3   8
BRANCH   6  10
ATOM     10  O   UNL     1       9.575  -0.897  21.117  0.00  0.00    -0.367 OA
ATOM     11  H   UNL     1      10.050  -0.859  20.270  0.00  0.00    +0.212 HD
ENDBRANCH   6  10
TORSDOF 2
ENDMDL
