MODEL 1
REMARK VINA RESULT:      -6.8      0.000      0.000
REMARK  Name = 
REMARK  2 active torsions:
REMARK  status: ('A' for Active; 'I' for Inactive)
REMARK    1  A    between atoms: C_1  and  C_2
REMARK    2  A    between atoms: C_9  and  C_13
REMARK                            x       y       z     vdW  Elec       q    Type
REMARK                         _______ _______ _______ _____ _____    ______ ____
ROOT
ATOM      1  C   UNL     1      10.356   2.019  24.112  0.00  0.00    +0.047 C 
ATOM      2  C   UNL     1       9.877   0.839  23.326  0.00  0.00    -0.008 A 
ATOM      3  C   UNL     1       9.463  -0.393  24.084  0.00  0.00    +0.143 A 
ATOM      4  N   UNL     1       9.121  -1.513  23.333  0.00  0.00    -0.267 N 
ATOM      5  C   UNL     1       8.830  -2.724  23.961  0.00  0.00    +0.269 A 
ATOM      6  C   UNL     1       8.694  -2.674  25.442  0.00  0.00    +0.105 A 
ATOM      7  C   UNL     1       9.029  -1.511  26.023  0.00  0.00    +0.130 A 
ATOM      8  O   UNL     1       8.726  -3.789  23.349  0.00  0.00    -0.266 OA
ATOM      9  C   UNL     1       9.112  -1.467  21.943  0.00  0.00    +0.096 A 
ATOM     10  C   UNL     1       9.415  -0.353  21.271  0.00  0.00    +0.019 A 
ATOM     11  N   UNL     1       9.444  -0.376  25.383  0.00  0.00    -0.236 NA
ATOM     12  C   UNL     1       9.819   0.826  21.984  0.00  0.00    +0.008 A 
ENDROOT
BRANCH   6  13
ATOM     13  C   UNL     1       8.241  -3.818  26.164  0.00  0.00    +0.211 A 
ATOM     14  N   UNL     1       7.045  -3.797  26.842  0.00  0.00    -0.108 NA
ATOM     15  N   UNL     1       6.917  -4.972  27.440  0.00  0.00    -0.049 NA
ATOM     16  N   UNL     1       8.026  -5.639  27.110  0.00  0.00    -0.176 N 
ATOM     17  H   UNL     1       8.187  -6.591  27.426  0.00  0.00    +0.214 HD
ATOM     18  N   UNL     1       8.909  -4.973  26.349  0.00  0.00    -0.133 NA
ENDBRANCH   6  13
TORSDOF 1
ENDMDL
MODEL 2
REMARK VINA RESULT:      -6.6      2.608      5.800
REMARK  Name = 
REMARK  2 active torsions:
REMARK  status: ('A' for Active; 'I' for Inactive)
REMARK    1  A    between atoms: C_1  and  C_2
REMARK    2  A    between atoms: C_9  and  C_13
REMARK                            x       y       z     vdW  Elec       q    Type
REMARK                         _______ _______ _______ _____ _____    ______ ____
ROOT
ATOM      1  C   UNL     1       9.092  -5.662  24.950  0.00  0.00    +0.047 C 
ATOM      2  C   UNL     1       8.055  -4.760  24.358  0.00  0.00    -0.008 A 
ATOM      3  C   UNL     1       8.476  -3.374  23.949  0.00  0.00    +0.143 A 
ATOM      4  N   UNL     1       7.477  -2.516  23.499  0.00  0.00    -0.267 N 
ATOM      5  C   UNL     1       7.767  -1.185  23.203  0.00  0.00    +0.269 A 
ATOM      6  C   UNL     1       9.210  -0.821  23.186  0.00  0.00    +0.105 A 
ATOM      7  C   UNL     1      10.058  -1.767  23.617  0.00  0.00    +0.130 A 
ATOM      8  O   UNL     1       6.896  -0.337  23.004  0.00  0.00    -0.266 OA
ATOM      9  C   UNL     1       6.160  -2.950  23.383  0.00  0.00    +0.096 A 
ATOM     10  C   UNL     1       5.799  -4.201  23.683  0.00  0.00    +0.019 A 
ATOM     11  N   UNL     1       9.725  -3.027  24.032  0.00  0.00    -0.236 NA
ATOM     12  C   UNL     1       6.773  -5.124  24.194  0.00  0.00    +0.008 A 
ENDROOT
BRANCH   6  13
ATOM     13  C   UNL     1       9.624   0.469  22.739  0.00  0.00    +0.211 A 
ATOM     14  N   UNL     1      10.102   1.404  23.627  0.00  0.00    -0.108 NA
ATOM     15  N   UNL     1      10.364   2.501  22.933  0.00  0.00    -0.049 NA
ATOM     16  N   UNL     1      10.029   2.191  21.678  0.00  0.00    -0.176 N 
ATOM     17  H   UNL     1      10.143   2.856  20.918  0.00  0.00    +0.214 HD
ATOM     18  N   UNL     1       9.531   0.959  21.487  0.00  0.00    -0.133 NA
ENDBRANCH   6  13
TORSDOF 1
ENDMDL
MODEL 3
REMARK VINA RESULT:      -6.4      1.987      2.444
REMARK  Name = 
REMARK  2 active torsions:
REMARK  status: ('A' for Active; 'I' for Inactive)
REMARK    1  A    between atoms: C_1  and  C_2
REMARK    2  A    between atoms: C_9  and  C_13
REMARK                            x       y       z     vdW  Elec       q    Type
REMARK                         _______ _______ _______ _____ _____    ______ ____
ROOT
ATOM      1  C   UNL     1       8.072   2.841  25.373  0.00  0.00    +0.047 C 
ATOM      2  C   UNL     1       8.709   2.148  24.210  0.00  0.00    -0.008 A 
ATOM      3  C   UNL     1       8.715   0.643  24.203  0.00  0.00    +0.143 A 
ATOM      4  N   UNL     1       9.403   0.018  23.168  0.00  0.00    -0.267 N 
ATOM      5  C   UNL     1       9.546  -1.369  23.149  0.00  0.00    +0.269 A 
ATOM      6  C   UNL     1       8.747  -2.120  24.155  0.00  0.00    +0.105 A 
ATOM      7  C   UNL     1       8.109  -1.376  25.071  0.00  0.00    +0.130 A 
ATOM      8  O   UNL     1      10.313  -1.954  22.381  0.00  0.00    -0.266 OA
ATOM      9  C   UNL     1      10.007   0.761  22.159  0.00  0.00    +0.096 A 
ATOM     10  C   UNL     1       9.944   2.095  22.129  0.00  0.00    +0.019 A 
ATOM     11  N   UNL     1       8.099  -0.010  25.142  0.00  0.00    -0.236 NA
ATOM     12  C   UNL     1       9.286   2.804  23.191  0.00  0.00    +0.008 A 
ENDROOT
BRANCH   6  13
ATOM     13  C   UNL     1       8.696  -3.546  24.117  0.00  0.00    +0.211 A 
ATOM     14  N   UNL     1       9.622  -4.303  24.793  0.00  0.00    -0.108 NA
ATOM     15  N   UNL     1       9.345  -5.574  24.540  0.00  0.00    -0.049 NA
ATOM     16  N   UNL     1       8.286  -5.530  23.729  0.00  0.00    -0.176 N 
ATOM     17  H   UNL     1       7.845  -6.378  23.383  0.00  0.00    +0.214 HD
ATOM     18  N   UNL     1       7.848  -4.305  23.395  0.00  0.00    -0.133 NA
ENDBRANCH   6  13
TORSDOF 1
ENDMDL
MODEL 4
REMARK VINA RESULT:      -6.3      1.283      2.320
REMARK  Name = 
REMARK  2 active torsions:
REMARK  status: ('A' for Active; 'I' for Inactive)
REMARK    1  A    between atoms: C_1  and  C_2
REMARK    2  A    between atoms: C_9  and  C_13
REMARK                            x       y       z     vdW  Elec       q    Type
REMARK                         _______ _______ _______ _____ _____    ______ ____
ROOT
ATOM      1  C   UNL     1       9.174   0.165  20.975  0.00  0.00    +0.047 C 
ATOM      2  C   UNL     1       9.492   0.222  22.437  0.00  0.00    -0.008 A 
ATOM      3  C   UNL     1       9.094  -0.952  23.291  0.00  0.00    +0.143 A 
ATOM      4  N   UNL     1       9.303  -0.836  24.662  0.00  0.00    -0.267 N 
ATOM      5  C   UNL     1       8.864  -1.835  25.531  0.00  0.00    +0.269 A 
ATOM      6  C   UNL     1       8.381  -3.088  24.891  0.00  0.00    +0.105 A 
ATOM      7  C   UNL     1       8.265  -3.058  23.555  0.00  0.00    +0.130 A 
ATOM      8  O   UNL     1       8.834  -1.692  26.755  0.00  0.00    -0.266 OA
ATOM      9  C   UNL     1       9.904   0.297  25.201  0.00  0.00    +0.096 A 
ATOM     10  C   UNL     1      10.317   1.310  24.435  0.00  0.00    +0.019 A 
ATOM     11  N   UNL     1       8.577  -2.008  22.737  0.00  0.00    -0.236 NA
ATOM     12  C   UNL     1      10.093   1.274  23.017  0.00  0.00    +0.008 A 
ENDROOT
BRANCH   6  13
ATOM     13  C   UNL     1       8.062  -4.228  25.689  0.00  0.00    +0.211 A 
ATOM     14  N   UNL     1       6.765  -4.667  25.807  0.00  0.00    -0.108 NA
ATOM     15  N   UNL     1       6.778  -5.703  26.631  0.00  0.00    -0.049 NA
ATOM     16  N   UNL     1       8.061  -5.839  26.978  0.00  0.00    -0.176 N 
ATOM     17  H   UNL     1       8.367  -6.580  27.602  0.00  0.00    +0.214 HD
ATOM     18  N   UNL     1       8.910  -4.938  26.458  0.00  0.00    -0.133 NA
ENDBRANCH   6  13
TORSDOF 1
ENDMDL
MODEL 5
REMARK VINA RESULT:      -6.2      2.493      6.011
REMARK  Name = 
REMARK  2 active torsions:
REMARK  status: ('A' for Active; 'I' for Inactive)
REMARK    1  A    between atoms: C_1  and  C_2
REMARK    2  A    between atoms: C_9  and  C_13
REMARK                            x       y       z     vdW  Elec       q    Type
REMARK                         _______ _______ _______ _____ _____    ______ ____
ROOT
ATOM      1  C   UNL     1       7.520  -5.800  22.987  0.00  0.00    +0.047 C 
ATOM      2  C   UNL     1       7.848  -4.801  24.051  0.00  0.00    -0.008 A 
ATOM      3  C   UNL     1       8.144  -3.388  23.624  0.00  0.00    +0.143 A 
ATOM      4  N   UNL     1       8.549  -2.500  24.615  0.00  0.00    -0.267 N 
ATOM      5  C   UNL     1       8.943  -1.203  24.285  0.00  0.00    +0.269 A 
ATOM      6  C   UNL     1       8.692  -0.784  22.879  0.00  0.00    +0.105 A 
ATOM      7  C   UNL     1       8.270  -1.747  22.047  0.00  0.00    +0.130 A 
ATOM      8  O   UNL     1       9.503  -0.449  25.083  0.00  0.00    -0.266 OA
ATOM      9  C   UNL     1       8.619  -2.896  25.946  0.00  0.00    +0.096 A 
ATOM     10  C   UNL     1       8.292  -4.132  26.334  0.00  0.00    +0.019 A 
ATOM     11  N   UNL     1       8.021  -3.051  22.375  0.00  0.00    -0.236 NA
ATOM     12  C   UNL     1       7.908  -5.111  25.356  0.00  0.00    +0.008 A 
ENDROOT
BRANCH   6  13
ATOM     13  C   UNL     1       8.909   0.569  22.481  0.00  0.00    +0.211 A 
ATOM     14  N   UNL     1       7.898   1.498  22.557  0.00  0.00    -0.108 NA
ATOM     15  N   UNL     1       8.382   2.638  22.087  0.00  0.00    -0.049 NA
ATOM     16  N   UNL     1       9.641   2.352  21.744  0.00  0.00    -0.176 N 
ATOM     17  H   UNL     1      10.262   3.060  21.362  0.00  0.00    +0.214 HD
ATOM     18  N   UNL     1      10.027   1.079  21.928  0.00  0.00    -0.133 NA
ENDBRANCH   6  13
TORSDOF 1
ENDMDL
MODEL 6
REMARK VINA RESULT:      -6.2      2.403      5.828
REMARK  Name = 
REMARK  2 active torsions:
REMARK  status: ('A' for Active; 'I' for Inactive)
REMARK    1  A    between atoms: C_1  and  C_2
REMARK    2  A    between atoms: C_9  and  C_13
REMARK                            x       y       z     vdW  Elec       q    Type
REMARK                         _______ _______ _______ _____ _____    ______ ____
ROOT
ATOM      1  C   UNL     1       5.172  -4.340  25.001  0.00  0.00    +0.047 C 
ATOM      2  C   UNL     1       6.667  -4.284  24.958  0.00  0.00    -0.008 A 
ATOM      3  C   UNL     1       7.310  -3.075  24.334  0.00  0.00    +0.143 A 
ATOM      4  N   UNL     1       8.696  -3.089  24.209  0.00  0.00    -0.267 N 
ATOM      5  C   UNL     1       9.357  -2.055  23.547  0.00  0.00    +0.269 A 
ATOM      6  C   UNL     1       8.528  -0.870  23.197  0.00  0.00    +0.105 A 
ATOM      7  C   UNL     1       7.209  -0.995  23.407  0.00  0.00    +0.130 A 
ATOM      8  O   UNL     1      10.546  -2.116  23.227  0.00  0.00    -0.266 OA
ATOM      9  C   UNL     1       9.447  -4.154  24.695  0.00  0.00    +0.096 A 
ATOM     10  C   UNL     1       8.881  -5.197  25.308  0.00  0.00    +0.019 A 
ATOM     11  N   UNL     1       6.571  -2.083  23.937  0.00  0.00    -0.236 NA
ATOM     12  C   UNL     1       7.452  -5.266  25.431  0.00  0.00    +0.008 A 
ENDROOT
BRANCH   6  13
ATOM     13  C   UNL     1       9.138   0.305  22.664  0.00  0.00    +0.211 A 
ATOM     14  N   UNL     1       9.736   1.226  23.491  0.00  0.00    -0.108 NA
ATOM     15  N   UNL     1      10.171   2.213  22.721  0.00  0.00    -0.049 NA
ATOM     16  N   UNL     1       9.815   1.857  21.485  0.00  0.00    -0.176 N 
ATOM     17  H   UNL     1      10.040   2.434  20.680  0.00  0.00    +0.214 HD
ATOM     18  N   UNL     1       9.140   0.701  21.376  0.00  0.00    -0.133 NA
ENDBRANCH   6  13
TORSDOF 1
ENDMDL
MODEL 7
REMARK VINA RESULT:      -6.2      2.661      3.662
REMARK  Name = 
REMARK  2 active torsions:
REMARK  status: ('A' for Active; 'I' for Inactive)
REMARK    1  A    between atoms: C_1  and  C_2
REMARK    2  A    between atoms: C_9  and  C_13
REMARK                            x       y       z     vdW  Elec       q    Type
REMARK                         _______ _______ _______ _____ _____    ______ ____
ROOT
ATOM      1  C   UNL     1       9.999  -2.208  23.619  0.00  0.00    +0.047 C 
ATOM      2  C   UNL     1       8.542  -2.534  23.534  0.00  0.00    -0.008 A 
ATOM      3  C   UNL     1       7.975  -3.499  24.541  0.00  0.00    +0.143 A 
ATOM      4  N   UNL     1       6.643  -3.870  24.381  0.00  0.00    -0.267 N 
ATOM      5  C   UNL     1       6.075  -4.839  25.207  0.00  0.00    +0.269 A 
ATOM      6  C   UNL     1       6.897  -5.266  26.372  0.00  0.00    +0.105 A 
ATOM      7  C   UNL     1       8.153  -4.797  26.406  0.00  0.00    +0.130 A 
ATOM      8  O   UNL     1       4.977  -5.353  24.982  0.00  0.00    -0.266 OA
ATOM      9  C   UNL     1       5.865  -3.324  23.365  0.00  0.00    +0.096 A 
ATOM     10  C   UNL     1       6.350  -2.417  22.513  0.00  0.00    +0.019 A 
ATOM     11  N   UNL     1       8.727  -3.948  25.500  0.00  0.00    -0.236 NA
ATOM     12  C   UNL     1       7.729  -2.023  22.595  0.00  0.00    +0.008 A 
ENDROOT
BRANCH   6  13
ATOM     13  C   UNL     1       6.346  -6.130  27.365  0.00  0.00    +0.211 A 
ATOM     14  N   UNL     1       6.963  -6.287  28.584  0.00  0.00    -0.108 NA
ATOM     15  N   UNL     1       6.250  -7.168  29.269  0.00  0.00    -0.049 NA
ATOM     16  N   UNL     1       5.255  -7.507  28.446  0.00  0.00    -0.176 N 
ATOM     17  H   UNL     1       4.536  -8.168  28.726  0.00  0.00    +0.214 HD
ATOM     18  N   UNL     1       5.269  -6.928  27.235  0.00  0.00    -0.133 NA
ENDBRANCH   6  13
TORSDOF 1
ENDMDL
MODEL 8
REMARK VINA RESULT:      -6.1      1.915      3.000
REMARK  Name = 
REMARK  2 active torsions:
REMARK  status: ('A' for Active; 'I' for Inactive)
REMARK    1  A    between atoms: C_1  and  C_2
REMARK    2  A    between atoms: C_9  and  C_13
REMARK                            x       y       z     vdW  Elec       q    Type
REMARK                         _______ _______ _______ _____ _____    ______ ____
ROOT
ATOM      1  C   UNL     1      10.522  -1.581  22.550  0.00  0.00    +0.047 C 
ATOM      2  C   UNL     1       9.749  -1.191  23.771  0.00  0.00    -0.008 A 
ATOM      3  C   UNL     1       8.988  -2.267  24.497  0.00  0.00    +0.143 A 
ATOM      4  N   UNL     1       8.192  -1.867  25.567  0.00  0.00    -0.267 N 
ATOM      5  C   UNL     1       7.375  -2.787  26.223  0.00  0.00    +0.269 A 
ATOM      6  C   UNL     1       7.578  -4.215  25.859  0.00  0.00    +0.105 A 
ATOM      7  C   UNL     1       8.402  -4.445  24.826  0.00  0.00    +0.130 A 
ATOM      8  O   UNL     1       6.504  -2.454  27.029  0.00  0.00    -0.266 OA
ATOM      9  C   UNL     1       8.155  -0.537  25.972  0.00  0.00    +0.096 A 
ATOM     10  C   UNL     1       8.882   0.407  25.368  0.00  0.00    +0.019 A 
ATOM     11  N   UNL     1       9.090  -3.503  24.111  0.00  0.00    -0.236 NA
ATOM     12  C   UNL     1       9.691   0.069  24.231  0.00  0.00    +0.008 A 
ENDROOT
BRANCH   6  13
ATOM     13  C   UNL     1       6.909  -5.246  26.584  0.00  0.00    +0.211 A 
ATOM     14  N   UNL     1       7.331  -5.614  27.840  0.00  0.00    -0.108 NA
ATOM     15  N   UNL     1       6.551  -6.608  28.236  0.00  0.00    -0.049 NA
ATOM     16  N   UNL     1       5.711  -6.802  27.216  0.00  0.00    -0.176 N 
ATOM     17  H   UNL     1       4.981  -7.508  27.256  0.00  0.00    +0.214 HD
ATOM     18  N   UNL     1       5.895  -6.017  26.143  0.00  0.00    -0.133 NA
ENDBRANCH   6  13
TORSDOF 1
ENDMDL
MODEL 9
REMARK VINA RESULT:      -6.0      2.526      5.718
REMARK  Name = 
REMARK  2 active torsions:
REMARK  status: ('A' for Active; 'I' for Inactive)
REMARK    1  A    between atoms: C_1  and  C_2
REMARK    2  A    between atoms: C_9  and  C_13
REMARK                            x       y       z     vdW  Elec       q    Type
REMARK                         _______ _______ _______ _____ _____    ______ ____
ROOT
ATOM      1  C   UNL     1       6.215  -5.659  21.395  0.00  0.00    +0.047 C 
ATOM      2  C   UNL     1       6.297  -5.270  22.838  0.00  0.00    -0.008 A 
ATOM      3  C   UNL     1       7.083  -4.035  23.192  0.00  0.00    +0.143 A 
ATOM      4  N   UNL     1       7.236  -3.749  24.545  0.00  0.00    -0.267 N 
ATOM      5  C   UNL     1       8.038  -2.685  24.957  0.00  0.00    +0.269 A 
ATOM      6  C   UNL     1       8.516  -1.775  23.881  0.00  0.00    +0.105 A 
ATOM      7  C   UNL     1       8.263  -2.170  22.624  0.00  0.00    +0.130 A 
ATOM      8  O   UNL     1       8.374  -2.514  26.130  0.00  0.00    -0.266 OA
ATOM      9  C   UNL     1       6.637  -4.544  25.516  0.00  0.00    +0.096 A 
ATOM     10  C   UNL     1       5.884  -5.602  25.199  0.00  0.00    +0.019 A 
ATOM     11  N   UNL     1       7.586  -3.297  22.248  0.00  0.00    -0.236 NA
ATOM     12  C   UNL     1       5.722  -5.978  23.823  0.00  0.00    +0.008 A 
ENDROOT
BRANCH   6  13
ATOM     13  C   UNL     1       9.206  -0.570  24.209  0.00  0.00    +0.211 A 
ATOM     14  N   UNL     1      10.570  -0.477  24.066  0.00  0.00    -0.108 NA
ATOM     15  N   UNL     1      10.923   0.730  24.481  0.00  0.00    -0.049 NA
ATOM     16  N   UNL     1       9.777   1.302  24.860  0.00  0.00    -0.176 N 
ATOM     17  H   UNL     1       9.750   2.255  25.213  0.00  0.00    +0.214 HD
ATOM     18  N   UNL     1       8.675   0.543  24.751  0.00  0.00    -0.133 NA
ENDBRANCH   6  13
TORSDOF 1
ENDMDL
