MODEL 1
REMARK VINA RESULT:      -6.0      0.000      0.000
REMARK  Name = 
REMARK  5 active torsions:
REMARK  status: ('A' for Active; 'I' for Inactive)
REMARK    1  A    between atoms: N1_6  and  C1*_9
REMARK    2  A    between atoms: C4*_11  and  C5*_12
REMARK    3  A    between atoms: C5*_12  and  O5*_13
REMARK    4  A    between atoms: C3*_14  and  O3*_15
REMARK    5  A    between atoms: C2*_16  and  O2*_17
REMARK                            x       y       z     vdW  Elec       q    Type
REMARK                         _______ _______ _______ _____ _____    ______ ____
ROOT
ATOM      1  C1*   C A   1       8.483  -2.780  23.618  0.00  0.00    +0.255 C 
ATOM      2  C2*   C A   1       7.222  -3.639  23.332  0.00  0.00    +0.195 C 
ATOM      3  C3*   C A   1       6.740  -4.068  24.722  0.00  0.00    +0.178 C 
ATOM      4  C4*   C A   1       7.900  -3.736  25.647  0.00  0.00    +0.177 C 
ATOM      5  O4*   C A   1       8.572  -2.614  25.046  0.00  0.00    -0.346 OA
ENDROOT
BRANCH   1  12
ATOM      6  N4    C A   1       9.231   2.253  21.523  0.00  0.00    -0.343 N 
ATOM      7  H41   C A   1       8.454   2.791  21.169  0.00  0.00    +0.144 HD
ATOM      8  H42   C A   1      10.073   2.327  20.965  0.00  0.00    +0.144 HD
ATOM      9  C4    C A   1       8.992   0.990  21.982  0.00  0.00    +0.123 A 
ATOM     10  C5    C A   1       7.672   0.668  22.541  0.00  0.00    +0.061 A 
ATOM     11  C6    C A   1       7.521  -0.574  23.005  0.00  0.00    +0.096 A 
ATOM     12  N1    C A   1       8.559  -1.486  22.955  0.00  0.00    -0.270 N 
ATOM     13  C2    C A   1       9.798  -1.145  22.397  0.00  0.00    +0.352 A 
ATOM     14  O2    C A   1      10.713  -1.963  22.363  0.00  0.00    -0.244 OA
ATOM     15  N3    C A   1       9.960   0.128  21.904  0.00  0.00    -0.178 NA
ENDBRANCH   1  12
BRANCH   2  16
ATOM     16  O2*   C A   1       7.480  -4.847  22.590  0.00  0.00    -0.385 OA
ATOM     17  H2*   C A   1       6.677  -5.096  22.094  0.00  0.00    +0.210 HD
ENDBRANCH   2  16
BRANCH   3  18
ATOM     18  O3*   C A   1       6.361  -5.440  24.784  0.00  0.00    -0.386 OA
ATOM     19  H3*   C A   1       5.521  -5.460  25.292  0.00  0.00    +0.210 HD
ENDBRANCH   3  18
BRANCH   4  20
ATOM     20  C5*   C A   1       8.921  -4.862  25.846  0.00  0.00    +0.190 C 
BRANCH  20  21
ATOM     21  O5*   C A   1       8.409  -5.799  26.799  0.00  0.00    -0.392 OA
ATOM     22  H5*   C A   1       7.818  -6.401  26.307  0.00  0.00    +0.210 HD
ENDBRANCH  20  21
ENDBRANCH   4  20
TORSDOF 5
ENDMDL
MODEL 2
REMARK VINA RESULT:      -5.8      2.908      5.851
REMARK  Name = 
REMARK  5 active torsions:
REMARK  status: ('A' for Active; 'I' for Inactive)
REMARK    1  A    between atoms: N1_6  and  C1*_9
REMARK    2  A    between atoms: C4*_11  and  C5*_12
REMARK    3  A    between atoms: C5*_12  and  O5*_13
REMARK    4  A    between atoms: C3*_14  and  O3*_15
REMARK    5  A    between atoms: C2*_16  and  O2*_17
REMARK                            x       y       z     vdW  Elec       q    Type
REMARK                         _______ _______ _______ _____ _____    ______ ____
ROOT
ATOM      1  C1*   C A   1       8.736  -0.827  24.038  0.00  0.00    +0.255 C 
ATOM      2  C2*   C A   1       8.117  -0.563  22.640  0.00  0.00    +0.195 C 
ATOM      3  C3*   C A   1       9.264   0.057  21.835  0.00  0.00    +0.178 C 
ATOM      4  C4*   C A   1      10.312   0.415  22.878  0.00  0.00    +0.177 C 
ATOM      5  O4*   C A   1      10.144  -0.537  23.945  0.00  0.00    -0.346 OA
ENDROOT
BRANCH   1  12
ATOM      6  N4    C A   1       8.509  -5.744  26.498  0.00  0.00    -0.343 N 
ATOM      7  H41   C A   1       8.133  -6.550  26.020  0.00  0.00    +0.144 HD
ATOM      8  H42   C A   1       8.248  -5.685  27.476  0.00  0.00    +0.144 HD
ATOM      9  C4    C A   1       8.491  -4.540  25.857  0.00  0.00    +0.123 A 
ATOM     10  C5    C A   1       8.549  -4.508  24.390  0.00  0.00    +0.061 A 
ATOM     11  C6    C A   1       8.566  -3.297  23.831  0.00  0.00    +0.096 A 
ATOM     12  N1    C A   1       8.532  -2.152  24.606  0.00  0.00    -0.270 N 
ATOM     13  C2    C A   1       8.458  -2.226  26.004  0.00  0.00    +0.352 A 
ATOM     14  O2    C A   1       8.434  -1.201  26.681  0.00  0.00    -0.244 OA
ATOM     15  N3    C A   1       8.427  -3.469  26.588  0.00  0.00    -0.178 NA
ENDBRANCH   1  12
BRANCH   2  16
ATOM     16  O2*   C A   1       7.041   0.394  22.635  0.00  0.00    -0.385 OA
ATOM     17  H2*   C A   1       6.188  -0.081  22.662  0.00  0.00    +0.210 HD
ENDBRANCH   2  16
BRANCH   3  18
ATOM     18  O3*   C A   1       8.859   1.177  21.055  0.00  0.00    -0.386 OA
ATOM     19  H3*   C A   1       8.186   0.835  20.427  0.00  0.00    +0.210 HD
ENDBRANCH   3  18
BRANCH   4  20
ATOM     20  C5*   C A   1      10.193   1.826  23.466  0.00  0.00    +0.190 C 
BRANCH  20  21
ATOM     21  O5*   C A   1      10.565   2.784  22.469  0.00  0.00    -0.392 OA
ATOM     22  H5*   C A   1      10.189   3.639  22.753  0.00  0.00    +0.210 HD
ENDBRANCH  20  21
ENDBRANCH   4  20
TORSDOF 5
ENDMDL
MODEL 3
REMARK VINA RESULT:      -5.8      2.979      5.926
REMARK  Name = 
REMARK  5 active torsions:
REMARK  status: ('A' for Active; 'I' for Inactive)
REMARK    1  A    between atoms: N1_6  and  C1*_9
REMARK    2  A    between atoms: C4*_11  and  C5*_12
REMARK    3  A    between atoms: C5*_12  and  O5*_13
REMARK    4  A    between atoms: C3*_14  and  O3*_15
REMARK    5  A    between atoms: C2*_16  and  O2*_17
REMARK                            x       y       z     vdW  Elec       q    Type
REMARK                         _______ _______ _______ _____ _____    ______ ____
ROOT
ATOM      1  C1*   C A   1       9.203  -1.180  24.418  0.00  0.00    +0.255 C 
ATOM      2  C2*   C A   1       9.394   0.152  25.190  0.00  0.00    +0.195 C 
ATOM      3  C3*   C A   1       8.665   1.189  24.330  0.00  0.00    +0.178 C 
ATOM      4  C4*   C A   1       8.417   0.481  23.006  0.00  0.00    +0.177 C 
ATOM      5  O4*   C A   1       8.300  -0.917  23.326  0.00  0.00    -0.346 OA
ENDROOT
BRANCH   1  12
ATOM      6  N4    C A   1       7.273  -5.760  26.781  0.00  0.00    -0.343 N 
ATOM      7  H41   C A   1       6.824  -5.731  27.685  0.00  0.00    +0.144 HD
ATOM      8  H42   C A   1       7.880  -6.560  26.646  0.00  0.00    +0.144 HD
ATOM      9  C4    C A   1       7.778  -4.600  26.269  0.00  0.00    +0.123 A 
ATOM     10  C5    C A   1       7.165  -3.321  26.647  0.00  0.00    +0.061 A 
ATOM     11  C6    C A   1       7.685  -2.231  26.080  0.00  0.00    +0.096 A 
ATOM     12  N1    C A   1       8.739  -2.325  25.190  0.00  0.00    -0.270 N 
ATOM     13  C2    C A   1       9.310  -3.564  24.869  0.00  0.00    +0.352 A 
ATOM     14  O2    C A   1      10.243  -3.633  24.072  0.00  0.00    -0.244 OA
ATOM     15  N3    C A   1       8.789  -4.691  25.458  0.00  0.00    -0.178 NA
ENDBRANCH   1  12
BRANCH   2  16
ATOM     16  O2*   C A   1      10.762   0.589  25.297  0.00  0.00    -0.385 OA
ATOM     17  H2*   C A   1      11.278  -0.087  25.777  0.00  0.00    +0.210 HD
ENDBRANCH   2  16
BRANCH   3  18
ATOM     18  O3*   C A   1       9.395   2.403  24.176  0.00  0.00    -0.386 OA
ATOM     19  H3*   C A   1      10.342   2.153  24.248  0.00  0.00    +0.210 HD
ENDBRANCH   3  18
BRANCH   4  20
ATOM     20  C5*   C A   1       9.524   0.648  21.960  0.00  0.00    +0.190 C 
BRANCH  20  21
ATOM     21  O5*   C A   1       9.408   1.939  21.352  0.00  0.00    -0.392 OA
ATOM     22  H5*   C A   1       8.671   2.392  21.803  0.00  0.00    +0.210 HD
ENDBRANCH  20  21
ENDBRANCH   4  20
TORSDOF 5
ENDMDL
MODEL 4
REMARK VINA RESULT:      -5.7      2.613      5.795
REMARK  Name = 
REMARK  5 active torsions:
REMARK  status: ('A' for Active; 'I' for Inactive)
REMARK    1  A    between atoms: N1_6  and  C1*_9
REMARK    2  A    between atoms: C4*_11  and  C5*_12
REMARK    3  A    between atoms: C5*_12  and  O5*_13
REMARK    4  A    between atoms: C3*_14  and  O3*_15
REMARK    5  A    between atoms: C2*_16  and  O2*_17
REMARK                            x       y       z     vdW  Elec       q    Type
REMARK                         _______ _______ _______ _____ _____    ______ ____
ROOT
ATOM      1  C1*   C A   1       8.255  -1.243  23.213  0.00  0.00    +0.255 C 
ATOM      2  C2*   C A   1       9.535  -0.774  22.472  0.00  0.00    +0.195 C 
ATOM      3  C3*   C A   1       9.583   0.735  22.730  0.00  0.00    +0.178 C 
ATOM      4  C4*   C A   1       8.205   1.072  23.279  0.00  0.00    +0.177 C 
ATOM      5  O4*   C A   1       7.751  -0.116  23.954  0.00  0.00    -0.346 OA
ENDROOT
BRANCH   1  12
ATOM      6  N4    C A   1       8.145  -5.704  26.433  0.00  0.00    -0.343 N 
ATOM      7  H41   C A   1       8.729  -5.770  27.253  0.00  0.00    +0.144 HD
ATOM      8  H42   C A   1       8.070  -6.568  25.909  0.00  0.00    +0.144 HD
ATOM      9  C4    C A   1       8.253  -4.596  25.644  0.00  0.00    +0.123 A 
ATOM     10  C5    C A   1       8.668  -3.324  26.247  0.00  0.00    +0.061 A 
ATOM     11  C6    C A   1       8.716  -2.274  25.426  0.00  0.00    +0.096 A 
ATOM     12  N1    C A   1       8.390  -2.400  24.088  0.00  0.00    -0.270 N 
ATOM     13  C2    C A   1       8.017  -3.637  23.546  0.00  0.00    +0.352 A 
ATOM     14  O2    C A   1       7.726  -3.734  22.356  0.00  0.00    -0.244 OA
ATOM     15  N3    C A   1       7.977  -4.727  24.382  0.00  0.00    -0.178 NA
ENDBRANCH   1  12
BRANCH   2  16
ATOM     16  O2*   C A   1       9.495  -0.950  21.043  0.00  0.00    -0.385 OA
ATOM     17  H2*   C A   1       9.759  -1.864  20.824  0.00  0.00    +0.210 HD
ENDBRANCH   2  16
BRANCH   3  18
ATOM     18  O3*   C A   1       9.912   1.492  21.569  0.00  0.00    -0.386 OA
ATOM     19  H3*   C A   1       9.940   0.846  20.830  0.00  0.00    +0.210 HD
ENDBRANCH   3  18
BRANCH   4  20
ATOM     20  C5*   C A   1       7.160   1.462  22.228  0.00  0.00    +0.190 C 
BRANCH  20  21
ATOM     21  O5*   C A   1       7.338   2.837  21.874  0.00  0.00    -0.392 OA
ATOM     22  H5*   C A   1       6.906   2.959  21.007  0.00  0.00    +0.210 HD
ENDBRANCH  20  21
ENDBRANCH   4  20
TORSDOF 5
ENDMDL
MODEL 5
REMARK VINA RESULT:      -5.5      1.479      2.603
REMARK  Name = 
REMARK  5 active torsions:
REMARK  status: ('A' for Active; 'I' for Inactive)
REMARK    1  A    between atoms: N1_6  and  C1*_9
REMARK    2  A    between atoms: C4*_11  and  C5*_12
REMARK    3  A    between atoms: C5*_12  and  O5*_13
REMARK    4  A    between atoms: C3*_14  and  O3*_15
REMARK    5  A    between atoms: C2*_16  and  O2*_17
REMARK                            x       y       z     vdW  Elec       q    Type
REMARK                         _______ _______ _______ _____ _____    ______ ____
ROOT
ATOM      1  C1*   C A   1       8.188  -2.666  24.071  0.00  0.00    +0.255 C 
ATOM      2  C2*   C A   1       9.046  -3.329  25.181  0.00  0.00    +0.195 C 
ATOM      3  C3*   C A   1       9.013  -4.822  24.835  0.00  0.00    +0.178 C 
ATOM      4  C4*   C A   1       7.903  -4.950  23.803  0.00  0.00    +0.177 C 
ATOM      5  O4*   C A   1       7.865  -3.689  23.110  0.00  0.00    -0.346 OA
ENDROOT
BRANCH   1  12
ATOM      6  N4    C A   1       9.783   1.957  21.548  0.00  0.00    -0.343 N 
ATOM      7  H41   C A   1      10.493   1.942  20.831  0.00  0.00    +0.144 HD
ATOM      8  H42   C A   1       9.850   2.748  22.179  0.00  0.00    +0.144 HD
ATOM      9  C4    C A   1       9.466   0.787  22.175  0.00  0.00    +0.123 A 
ATOM     10  C5    C A   1       9.630  -0.481  21.453  0.00  0.00    +0.061 A 
ATOM     11  C6    C A   1       9.265  -1.582  22.113  0.00  0.00    +0.096 A 
ATOM     12  N1    C A   1       8.764  -1.509  23.400  0.00  0.00    -0.270 N 
ATOM     13  C2    C A   1       8.641  -0.280  24.062  0.00  0.00    +0.352 A 
ATOM     14  O2    C A   1       8.190  -0.230  25.203  0.00  0.00    -0.244 OA
ATOM     15  N3    C A   1       9.026   0.858  23.395  0.00  0.00    -0.178 NA
ENDBRANCH   1  12
BRANCH   2  16
ATOM     16  O2*   C A   1       8.507  -3.198  26.510  0.00  0.00    -0.385 OA
ATOM     17  H2*   C A   1       8.698  -4.011  27.015  0.00  0.00    +0.210 HD
ENDBRANCH   2  16
BRANCH   3  18
ATOM     18  O3*   C A   1       8.807  -5.655  25.971  0.00  0.00    -0.386 OA
ATOM     19  H3*   C A   1       8.658  -5.044  26.725  0.00  0.00    +0.210 HD
ENDBRANCH   3  18
BRANCH   4  20
ATOM     20  C5*   C A   1       6.509  -5.230  24.375  0.00  0.00    +0.190 C 
BRANCH  20  21
ATOM     21  O5*   C A   1       5.691  -5.816  23.357  0.00  0.00    -0.392 OA
ATOM     22  H5*   C A   1       5.339  -6.648  23.728  0.00  0.00    +0.210 HD
ENDBRANCH  20  21
ENDBRANCH   4  20
TORSDOF 5
ENDMDL
MODEL 6
REMARK VINA RESULT:      -5.5      3.306      6.254
REMARK  Name = 
REMARK  5 active torsions:
REMARK  status: ('A' for Active; 'I' for Inactive)
REMARK    1  A    between atoms: N1_6  and  C1*_9
REMARK    2  A    between atoms: C4*_11  and  C5*_12
REMARK    3  A    between atoms: C5*_12  and  O5*_13
REMARK    4  A    between atoms: C3*_14  and  O3*_15
REMARK    5  A    between atoms: C2*_16  and  O2*_17
REMARK                            x       y       z     vdW  Elec       q    Type
REMARK                         _______ _______ _______ _____ _____    ______ ____
ROOT
ATOM      1  C1*   C A   1       8.831   0.716  23.291  0.00  0.00    +0.255 C 
ATOM      2  C2*   C A   1      10.051   1.362  22.583  0.00  0.00    +0.195 C 
ATOM      3  C3*   C A   1      10.512   2.453  23.555  0.00  0.00    +0.178 C 
ATOM      4  C4*   C A   1       9.367   2.589  24.546  0.00  0.00    +0.177 C 
ATOM      5  O4*   C A   1       8.747   1.291  24.609  0.00  0.00    -0.346 OA
ENDROOT
BRANCH   1  12
ATOM      6  N4    C A   1       8.364  -4.709  24.088  0.00  0.00    -0.343 N 
ATOM      7  H41   C A   1       9.151  -5.326  23.954  0.00  0.00    +0.144 HD
ATOM      8  H42   C A   1       7.484  -5.083  23.753  0.00  0.00    +0.144 HD
ATOM      9  C4    C A   1       8.526  -3.380  23.825  0.00  0.00    +0.123 A 
ATOM     10  C5    C A   1       9.855  -2.775  23.977  0.00  0.00    +0.061 A 
ATOM     11  C6    C A   1       9.933  -1.465  23.740  0.00  0.00    +0.096 A 
ATOM     12  N1    C A   1       8.815  -0.738  23.375  0.00  0.00    -0.270 N 
ATOM     13  C2    C A   1       7.566  -1.356  23.222  0.00  0.00    +0.352 A 
ATOM     14  O2    C A   1       6.580  -0.698  22.902  0.00  0.00    -0.244 OA
ATOM     15  N3    C A   1       7.479  -2.708  23.451  0.00  0.00    -0.178 NA
ENDBRANCH   1  12
BRANCH   2  16
ATOM     16  O2*   C A   1       9.740   2.017  21.338  0.00  0.00    -0.385 OA
ATOM     17  H2*   C A   1      10.546   2.442  20.989  0.00  0.00    +0.210 HD
ENDBRANCH   2  16
BRANCH   3  18
ATOM     18  O3*   C A   1      10.828   3.682  22.908  0.00  0.00    -0.386 OA
ATOM     19  H3*   C A   1      10.598   4.388  23.551  0.00  0.00    +0.210 HD
ENDBRANCH   3  18
BRANCH   4  20
ATOM     20  C5*   C A   1       8.296   3.619  24.171  0.00  0.00    +0.190 C 
BRANCH  20  21
ATOM     21  O5*   C A   1       8.726   4.919  24.587  0.00  0.00    -0.392 OA
ATOM     22  H5*   C A   1       9.586   4.797  25.034  0.00  0.00    +0.210 HD
ENDBRANCH  20  21
ENDBRANCH   4  20
TORSDOF 5
ENDMDL
MODEL 7
REMARK VINA RESULT:      -5.5      3.413      6.331
REMARK  Name = 
REMARK  5 active torsions:
REMARK  status: ('A' for Active; 'I' for Inactive)
REMARK    1  A    between atoms: N1_6  and  C1*_9
REMARK    2  A    between atoms: C4*_11  and  C5*_12
REMARK    3  A    between atoms: C5*_12  and  O5*_13
REMARK    4  A    between atoms: C3*_14  and  O3*_15
REMARK    5  A    between atoms: C2*_16  and  O2*_17
REMARK                            x       y       z     vdW  Elec       q    Type
REMARK                         _______ _______ _______ _____ _____    ______ ____
ROOT
ATOM      1  C1*   C A   1       8.653   0.932  22.954  0.00  0.00    +0.255 C 
ATOM      2  C2*   C A   1       9.711   2.062  23.067  0.00  0.00    +0.195 C 
ATOM      3  C3*   C A   1       8.913   3.271  23.565  0.00  0.00    +0.178 C 
ATOM      4  C4*   C A   1       7.458   2.872  23.376  0.00  0.00    +0.177 C 
ATOM      5  O4*   C A   1       7.425   1.439  23.509  0.00  0.00    -0.346 OA
ENDROOT
BRANCH   1  12
ATOM      6  N4    C A   1       9.547  -4.164  24.826  0.00  0.00    -0.343 N 
ATOM      7  H41   C A   1       9.678  -4.343  25.811  0.00  0.00    +0.144 HD
ATOM      8  H42   C A   1      10.158  -4.705  24.224  0.00  0.00    +0.144 HD
ATOM      9  C4    C A   1       9.382  -2.874  24.415  0.00  0.00    +0.123 A 
ATOM     10  C5    C A   1       8.780  -1.900  25.335  0.00  0.00    +0.061 A 
ATOM     11  C6    C A   1       8.613  -0.666  24.855  0.00  0.00    +0.096 A 
ATOM     12  N1    C A   1       8.991  -0.347  23.564  0.00  0.00    -0.270 N 
ATOM     13  C2    C A   1       9.579  -1.301  22.723  0.00  0.00    +0.352 A 
ATOM     14  O2    C A   1       9.905  -1.004  21.576  0.00  0.00    -0.244 OA
ATOM     15  N3    C A   1       9.767  -2.571  23.213  0.00  0.00    -0.178 NA
ENDBRANCH   1  12
BRANCH   2  16
ATOM     16  O2*   C A   1      10.310   2.445  21.814  0.00  0.00    -0.385 OA
ATOM     17  H2*   C A   1      10.320   3.419  21.748  0.00  0.00    +0.210 HD
ENDBRANCH   2  16
BRANCH   3  18
ATOM     18  O3*   C A   1       9.245   4.479  22.885  0.00  0.00    -0.386 OA
ATOM     19  H3*   C A   1      10.215   4.589  22.998  0.00  0.00    +0.210 HD
ENDBRANCH   3  18
BRANCH   4  20
ATOM     20  C5*   C A   1       6.848   3.247  22.021  0.00  0.00    +0.190 C 
BRANCH  20  21
ATOM     21  O5*   C A   1       6.607   4.658  21.987  0.00  0.00    -0.392 OA
ATOM     22  H5*   C A   1       7.187   5.021  21.290  0.00  0.00    +0.210 HD
ENDBRANCH  20  21
ENDBRANCH   4  20
TORSDOF 5
ENDMDL
MODEL 8
REMARK VINA RESULT:      -5.5      3.069      5.750
REMARK  Name = 
REMARK  5 active torsions:
REMARK  status: ('A' for Active; 'I' for Inactive)
REMARK    1  A    between atoms: N1_6  and  C1*_9
REMARK    2  A    between atoms: C4*_11  and  C5*_12
REMARK    3  A    between atoms: C5*_12  and  O5*_13
REMARK    4  A    between atoms: C3*_14  and  O3*_15
REMARK    5  A    between atoms: C2*_16  and  O2*_17
REMARK                            x       y       z     vdW  Elec       q    Type
REMARK                         _______ _______ _______ _____ _____    ______ ____
ROOT
ATOM      1  C1*   C A   1       7.473  -2.196  22.616  0.00  0.00    +0.255 C 
ATOM      2  C2*   C A   1       9.014  -2.069  22.754  0.00  0.00    +0.195 C 
ATOM      3  C3*   C A   1       9.208  -0.835  23.641  0.00  0.00    +0.178 C 
ATOM      4  C4*   C A   1       7.844  -0.162  23.662  0.00  0.00    +0.177 C 
ATOM      5  O4*   C A   1       6.882  -1.220  23.496  0.00  0.00    -0.346 OA
ENDROOT
BRANCH   1  12
ATOM      6  N4    C A   1       4.742  -6.869  23.609  0.00  0.00    -0.343 N 
ATOM      7  H41   C A   1       5.161  -7.614  24.147  0.00  0.00    +0.144 HD
ATOM      8  H42   C A   1       4.202  -7.188  22.813  0.00  0.00    +0.144 HD
ATOM      9  C4    C A   1       5.487  -5.755  23.351  0.00  0.00    +0.123 A 
ATOM     10  C5    C A   1       6.538  -5.359  24.297  0.00  0.00    +0.061 A 
ATOM     11  C6    C A   1       7.201  -4.240  24.002  0.00  0.00    +0.096 A 
ATOM     12  N1    C A   1       6.898  -3.511  22.866  0.00  0.00    -0.270 N 
ATOM     13  C2    C A   1       5.900  -3.933  21.978  0.00  0.00    +0.352 A 
ATOM     14  O2    C A   1       5.639  -3.273  20.975  0.00  0.00    -0.244 OA
ATOM     15  N3    C A   1       5.221  -5.092  22.267  0.00  0.00    -0.178 NA
ENDBRANCH   1  12
BRANCH   2  16
ATOM     16  O2*   C A   1       9.703  -1.806  21.517  0.00  0.00    -0.385 OA
ATOM     17  H2*   C A   1       9.957  -0.863  21.486  0.00  0.00    +0.210 HD
ENDBRANCH   2  16
BRANCH   3  18
ATOM     18  O3*   C A   1      10.241   0.030  23.178  0.00  0.00    -0.386 OA
ATOM     19  H3*   C A   1      10.531  -0.341  22.316  0.00  0.00    +0.210 HD
ENDBRANCH   3  18
BRANCH   4  20
ATOM     20  C5*   C A   1       7.613   0.880  22.562  0.00  0.00    +0.190 C 
BRANCH  20  21
ATOM     21  O5*   C A   1       6.209   1.137  22.444  0.00  0.00    -0.392 OA
ATOM     22  H5*   C A   1       6.028   1.939  22.970  0.00  0.00    +0.210 HD
ENDBRANCH  20  21
ENDBRANCH   4  20
TORSDOF 5
ENDMDL
MODEL 9
REMARK VINA RESULT:      -5.4      2.167      2.999
REMARK  Name = 
REMARK  5 active torsions:
REMARK  status: ('A' for Active; 'I' for Inactive)
REMARK    1  A    between atoms: N1_6  and  C1*_9
REMARK    2  A    between atoms: C4*_11  and  C5*_12
REMARK    3  A    between atoms: C5*_12  and  O5*_13
REMARK    4  A    between atoms: C3*_14  and  O3*_15
REMARK    5  A    between atoms: C2*_16  and  O2*_17
REMARK                            x       y       z     vdW  Elec       q    Type
REMARK                         _______ _______ _______ _____ _____    ______ ____
ROOT
ATOM      1  C1*   C A   1       8.225  -1.248  23.536  0.00  0.00    +0.255 C 
ATOM      2  C2*   C A   1       8.698  -2.581  22.897  0.00  0.00    +0.195 C 
ATOM      3  C3*   C A   1       7.452  -3.113  22.181  0.00  0.00    +0.178 C 
ATOM      4  C4*   C A   1       6.310  -2.269  22.725  0.00  0.00    +0.177 C 
ATOM      5  O4*   C A   1       6.890  -0.994  23.060  0.00  0.00    -0.346 OA
ENDROOT
BRANCH   1  12
ATOM      6  N4    C A   1      11.016   3.475  23.094  0.00  0.00    -0.343 N 
ATOM      7  H41   C A   1      11.453   3.743  22.225  0.00  0.00    +0.144 HD
ATOM      8  H42   C A   1      11.569   3.685  23.917  0.00  0.00    +0.144 HD
ATOM      9  C4    C A   1      10.382   2.268  23.159  0.00  0.00    +0.123 A 
ATOM     10  C5    C A   1       9.798   1.698  21.938  0.00  0.00    +0.061 A 
ATOM     11  C6    C A   1       9.161   0.535  22.081  0.00  0.00    +0.096 A 
ATOM     12  N1    C A   1       9.068  -0.080  23.316  0.00  0.00    -0.270 N 
ATOM     13  C2    C A   1       9.655   0.487  24.454  0.00  0.00    +0.352 A 
ATOM     14  O2    C A   1       9.560  -0.067  25.546  0.00  0.00    -0.244 OA
ATOM     15  N3    C A   1      10.325   1.679  24.315  0.00  0.00    -0.178 NA
ENDBRANCH   1  12
BRANCH   2  16
ATOM     16  O2*   C A   1       9.095  -3.589  23.847  0.00  0.00    -0.385 OA
ATOM     17  H2*   C A   1       8.585  -3.472  24.671  0.00  0.00    +0.210 HD
ENDBRANCH   2  16
BRANCH   3  18
ATOM     18  O3*   C A   1       7.247  -4.509  22.379  0.00  0.00    -0.386 OA
ATOM     19  H3*   C A   1       7.929  -4.788  23.028  0.00  0.00    +0.210 HD
ENDBRANCH   3  18
BRANCH   4  20
ATOM     20  C5*   C A   1       5.619  -2.829  23.972  0.00  0.00    +0.190 C 
BRANCH  20  21
ATOM     21  O5*   C A   1       4.594  -3.745  23.572  0.00  0.00    -0.392 OA
ATOM     22  H5*   C A   1       4.406  -4.308  24.348  0.00  0.00    +0.210 HD
ENDBRANCH  20  21
ENDBRANCH   4  20
TORSDOF 5
ENDMDL
