MODEL 1
REMARK VINA RESULT:      -7.0      0.000      0.000
REMARK  Name = 
REMARK  5 active torsions:
REMARK  status: ('A' for Active; 'I' for Inactive)
REMARK    1  A    between atoms: C_2  and  C_16
REMARK    2  A    between atoms: C_10  and  O_11
REMARK    3  A    between atoms: O_11  and  C_12
REMARK    4  A    between atoms: C_14  and  O_15
REMARK    5  A    between atoms: C_19  and  O_20
REMARK                            x       y       z     vdW  Elec       q    Type
REMARK                         _______ _______ _______ _____ _____    ______ ____
ROOT
ATOM      1  C   UNL     1       8.800  -1.888  23.402  0.00  0.00    +0.211 C 
ATOM      2  O   UNL     1       8.617  -2.241  24.786  0.00  0.00    -0.483 OA
ATOM      3  C   UNL     1       7.896  -3.396  24.975  0.00  0.00    +0.139 A 
ATOM      4  C   UNL     1       7.982  -3.969  26.248  0.00  0.00    +0.092 A 
ATOM      5  C   UNL     1       7.283  -5.142  26.551  0.00  0.00    +0.127 A 
ATOM      6  C   UNL     1       6.490  -5.741  25.571  0.00  0.00    +0.092 A 
ATOM      7  C   UNL     1       6.389  -5.163  24.302  0.00  0.00    +0.134 A 
ATOM      8  C   UNL     1       7.085  -3.987  24.000  0.00  0.00    +0.101 A 
ATOM      9  C   UNL     1       6.975  -3.299  22.691  0.00  0.00    +0.174 C 
ATOM     10  O   UNL     1       6.510  -3.820  21.684  0.00  0.00    -0.292 OA
ATOM     11  C   UNL     1       7.464  -1.882  22.679  0.00  0.00    +0.129 C 
ENDROOT
BRANCH   1  12
ATOM     12  C   UNL     1       9.453  -0.521  23.278  0.00  0.00    -0.007 A 
ATOM     13  C   UNL     1       9.315   0.203  22.081  0.00  0.00    +0.011 A 
ATOM     14  C   UNL     1       9.841   1.490  21.961  0.00  0.00    +0.046 A 
ATOM     15  C   UNL     1      10.502   2.066  23.037  0.00  0.00    +0.117 A 
ATOM     16  C   UNL     1      10.657   1.369  24.230  0.00  0.00    +0.046 A 
ATOM     17  C   UNL     1      10.131   0.079  24.351  0.00  0.00    +0.011 A 
BRANCH  15  18
ATOM     18  O   UNL     1      10.981   3.334  22.884  0.00  0.00    -0.507 OA
ATOM     19  H   UNL     1      11.928   3.283  22.679  0.00  0.00    +0.292 HD
ENDBRANCH  15  18
ENDBRANCH   1  12
BRANCH   7  20
ATOM     20  O   UNL     1       5.572  -5.747  23.377  0.00  0.00    -0.506 OA
ATOM     21  H   UNL     1       4.710  -5.304  23.347  0.00  0.00    +0.292 HD
ENDBRANCH   7  20
BRANCH   5  22
ATOM     22  O   UNL     1       7.450  -5.599  27.830  0.00  0.00    -0.495 OA
ATOM     23  C   UNL     1       6.285  -6.045  28.517  0.00  0.00    +0.277 C 
ENDBRANCH   5  22
TORSDOF 4
ENDMDL
MODEL 2
REMARK VINA RESULT:      -7.0      1.500      1.726
REMARK  Name = 
REMARK  5 active torsions:
REMARK  status: ('A' for Active; 'I' for Inactive)
REMARK    1  A    between atoms: C_2  and  C_16
REMARK    2  A    between atoms: C_10  and  O_11
REMARK    3  A    between atoms: O_11  and  C_12
REMARK    4  A    between atoms: C_14  and  O_15
REMARK    5  A    between atoms: C_19  and  O_20
REMARK                            x       y       z     vdW  Elec       q    Type
REMARK                         _______ _______ _______ _____ _____    ______ ____
ROOT
ATOM      1  C   UNL     1       7.385  -2.667  23.212  0.00  0.00    +0.211 C 
ATOM      2  O   UNL     1       7.534  -2.894  24.626  0.00  0.00    -0.483 OA
ATOM      3  C   UNL     1       6.862  -4.003  25.084  0.00  0.00    +0.139 A 
ATOM      4  C   UNL     1       7.243  -4.469  26.347  0.00  0.00    +0.092 A 
ATOM      5  C   UNL     1       6.619  -5.586  26.912  0.00  0.00    +0.127 A 
ATOM      6  C   UNL     1       5.606  -6.238  26.207  0.00  0.00    +0.092 A 
ATOM      7  C   UNL     1       5.213  -5.765  24.951  0.00  0.00    +0.134 A 
ATOM      8  C   UNL     1       5.833  -4.645  24.387  0.00  0.00    +0.101 A 
ATOM      9  C   UNL     1       5.422  -4.066  23.085  0.00  0.00    +0.174 C 
ATOM     10  O   UNL     1       4.722  -4.654  22.269  0.00  0.00    -0.292 OA
ATOM     11  C   UNL     1       5.914  -2.674  22.829  0.00  0.00    +0.129 C 
ENDROOT
BRANCH   1  12
ATOM     12  C   UNL     1       8.009  -1.339  22.813  0.00  0.00    -0.007 A 
ATOM     13  C   UNL     1       9.123  -1.331  21.957  0.00  0.00    +0.011 A 
ATOM     14  C   UNL     1       9.674  -0.126  21.514  0.00  0.00    +0.046 A 
ATOM     15  C   UNL     1       9.112   1.076  21.918  0.00  0.00    +0.117 A 
ATOM     16  C   UNL     1       8.012   1.095  22.770  0.00  0.00    +0.046 A 
ATOM     17  C   UNL     1       7.460  -0.110  23.214  0.00  0.00    +0.011 A 
BRANCH  15  18
ATOM     18  O   UNL     1       9.667   2.228  21.445  0.00  0.00    -0.507 OA
ATOM     19  H   UNL     1      10.340   2.529  22.077  0.00  0.00    +0.292 HD
ENDBRANCH  15  18
ENDBRANCH   1  12
BRANCH   7  20
ATOM     20  O   UNL     1       4.189  -6.396  24.303  0.00  0.00    -0.506 OA
ATOM     21  H   UNL     1       4.463  -7.274  23.994  0.00  0.00    +0.292 HD
ENDBRANCH   7  20
BRANCH   5  22
ATOM     22  O   UNL     1       7.082  -5.940  28.151  0.00  0.00    -0.495 OA
ATOM     23  C   UNL     1       6.117  -6.378  29.102  0.00  0.00    +0.277 C 
ENDBRANCH   5  22
TORSDOF 4
ENDMDL
MODEL 3
REMARK VINA RESULT:      -6.9      1.593      3.073
REMARK  Name = 
REMARK  5 active torsions:
REMARK  status: ('A' for Active; 'I' for Inactive)
REMARK    1  A    between atoms: C_2  and  C_16
REMARK    2  A    between atoms: C_10  and  O_11
REMARK    3  A    between atoms: O_11  and  C_12
REMARK    4  A    between atoms: C_14  and  O_15
REMARK    5  A    between atoms: C_19  and  O_20
REMARK                            x       y       z     vdW  Elec       q    Type
REMARK                         _______ _______ _______ _____ _____    ______ ____
ROOT
ATOM      1  C   UNL     1       7.936  -1.803  24.306  0.00  0.00    +0.211 C 
ATOM      2  O   UNL     1       7.085  -2.476  23.360  0.00  0.00    -0.483 OA
ATOM      3  C   UNL     1       6.477  -3.602  23.863  0.00  0.00    +0.139 A 
ATOM      4  C   UNL     1       5.393  -4.091  23.127  0.00  0.00    +0.092 A 
ATOM      5  C   UNL     1       4.706  -5.236  23.544  0.00  0.00    +0.127 A 
ATOM      6  C   UNL     1       5.112  -5.895  24.705  0.00  0.00    +0.092 A 
ATOM      7  C   UNL     1       6.205  -5.418  25.435  0.00  0.00    +0.134 A 
ATOM      8  C   UNL     1       6.895  -4.276  25.016  0.00  0.00    +0.101 A 
ATOM      9  C   UNL     1       8.094  -3.755  25.716  0.00  0.00    +0.174 C 
ATOM     10  O   UNL     1       8.418  -4.087  26.850  0.00  0.00    -0.292 OA
ATOM     11  C   UNL     1       8.916  -2.784  24.925  0.00  0.00    +0.129 C 
ENDROOT
BRANCH   1  12
ATOM     12  C   UNL     1       8.701  -0.674  23.633  0.00  0.00    -0.007 A 
ATOM     13  C   UNL     1       8.784  -0.639  22.230  0.00  0.00    +0.011 A 
ATOM     14  C   UNL     1       9.417   0.422  21.579  0.00  0.00    +0.046 A 
ATOM     15  C   UNL     1       9.964   1.457  22.324  0.00  0.00    +0.117 A 
ATOM     16  C   UNL     1       9.901   1.443  23.713  0.00  0.00    +0.046 A 
ATOM     17  C   UNL     1       9.268   0.381  24.366  0.00  0.00    +0.011 A 
BRANCH  15  18
ATOM     18  O   UNL     1      10.554   2.484  21.648  0.00  0.00    -0.507 OA
ATOM     19  H   UNL     1      11.202   2.113  21.027  0.00  0.00    +0.292 HD
ENDBRANCH  15  18
ENDBRANCH   1  12
BRANCH   7  20
ATOM     20  O   UNL     1       6.607  -6.108  26.543  0.00  0.00    -0.506 OA
ATOM     21  H   UNL     1       6.545  -7.065  26.397  0.00  0.00    +0.292 HD
ENDBRANCH   7  20
BRANCH   5  22
ATOM     22  O   UNL     1       3.665  -5.610  22.737  0.00  0.00    -0.495 OA
ATOM     23  C   UNL     1       2.361  -5.585  23.308  0.00  0.00    +0.277 C 
ENDBRANCH   5  22
TORSDOF 4
ENDMDL
MODEL 4
REMARK VINA RESULT:      -6.9      2.206      7.182
REMARK  Name = 
REMARK  5 active torsions:
REMARK  status: ('A' for Active; 'I' for Inactive)
REMARK    1  A    between atoms: C_2  and  C_16
REMARK    2  A    between atoms: C_10  and  O_11
REMARK    3  A    between atoms: O_11  and  C_12
REMARK    4  A    between atoms: C_14  and  O_15
REMARK    5  A    between atoms: C_19  and  O_20
REMARK                            x       y       z     vdW  Elec       q    Type
REMARK                         _______ _______ _______ _____ _____    ______ ____
ROOT
ATOM      1  C   UNL     1       8.307  -1.419  24.430  0.00  0.00    +0.211 C 
ATOM      2  O   UNL     1       8.316  -0.252  25.274  0.00  0.00    -0.483 OA
ATOM      3  C   UNL     1       8.653   0.907  24.616  0.00  0.00    +0.139 A 
ATOM      4  C   UNL     1       8.345   2.098  25.281  0.00  0.00    +0.092 A 
ATOM      5  C   UNL     1       8.650   3.336  24.705  0.00  0.00    +0.127 A 
ATOM      6  C   UNL     1       9.272   3.378  23.456  0.00  0.00    +0.092 A 
ATOM      7  C   UNL     1       9.595   2.188  22.796  0.00  0.00    +0.134 A 
ATOM      8  C   UNL     1       9.293   0.950  23.373  0.00  0.00    +0.101 A 
ATOM      9  C   UNL     1       9.661  -0.343  22.747  0.00  0.00    +0.174 C 
ATOM     10  O   UNL     1       9.994  -0.461  21.573  0.00  0.00    -0.292 OA
ATOM     11  C   UNL     1       9.616  -1.526  23.665  0.00  0.00    +0.129 C 
ENDROOT
BRANCH   1  12
ATOM     12  C   UNL     1       8.096  -2.678  25.256  0.00  0.00    -0.007 A 
ATOM     13  C   UNL     1       9.026  -3.728  25.163  0.00  0.00    +0.011 A 
ATOM     14  C   UNL     1       8.898  -4.866  25.962  0.00  0.00    +0.046 A 
ATOM     15  C   UNL     1       7.847  -4.960  26.863  0.00  0.00    +0.117 A 
ATOM     16  C   UNL     1       6.910  -3.937  26.970  0.00  0.00    +0.046 A 
ATOM     17  C   UNL     1       7.036  -2.798  26.170  0.00  0.00    +0.011 A 
BRANCH  15  18
ATOM     18  O   UNL     1       7.773  -6.078  27.639  0.00  0.00    -0.507 OA
ATOM     19  H   UNL     1       7.805  -6.858  27.062  0.00  0.00    +0.292 HD
ENDBRANCH  15  18
ENDBRANCH   1  12
BRANCH   7  20
ATOM     20  O   UNL     1      10.242   2.258  21.594  0.00  0.00    -0.506 OA
ATOM     21  H   UNL     1      10.809   1.483  21.460  0.00  0.00    +0.292 HD
ENDBRANCH   7  20
BRANCH   5  22
ATOM     22  O   UNL     1       8.298   4.424  25.457  0.00  0.00    -0.495 OA
ATOM     23  C   UNL     1       9.027   5.627  25.235  0.00  0.00    +0.277 C 
ENDBRANCH   5  22
TORSDOF 4
ENDMDL
MODEL 5
REMARK VINA RESULT:      -6.7      2.424      3.355
REMARK  Name = 
REMARK  5 active torsions:
REMARK  status: ('A' for Active; 'I' for Inactive)
REMARK    1  A    between atoms: C_2  and  C_16
REMARK    2  A    between atoms: C_10  and  O_11
REMARK    3  A    between atoms: O_11  and  C_12
REMARK    4  A    between atoms: C_14  and  O_15
REMARK    5  A    between atoms: C_19  and  O_20
REMARK                            x       y       z     vdW  Elec       q    Type
REMARK                         _______ _______ _______ _____ _____    ______ ____
ROOT
ATOM      1  C   UNL     1       7.954  -0.648  23.757  0.00  0.00    +0.211 C 
ATOM      2  O   UNL     1       6.789  -1.196  23.113  0.00  0.00    -0.483 OA
ATOM      3  C   UNL     1       6.719  -2.568  23.163  0.00  0.00    +0.139 A 
ATOM      4  C   UNL     1       5.470  -3.127  22.873  0.00  0.00    +0.092 A 
ATOM      5  C   UNL     1       5.289  -4.514  22.888  0.00  0.00    +0.127 A 
ATOM      6  C   UNL     1       6.369  -5.344  23.192  0.00  0.00    +0.092 A 
ATOM      7  C   UNL     1       7.622  -4.789  23.467  0.00  0.00    +0.134 A 
ATOM      8  C   UNL     1       7.805  -3.402  23.449  0.00  0.00    +0.101 A 
ATOM      9  C   UNL     1       9.121  -2.758  23.677  0.00  0.00    +0.174 C 
ATOM     10  O   UNL     1      10.084  -3.334  24.171  0.00  0.00    -0.292 OA
ATOM     11  C   UNL     1       9.210  -1.328  23.241  0.00  0.00    +0.129 C 
ENDROOT
BRANCH   1  12
ATOM     12  C   UNL     1       8.048   0.850  23.514  0.00  0.00    -0.007 A 
ATOM     13  C   UNL     1       8.932   1.620  24.290  0.00  0.00    +0.011 A 
ATOM     14  C   UNL     1       9.095   2.984  24.042  0.00  0.00    +0.046 A 
ATOM     15  C   UNL     1       8.381   3.587  23.016  0.00  0.00    +0.117 A 
ATOM     16  C   UNL     1       7.496   2.849  22.238  0.00  0.00    +0.046 A 
ATOM     17  C   UNL     1       7.332   1.482  22.485  0.00  0.00    +0.011 A 
BRANCH  15  18
ATOM     18  O   UNL     1       8.587   4.917  22.794  0.00  0.00    -0.507 OA
ATOM     19  H   UNL     1       7.898   5.239  22.191  0.00  0.00    +0.292 HD
ENDBRANCH  15  18
ENDBRANCH   1  12
BRANCH   7  20
ATOM     20  O   UNL     1       8.672  -5.627  23.719  0.00  0.00    -0.506 OA
ATOM     21  H   UNL     1       8.640  -6.405  23.142  0.00  0.00    +0.292 HD
ENDBRANCH   7  20
BRANCH   5  22
ATOM     22  O   UNL     1       4.022  -4.934  22.587  0.00  0.00    -0.495 OA
ATOM     23  C   UNL     1       3.076  -4.953  23.651  0.00  0.00    +0.277 C 
ENDBRANCH   5  22
TORSDOF 4
ENDMDL
MODEL 6
REMARK VINA RESULT:      -6.6      2.086      2.927
REMARK  Name = 
REMARK  5 active torsions:
REMARK  status: ('A' for Active; 'I' for Inactive)
REMARK    1  A    between atoms: C_2  and  C_16
REMARK    2  A    between atoms: C_10  and  O_11
REMARK    3  A    between atoms: O_11  and  C_12
REMARK    4  A    between atoms: C_14  and  O_15
REMARK    5  A    between atoms: C_19  and  O_20
REMARK                            x       y       z     vdW  Elec       q    Type
REMARK                         _______ _______ _______ _____ _____    ______ ____
ROOT
ATOM      1  C   UNL     1       8.928  -1.725  25.258  0.00  0.00    +0.211 C 
ATOM      2  O   UNL     1       7.513  -1.638  25.509  0.00  0.00    -0.483 OA
ATOM      3  C   UNL     1       7.022  -2.664  26.281  0.00  0.00    +0.139 A 
ATOM      4  C   UNL     1       5.757  -2.456  26.841  0.00  0.00    +0.092 A 
ATOM      5  C   UNL     1       5.159  -3.438  27.637  0.00  0.00    +0.127 A 
ATOM      6  C   UNL     1       5.834  -4.638  27.870  0.00  0.00    +0.092 A 
ATOM      7  C   UNL     1       7.091  -4.855  27.300  0.00  0.00    +0.134 A 
ATOM      8  C   UNL     1       7.688  -3.875  26.499  0.00  0.00    +0.101 A 
ATOM      9  C   UNL     1       8.993  -4.070  25.823  0.00  0.00    +0.174 C 
ATOM     10  O   UNL     1       9.786  -4.958  26.116  0.00  0.00    -0.292 OA
ATOM     11  C   UNL     1       9.285  -3.100  24.720  0.00  0.00    +0.129 C 
ENDROOT
BRANCH   1  12
ATOM     12  C   UNL     1       9.364  -0.659  24.265  0.00  0.00    -0.007 A 
ATOM     13  C   UNL     1       8.960  -0.761  22.923  0.00  0.00    +0.011 A 
ATOM     14  C   UNL     1       9.283   0.238  22.003  0.00  0.00    +0.046 A 
ATOM     15  C   UNL     1      10.005   1.348  22.418  0.00  0.00    +0.117 A 
ATOM     16  C   UNL     1      10.422   1.470  23.739  0.00  0.00    +0.046 A 
ATOM     17  C   UNL     1      10.100   0.470  24.661  0.00  0.00    +0.011 A 
BRANCH  15  18
ATOM     18  O   UNL     1      10.280   2.310  21.491  0.00  0.00    -0.507 OA
ATOM     19  H   UNL     1       9.827   2.080  20.664  0.00  0.00    +0.292 HD
ENDBRANCH  15  18
ENDBRANCH   1  12
BRANCH   7  20
ATOM     20  O   UNL     1       7.710  -6.055  27.509  0.00  0.00    -0.506 OA
ATOM     21  H   UNL     1       8.422  -5.969  28.161  0.00  0.00    +0.292 HD
ENDBRANCH   7  20
BRANCH   5  22
ATOM     22  O   UNL     1       3.922  -3.112  28.124  0.00  0.00    -0.495 OA
ATOM     23  C   UNL     1       3.350  -1.889  27.672  0.00  0.00    +0.277 C 
ENDBRANCH   5  22
TORSDOF 4
ENDMDL
MODEL 7
REMARK VINA RESULT:      -6.4      2.394      4.491
REMARK  Name = 
REMARK  5 active torsions:
REMARK  status: ('A' for Active; 'I' for Inactive)
REMARK    1  A    between atoms: C_2  and  C_16
REMARK    2  A    between atoms: C_10  and  O_11
REMARK    3  A    between atoms: O_11  and  C_12
REMARK    4  A    between atoms: C_14  and  O_15
REMARK    5  A    between atoms: C_19  and  O_20
REMARK                            x       y       z     vdW  Elec       q    Type
REMARK                         _______ _______ _______ _____ _____    ______ ____
ROOT
ATOM      1  C   UNL     1       7.028  -3.891  25.076  0.00  0.00    +0.211 C 
ATOM      2  O   UNL     1       5.946  -4.512  24.357  0.00  0.00    -0.483 OA
ATOM      3  C   UNL     1       5.217  -5.402  25.110  0.00  0.00    +0.139 A 
ATOM      4  C   UNL     1       3.971  -5.766  24.590  0.00  0.00    +0.092 A 
ATOM      5  C   UNL     1       3.151  -6.671  25.270  0.00  0.00    +0.127 A 
ATOM      6  C   UNL     1       3.585  -7.217  26.479  0.00  0.00    +0.092 A 
ATOM      7  C   UNL     1       4.837  -6.868  26.995  0.00  0.00    +0.134 A 
ATOM      8  C   UNL     1       5.660  -5.965  26.312  0.00  0.00    +0.101 A 
ATOM      9  C   UNL     1       7.019  -5.599  26.780  0.00  0.00    +0.174 C 
ATOM     10  O   UNL     1       7.430  -5.816  27.914  0.00  0.00    -0.292 OA
ATOM     11  C   UNL     1       7.888  -4.946  25.750  0.00  0.00    +0.129 C 
ENDROOT
BRANCH   1  12
ATOM     12  C   UNL     1       7.886  -3.055  24.139  0.00  0.00    -0.007 A 
ATOM     13  C   UNL     1       9.263  -2.932  24.391  0.00  0.00    +0.011 A 
ATOM     14  C   UNL     1      10.090  -2.232  23.510  0.00  0.00    +0.046 A 
ATOM     15  C   UNL     1       9.548  -1.657  22.369  0.00  0.00    +0.117 A 
ATOM     16  C   UNL     1       8.188  -1.760  22.100  0.00  0.00    +0.046 A 
ATOM     17  C   UNL     1       7.359  -2.460  22.982  0.00  0.00    +0.011 A 
BRANCH  15  18
ATOM     18  O   UNL     1      10.395  -1.002  21.525  0.00  0.00    -0.507 OA
ATOM     19  H   UNL     1      10.080  -1.126  20.615  0.00  0.00    +0.292 HD
ENDBRANCH  15  18
ENDBRANCH   1  12
BRANCH   7  20
ATOM     20  O   UNL     1       5.255  -7.450  28.157  0.00  0.00    -0.506 OA
ATOM     21  H   UNL     1       6.163  -7.781  28.072  0.00  0.00    +0.292 HD
ENDBRANCH   7  20
BRANCH   5  22
ATOM     22  O   UNL     1       1.958  -6.944  24.656  0.00  0.00    -0.495 OA
ATOM     23  C   UNL     1       1.880  -8.147  23.899  0.00  0.00    +0.277 C 
ENDBRANCH   5  22
TORSDOF 4
ENDMDL
MODEL 8
REMARK VINA RESULT:      -6.4      2.571      7.360
REMARK  Name = 
REMARK  5 active torsions:
REMARK  status: ('A' for Active; 'I' for Inactive)
REMARK    1  A    between atoms: C_2  and  C_16
REMARK    2  A    between atoms: C_10  and  O_11
REMARK    3  A    between atoms: O_11  and  C_12
REMARK    4  A    between atoms: C_14  and  O_15
REMARK    5  A    between atoms: C_19  and  O_20
REMARK                            x       y       z     vdW  Elec       q    Type
REMARK                         _______ _______ _______ _____ _____    ______ ____
ROOT
ATOM      1  C   UNL     1       8.800  -0.994  24.288  0.00  0.00    +0.211 C 
ATOM      2  O   UNL     1       7.552  -0.297  24.116  0.00  0.00    -0.483 OA
ATOM      3  C   UNL     1       7.693   0.987  23.645  0.00  0.00    +0.139 A 
ATOM      4  C   UNL     1       6.534   1.581  23.135  0.00  0.00    +0.092 A 
ATOM      5  C   UNL     1       6.563   2.888  22.637  0.00  0.00    +0.127 A 
ATOM      6  C   UNL     1       7.761   3.603  22.654  0.00  0.00    +0.092 A 
ATOM      7  C   UNL     1       8.918   3.018  23.178  0.00  0.00    +0.134 A 
ATOM      8  C   UNL     1       8.889   1.712  23.680  0.00  0.00    +0.101 A 
ATOM      9  C   UNL     1      10.068   1.059  24.297  0.00  0.00    +0.174 C 
ATOM     10  O   UNL     1      11.216   1.471  24.176  0.00  0.00    -0.292 OA
ATOM     11  C   UNL     1       9.761  -0.158  25.116  0.00  0.00    +0.129 C 
ENDROOT
BRANCH   1  12
ATOM     12  C   UNL     1       8.577  -2.336  24.967  0.00  0.00    -0.007 A 
ATOM     13  C   UNL     1       9.352  -3.443  24.580  0.00  0.00    +0.011 A 
ATOM     14  C   UNL     1       9.221  -4.669  25.234  0.00  0.00    +0.046 A 
ATOM     15  C   UNL     1       8.322  -4.797  26.282  0.00  0.00    +0.117 A 
ATOM     16  C   UNL     1       7.538  -3.719  26.681  0.00  0.00    +0.046 A 
ATOM     17  C   UNL     1       7.668  -2.491  26.026  0.00  0.00    +0.011 A 
BRANCH  15  18
ATOM     18  O   UNL     1       8.242  -6.006  26.907  0.00  0.00    -0.507 OA
ATOM     19  H   UNL     1       8.560  -5.904  27.819  0.00  0.00    +0.292 HD
ENDBRANCH  15  18
ENDBRANCH   1  12
BRANCH   7  20
ATOM     20  O   UNL     1      10.066   3.757  23.222  0.00  0.00    -0.506 OA
ATOM     21  H   UNL     1      10.783   3.311  22.744  0.00  0.00    +0.292 HD
ENDBRANCH   7  20
BRANCH   5  22
ATOM     22  O   UNL     1       5.364   3.353  22.167  0.00  0.00    -0.495 OA
ATOM     23  C   UNL     1       4.776   4.446  22.864  0.00  0.00    +0.277 C 
ENDBRANCH   5  22
TORSDOF 4
ENDMDL
MODEL 9
REMARK VINA RESULT:      -6.3      2.533      2.952
REMARK  Name = 
REMARK  5 active torsions:
REMARK  status: ('A' for Active; 'I' for Inactive)
REMARK    1  A    between atoms: C_2  and  C_16
REMARK    2  A    between atoms: C_10  and  O_11
REMARK    3  A    between atoms: O_11  and  C_12
REMARK    4  A    between atoms: C_14  and  O_15
REMARK    5  A    between atoms: C_19  and  O_20
REMARK                            x       y       z     vdW  Elec       q    Type
REMARK                         _______ _______ _______ _____ _____    ______ ____
ROOT
ATOM      1  C   UNL     1       7.198  -2.743  23.143  0.00  0.00    +0.211 C 
ATOM      2  O   UNL     1       5.902  -2.445  23.694  0.00  0.00    -0.483 OA
ATOM      3  C   UNL     1       5.179  -3.560  24.047  0.00  0.00    +0.139 A 
ATOM      4  C   UNL     1       4.086  -3.337  24.891  0.00  0.00    +0.092 A 
ATOM      5  C   UNL     1       3.277  -4.400  25.306  0.00  0.00    +0.127 A 
ATOM      6  C   UNL     1       3.565  -5.693  24.868  0.00  0.00    +0.092 A 
ATOM      7  C   UNL     1       4.647  -5.918  24.011  0.00  0.00    +0.134 A 
ATOM      8  C   UNL     1       5.454  -4.854  23.593  0.00  0.00    +0.101 A 
ATOM      9  C   UNL     1       6.580  -5.022  22.643  0.00  0.00    +0.174 C 
ATOM     10  O   UNL     1       7.080  -6.105  22.363  0.00  0.00    -0.292 OA
ATOM     11  C   UNL     1       7.072  -3.753  22.015  0.00  0.00    +0.129 C 
ENDROOT
BRANCH   1  12
ATOM     12  C   UNL     1       7.864  -1.479  22.622  0.00  0.00    -0.007 A 
ATOM     13  C   UNL     1       7.271  -0.231  22.879  0.00  0.00    +0.011 A 
ATOM     14  C   UNL     1       7.895   0.951  22.478  0.00  0.00    +0.046 A 
ATOM     15  C   UNL     1       9.117   0.897  21.824  0.00  0.00    +0.117 A 
ATOM     16  C   UNL     1       9.722  -0.326  21.552  0.00  0.00    +0.046 A 
ATOM     17  C   UNL     1       9.099  -1.511  21.953  0.00  0.00    +0.011 A 
BRANCH  15  18
ATOM     18  O   UNL     1       9.702   2.076  21.469  0.00  0.00    -0.507 OA
ATOM     19  H   UNL     1      10.663   1.944  21.424  0.00  0.00    +0.292 HD
ENDBRANCH  15  18
ENDBRANCH   1  12
BRANCH   7  20
ATOM     20  O   UNL     1       4.879  -7.187  23.564  0.00  0.00    -0.506 OA
ATOM     21  H   UNL     1       5.698  -7.228  23.047  0.00  0.00    +0.292 HD
ENDBRANCH   7  20
BRANCH   5  22
ATOM     22  O   UNL     1       2.242  -4.049  26.130  0.00  0.00    -0.495 OA
ATOM     23  C   UNL     1       2.472  -4.137  27.532  0.00  0.00    +0.277 C 
ENDBRANCH   5  22
TORSDOF 4
ENDMDL
