MODEL 1
REMARK VINA RESULT:      -4.2      0.000      0.000
REMARK  Name = 
REMARK  2 active torsions:
REMARK  status: ('A' for Active; 'I' for Inactive)
REMARK    1  A    between atoms: N_1  and  C_2
REMARK    2  A    between atoms: C_7  and  O_8
REMARK                            x       y       z     vdW  Elec       q    Type
REMARK                         _______ _______ _______ _____ _____    ______ ____
ROOT
ATOM      1  C   UNL     1      10.079   1.109  22.528  0.00  0.00    +0.067 A 
ATOM      2  C   UNL     1       9.765  -0.225  22.225  0.00  0.00    +0.137 A 
ATOM      3  C   UNL     1       9.746  -1.207  23.214  0.00  0.00    +0.047 A 
ATOM      4  C   UNL     1      10.015  -0.852  24.535  0.00  0.00    +0.004 A 
ATOM      5  C   UNL     1      10.289   0.477  24.859  0.00  0.00    +0.002 A 
ATOM      6  C   UNL     1      10.301   1.456  23.861  0.00  0.00    +0.026 A 
ENDROOT
BRANCH   1   7
ATOM      7  N   UNL     1       9.961   2.108  21.545  0.00  0.00    -0.355 N 
ATOM      8  H   UNL     1      10.326   2.990  21.900  0.00  0.00    +0.142 HD
ATOM      9  H   UNL     1       9.028   2.188  21.155  0.00  0.00    +0.142 HD
ENDBRANCH   1   7
BRANCH   2  10
ATOM     10  O   UNL     1       9.504  -0.545  20.916  0.00  0.00    -0.505 OA
ATOM     11  H   UNL     1       8.543  -0.640  20.817  0.00  0.00    +0.292 HD
ENDBRANCH   2  10
TORSDOF 2
ENDMDL
MODEL 2
REMARK VINA RESULT:      -4.2      1.658      2.424
REMARK  Name = 
REMARK  2 active torsions:
REMARK  status: ('A' for Active; 'I' for Inactive)
REMARK    1  A    between atoms: N_1  and  C_2
REMARK    2  A    between atoms: C_7  and  O_8
REMARK                            x       y       z     vdW  Elec       q    Type
REMARK                         _______ _______ _______ _____ _____    ______ ____
ROOT
ATOM      1  C   UNL     1       9.873   0.902  22.187  0.00  0.00    +0.067 A 
ATOM      2  C   UNL     1      10.298   0.622  23.495  0.00  0.00    +0.137 A 
ATOM      3  C   UNL     1      10.239  -0.669  24.015  0.00  0.00    +0.047 A 
ATOM      4  C   UNL     1       9.776  -1.709  23.211  0.00  0.00    +0.004 A 
ATOM      5  C   UNL     1       9.388  -1.455  21.895  0.00  0.00    +0.002 A 
ATOM      6  C   UNL     1       9.455  -0.158  21.381  0.00  0.00    +0.026 A 
ENDROOT
BRANCH   1   7
ATOM      7  N   UNL     1      10.067   2.181  21.635  0.00  0.00    -0.355 N 
ATOM      8  H   UNL     1      10.417   2.098  20.681  0.00  0.00    +0.142 HD
ATOM      9  H   UNL     1      10.626   2.794  22.215  0.00  0.00    +0.142 HD
ENDBRANCH   1   7
BRANCH   2  10
ATOM     10  O   UNL     1      10.750   1.666  24.262  0.00  0.00    -0.505 OA
ATOM     11  H   UNL     1      10.546   2.492  23.796  0.00  0.00    +0.292 HD
ENDBRANCH   2  10
TORSDOF 2
ENDMDL
MODEL 3
REMARK VINA RESULT:      -4.2      1.593      2.350
REMARK  Name = 
REMARK  2 active torsions:
REMARK  status: ('A' for Active; 'I' for Inactive)
REMARK    1  A    between atoms: N_1  and  C_2
REMARK    2  A    between atoms: C_7  and  O_8
REMARK                            x       y       z     vdW  Elec       q    Type
REMARK                         _______ _______ _______ _____ _____    ______ ____
ROOT
ATOM      1  C   UNL     1       9.842  -0.141  22.291  0.00  0.00    +0.067 A 
ATOM      2  C   UNL     1       9.485   1.171  21.945  0.00  0.00    +0.137 A 
ATOM      3  C   UNL     1       9.794   2.248  22.772  0.00  0.00    +0.047 A 
ATOM      4  C   UNL     1      10.498   2.022  23.954  0.00  0.00    +0.004 A 
ATOM      5  C   UNL     1      10.896   0.728  24.293  0.00  0.00    +0.002 A 
ATOM      6  C   UNL     1      10.586  -0.346  23.454  0.00  0.00    +0.026 A 
ENDROOT
BRANCH   1   7
ATOM      7  N   UNL     1       9.643  -1.196  21.382  0.00  0.00    -0.355 N 
ATOM      8  H   UNL     1      10.175  -2.014  21.677  0.00  0.00    +0.142 HD
ATOM      9  H   UNL     1       9.807  -0.938  20.416  0.00  0.00    +0.142 HD
ENDBRANCH   1   7
BRANCH   2  10
ATOM     10  O   UNL     1       8.793   1.362  20.775  0.00  0.00    -0.505 OA
ATOM     11  H   UNL     1       9.233   2.071  20.279  0.00  0.00    +0.292 HD
ENDBRANCH   2  10
TORSDOF 2
ENDMDL
MODEL 4
REMARK VINA RESULT:      -4.1      1.522      2.185
REMARK  Name = 
REMARK  2 active torsions:
REMARK  status: ('A' for Active; 'I' for Inactive)
REMARK    1  A    between atoms: N_1  and  C_2
REMARK    2  A    between atoms: C_7  and  O_8
REMARK                            x       y       z     vdW  Elec       q    Type
REMARK                         _______ _______ _______ _____ _____    ______ ____
ROOT
ATOM      1  C   UNL     1      10.309   0.831  23.381  0.00  0.00    +0.067 A 
ATOM      2  C   UNL     1       9.860   0.899  22.054  0.00  0.00    +0.137 A 
ATOM      3  C   UNL     1       9.470  -0.244  21.361  0.00  0.00    +0.047 A 
ATOM      4  C   UNL     1       9.498  -1.479  22.009  0.00  0.00    +0.004 A 
ATOM      5  C   UNL     1       9.903  -1.559  23.342  0.00  0.00    +0.002 A 
ATOM      6  C   UNL     1      10.289  -0.405  24.030  0.00  0.00    +0.026 A 
ENDROOT
BRANCH   1   7
ATOM      7  N   UNL     1      10.569   2.008  24.106  0.00  0.00    -0.355 N 
ATOM      8  H   UNL     1      11.306   1.839  24.790  0.00  0.00    +0.142 HD
ATOM      9  H   UNL     1       9.740   2.431  24.506  0.00  0.00    +0.142 HD
ENDBRANCH   1   7
BRANCH   2  10
ATOM     10  O   UNL     1       9.843   2.128  21.442  0.00  0.00    -0.505 OA
ATOM     11  H   UNL     1       8.916   2.393  21.327  0.00  0.00    +0.292 HD
ENDBRANCH   2  10
TORSDOF 2
ENDMDL
MODEL 5
REMARK VINA RESULT:      -4.1      1.742      2.450
REMARK  Name = 
REMARK  2 active torsions:
REMARK  status: ('A' for Active; 'I' for Inactive)
REMARK    1  A    between atoms: N_1  and  C_2
REMARK    2  A    between atoms: C_7  and  O_8
REMARK                            x       y       z     vdW  Elec       q    Type
REMARK                         _______ _______ _______ _____ _____    ______ ____
ROOT
ATOM      1  C   UNL     1      10.086  -0.734  23.337  0.00  0.00    +0.067 A 
ATOM      2  C   UNL     1       9.869  -0.134  22.087  0.00  0.00    +0.137 A 
ATOM      3  C   UNL     1       9.930   1.248  21.927  0.00  0.00    +0.047 A 
ATOM      4  C   UNL     1      10.242   2.050  23.024  0.00  0.00    +0.004 A 
ATOM      5  C   UNL     1      10.500   1.467  24.264  0.00  0.00    +0.002 A 
ATOM      6  C   UNL     1      10.442   0.078  24.414  0.00  0.00    +0.026 A 
ENDROOT
BRANCH   1   7
ATOM      7  N   UNL     1      10.155  -2.135  23.451  0.00  0.00    -0.355 N 
ATOM      8  H   UNL     1       9.777  -2.429  24.351  0.00  0.00    +0.142 HD
ATOM      9  H   UNL     1      11.075  -2.514  23.261  0.00  0.00    +0.142 HD
ENDBRANCH   1   7
BRANCH   2  10
ATOM     10  O   UNL     1       9.565  -0.949  21.025  0.00  0.00    -0.505 OA
ATOM     11  H   UNL     1       9.882  -1.843  21.233  0.00  0.00    +0.292 HD
ENDBRANCH   2  10
TORSDOF 2
ENDMDL
MODEL 6
REMARK VINA RESULT:      -4.1      1.679      2.356
REMARK  Name = 
REMARK  2 active torsions:
REMARK  status: ('A' for Active; 'I' for Inactive)
REMARK    1  A    between atoms: N_1  and  C_2
REMARK    2  A    between atoms: C_7  and  O_8
REMARK                            x       y       z     vdW  Elec       q    Type
REMARK                         _______ _______ _______ _____ _____    ______ ____
ROOT
ATOM      1  C   UNL     1       9.933  -0.104  22.107  0.00  0.00    +0.067 A 
ATOM      2  C   UNL     1      10.197  -0.583  23.399  0.00  0.00    +0.137 A 
ATOM      3  C   UNL     1      10.498   0.285  24.446  0.00  0.00    +0.047 A 
ATOM      4  C   UNL     1      10.508   1.660  24.212  0.00  0.00    +0.004 A 
ATOM      5  C   UNL     1      10.207   2.155  22.943  0.00  0.00    +0.002 A 
ATOM      6  C   UNL     1       9.902   1.276  21.900  0.00  0.00    +0.026 A 
ENDROOT
BRANCH   1   7
ATOM      7  N   UNL     1       9.499  -0.983  21.098  0.00  0.00    -0.355 N 
ATOM      8  H   UNL     1       9.879  -1.914  21.261  0.00  0.00    +0.142 HD
ATOM      9  H   UNL     1       9.668  -0.640  20.159  0.00  0.00    +0.142 HD
ENDBRANCH   1   7
BRANCH   2  10
ATOM     10  O   UNL     1      10.180  -1.941  23.599  0.00  0.00    -0.505 OA
ATOM     11  H   UNL     1      10.077  -2.370  22.735  0.00  0.00    +0.292 HD
ENDBRANCH   2  10
TORSDOF 2
ENDMDL
MODEL 7
REMARK VINA RESULT:      -4.0      6.450      7.094
REMARK  Name = 
REMARK  2 active torsions:
REMARK  status: ('A' for Active; 'I' for Inactive)
REMARK    1  A    between atoms: N_1  and  C_2
REMARK    2  A    between atoms: C_7  and  O_8
REMARK                            x       y       z     vdW  Elec       q    Type
REMARK                         _______ _______ _______ _____ _____    ______ ____
ROOT
ATOM      1  C   UNL     1       8.642  -5.231  25.373  0.00  0.00    +0.067 A 
ATOM      2  C   UNL     1       7.599  -5.471  26.281  0.00  0.00    +0.137 A 
ATOM      3  C   UNL     1       6.266  -5.312  25.911  0.00  0.00    +0.047 A 
ATOM      4  C   UNL     1       5.960  -4.935  24.603  0.00  0.00    +0.004 A 
ATOM      5  C   UNL     1       6.983  -4.732  23.678  0.00  0.00    +0.002 A 
ATOM      6  C   UNL     1       8.318  -4.898  24.057  0.00  0.00    +0.026 A 
ENDROOT
BRANCH   1   7
ATOM      7  N   UNL     1       9.972  -5.527  25.723  0.00  0.00    -0.355 N 
ATOM      8  H   UNL     1      10.523  -5.697  24.883  0.00  0.00    +0.142 HD
ATOM      9  H   UNL     1      10.057  -6.264  26.414  0.00  0.00    +0.142 HD
ENDBRANCH   1   7
BRANCH   2  10
ATOM     10  O   UNL     1       7.931  -5.842  27.560  0.00  0.00    -0.505 OA
ATOM     11  H   UNL     1       8.387  -6.698  27.516  0.00  0.00    +0.292 HD
ENDBRANCH   2  10
TORSDOF 2
ENDMDL
MODEL 8
REMARK VINA RESULT:      -3.9      2.483      3.473
REMARK  Name = 
REMARK  2 active torsions:
REMARK  status: ('A' for Active; 'I' for Inactive)
REMARK    1  A    between atoms: N_1  and  C_2
REMARK    2  A    between atoms: C_7  and  O_8
REMARK                            x       y       z     vdW  Elec       q    Type
REMARK                         _______ _______ _______ _____ _____    ______ ____
ROOT
ATOM      1  C   UNL     1       9.891  -0.716  23.496  0.00  0.00    +0.067 A 
ATOM      2  C   UNL     1      10.268   0.495  24.097  0.00  0.00    +0.137 A 
ATOM      3  C   UNL     1      10.285   1.686  23.376  0.00  0.00    +0.047 A 
ATOM      4  C   UNL     1       9.892   1.682  22.038  0.00  0.00    +0.004 A 
ATOM      5  C   UNL     1       9.475   0.494  21.437  0.00  0.00    +0.002 A 
ATOM      6  C   UNL     1       9.457  -0.696  22.170  0.00  0.00    +0.026 A 
ENDROOT
BRANCH   1   7
ATOM      7  N   UNL     1       9.749  -1.881  24.271  0.00  0.00    -0.355 N 
ATOM      8  H   UNL     1       9.476  -2.663  23.677  0.00  0.00    +0.142 HD
ATOM      9  H   UNL     1       9.148  -1.763  25.079  0.00  0.00    +0.142 HD
ENDBRANCH   1   7
BRANCH   2  10
ATOM     10  O   UNL     1      10.650   0.468  25.415  0.00  0.00    -0.505 OA
ATOM     11  H   UNL     1      11.619   0.507  25.448  0.00  0.00    +0.292 HD
ENDBRANCH   2  10
TORSDOF 2
ENDMDL
MODEL 9
REMARK VINA RESULT:      -3.8      2.088      2.725
REMARK  Name = 
REMARK  2 active torsions:
REMARK  status: ('A' for Active; 'I' for Inactive)
REMARK    1  A    between atoms: N_1  and  C_2
REMARK    2  A    between atoms: C_7  and  O_8
REMARK                            x       y       z     vdW  Elec       q    Type
REMARK                         _______ _______ _______ _____ _____    ______ ____
ROOT
ATOM      1  C   UNL     1      10.105   0.339  24.012  0.00  0.00    +0.067 A 
ATOM      2  C   UNL     1       9.837  -0.910  23.431  0.00  0.00    +0.137 A 
ATOM      3  C   UNL     1       9.483  -1.022  22.088  0.00  0.00    +0.047 A 
ATOM      4  C   UNL     1       9.422   0.126  21.299  0.00  0.00    +0.004 A 
ATOM      5  C   UNL     1       9.725   1.370  21.852  0.00  0.00    +0.002 A 
ATOM      6  C   UNL     1      10.084   1.472  23.198  0.00  0.00    +0.026 A 
ENDROOT
BRANCH   1   7
ATOM      7  N   UNL     1      10.592   0.420  25.329  0.00  0.00    -0.355 N 
ATOM      8  H   UNL     1      11.050   1.319  25.476  0.00  0.00    +0.142 HD
ATOM      9  H   UNL     1      11.165  -0.370  25.601  0.00  0.00    +0.142 HD
ENDBRANCH   1   7
BRANCH   2  10
ATOM     10  O   UNL     1       9.906  -2.022  24.232  0.00  0.00    -0.505 OA
ATOM     11  H   UNL     1       9.378  -2.723  23.818  0.00  0.00    +0.292 HD
ENDBRANCH   2  10
TORSDOF 2
ENDMDL
