MODEL 1
REMARK VINA RESULT:      -7.6      0.000      0.000
REMARK  Name = 
REMARK  4 active torsions:
REMARK  status: ('A' for Active; 'I' for Inactive)
REMARK    1  A    between atoms: O_1  and  C_2
REMARK    2  A    between atoms: C_2  and  C_4
REMARK    3  A    between atoms: C_4  and  O_5
REMARK    4  A    between atoms: O_5  and  N_6
REMARK                            x       y       z     vdW  Elec       q    Type
REMARK                         _______ _______ _______ _____ _____    ______ ____
ROOT
ATOM      1  N   UNL     1       7.081  -3.897  23.120  0.00  0.00    -0.082 NA
ATOM      2  C   UNL     1       6.740  -3.455  24.289  0.00  0.00    +0.137 C 
ATOM      3  C   UNL     1       7.747  -2.697  25.137  0.00  0.00    +0.106 C 
ATOM      4  C   UNL     1       8.366  -1.573  24.745  0.00  0.00    +0.075 C 
ATOM      5  C   UNL     1       8.581  -0.853  23.524  0.00  0.00    +0.009 C 
ATOM      6  C   UNL     1       8.677   0.555  23.937  0.00  0.00    +0.046 C 
ATOM      7  C   UNL     1       8.741   1.656  22.919  0.00  0.00    +0.080 C 
ATOM      8  C   UNL     1       9.609   1.167  21.795  0.00  0.00    -0.021 C 
ATOM      9  C   UNL     1       9.787  -0.141  21.537  0.00  0.00    -0.003 C 
ATOM     10  N   UNL     1       8.758   0.700  25.226  0.00  0.00    -0.180 NA
ATOM     11  C   UNL     1       9.158  -1.173  22.355  0.00  0.00    +0.010 C 
ATOM     12  C   UNL     1       8.745  -0.567  25.796  0.00  0.00    +0.270 C 
ATOM     13  O   UNL     1       8.935  -0.792  26.972  0.00  0.00    -0.268 OA
ATOM     14  N   UNL     1       8.065  -3.447  26.266  0.00  0.00    -0.248 NA
ATOM     15  C   UNL     1       7.158  -4.383  26.362  0.00  0.00    +0.055 C 
ATOM     16  C   UNL     1       7.185  -5.617  27.215  0.00  0.00    +0.083 C 
ATOM     17  C   UNL     1       5.772  -6.006  27.557  0.00  0.00    -0.021 C 
ATOM     18  C   UNL     1       4.703  -5.503  26.910  0.00  0.00    -0.003 C 
ATOM     19  C   UNL     1       4.867  -4.665  25.727  0.00  0.00    +0.012 C 
ATOM     20  C   UNL     1       6.081  -4.217  25.381  0.00  0.00    +0.027 C 
ENDROOT
BRANCH   1  21
ATOM     21  O   UNL     1       7.501  -5.231  23.315  0.00  0.00    -0.382 OA
BRANCH  21  22
ATOM     22  C   UNL     1       7.366  -5.984  22.124  0.00  0.00    +0.382 C 
BRANCH  22  23
ATOM     23  C   UNL     1       6.049  -5.781  21.388  0.00  0.00    +0.345 C 
ATOM     24  O   UNL     1       5.987  -5.518  20.193  0.00  0.00    -0.247 OA
BRANCH  23  25
ATOM     25  O   UNL     1       4.937  -5.912  22.147  0.00  0.00    -0.478 OA
ATOM     26  H   UNL     1       4.259  -5.237  21.937  0.00  0.00    +0.295 HD
ENDBRANCH  23  25
ENDBRANCH  22  23
ENDBRANCH  21  22
ENDBRANCH   1  21
TORSDOF 4
ENDMDL
MODEL 2
REMARK VINA RESULT:      -7.5      2.213      3.449
REMARK  Name = 
REMARK  4 active torsions:
REMARK  status: ('A' for Active; 'I' for Inactive)
REMARK    1  A    between atoms: O_1  and  C_2
REMARK    2  A    between atoms: C_2  and  C_4
REMARK    3  A    between atoms: C_4  and  O_5
REMARK    4  A    between atoms: O_5  and  N_6
REMARK                            x       y       z     vdW  Elec       q    Type
REMARK                         _______ _______ _______ _____ _____    ______ ____
ROOT
ATOM      1  N   UNL     1       9.016  -3.793  23.404  0.00  0.00    -0.082 NA
ATOM      2  C   UNL     1       7.784  -3.479  23.156  0.00  0.00    +0.137 C 
ATOM      3  C   UNL     1       7.065  -2.473  24.039  0.00  0.00    +0.106 C 
ATOM      4  C   UNL     1       7.485  -1.214  24.242  0.00  0.00    +0.075 C 
ATOM      5  C   UNL     1       8.680  -0.451  24.036  0.00  0.00    +0.009 C 
ATOM      6  C   UNL     1       8.208   0.922  23.802  0.00  0.00    +0.046 C 
ATOM      7  C   UNL     1       9.157   2.005  23.381  0.00  0.00    +0.080 C 
ATOM      8  C   UNL     1      10.432   1.796  24.147  0.00  0.00    -0.021 C 
ATOM      9  C   UNL     1      10.790   0.596  24.638  0.00  0.00    -0.003 C 
ATOM     10  N   UNL     1       6.942   1.071  24.056  0.00  0.00    -0.180 NA
ATOM     11  C   UNL     1       9.944  -0.581  24.473  0.00  0.00    +0.010 C 
ATOM     12  C   UNL     1       6.451  -0.153  24.497  0.00  0.00    +0.270 C 
ATOM     13  O   UNL     1       5.336  -0.325  24.938  0.00  0.00    -0.268 OA
ATOM     14  N   UNL     1       6.046  -3.111  24.741  0.00  0.00    -0.248 NA
ATOM     15  C   UNL     1       5.862  -4.269  24.164  0.00  0.00    +0.055 C 
ATOM     16  C   UNL     1       5.096  -5.451  24.680  0.00  0.00    +0.083 C 
ATOM     17  C   UNL     1       4.556  -6.232  23.512  0.00  0.00    -0.021 C 
ATOM     18  C   UNL     1       4.993  -6.050  22.252  0.00  0.00    -0.003 C 
ATOM     19  C   UNL     1       6.137  -5.189  21.971  0.00  0.00    +0.012 C 
ATOM     20  C   UNL     1       6.646  -4.408  22.933  0.00  0.00    +0.027 C 
ENDROOT
BRANCH   1  21
ATOM     21  O   UNL     1       8.967  -4.953  24.209  0.00  0.00    -0.382 OA
BRANCH  21  22
ATOM     22  C   UNL     1       9.580  -4.723  25.465  0.00  0.00    +0.382 C 
BRANCH  22  23
ATOM     23  C   UNL     1       8.620  -4.687  26.645  0.00  0.00    +0.345 C 
ATOM     24  O   UNL     1       8.257  -3.646  27.178  0.00  0.00    -0.247 OA
BRANCH  23  25
ATOM     25  O   UNL     1       8.186  -5.895  27.073  0.00  0.00    -0.478 OA
ATOM     26  H   UNL     1       8.836  -6.340  27.655  0.00  0.00    +0.295 HD
ENDBRANCH  23  25
ENDBRANCH  22  23
ENDBRANCH  21  22
ENDBRANCH   1  21
TORSDOF 4
ENDMDL
MODEL 3
REMARK VINA RESULT:      -7.5      1.905      6.624
REMARK  Name = 
REMARK  4 active torsions:
REMARK  status: ('A' for Active; 'I' for Inactive)
REMARK    1  A    between atoms: O_1  and  C_2
REMARK    2  A    between atoms: C_2  and  C_4
REMARK    3  A    between atoms: C_4  and  O_5
REMARK    4  A    between atoms: O_5  and  N_6
REMARK                            x       y       z     vdW  Elec       q    Type
REMARK                         _______ _______ _______ _____ _____    ______ ____
ROOT
ATOM      1  N   UNL     1       7.049  -2.592  25.480  0.00  0.00    -0.082 NA
ATOM      2  C   UNL     1       6.758  -2.356  24.241  0.00  0.00    +0.137 C 
ATOM      3  C   UNL     1       6.708  -3.500  23.242  0.00  0.00    +0.106 C 
ATOM      4  C   UNL     1       5.910  -4.572  23.365  0.00  0.00    +0.075 C 
ATOM      5  C   UNL     1       5.119  -5.191  24.387  0.00  0.00    +0.009 C 
ATOM      6  C   UNL     1       4.012  -5.833  23.661  0.00  0.00    +0.046 C 
ATOM      7  C   UNL     1       2.864  -6.457  24.398  0.00  0.00    +0.080 C 
ATOM      8  C   UNL     1       3.436  -7.143  25.605  0.00  0.00    -0.021 C 
ATOM      9  C   UNL     1       4.605  -6.775  26.158  0.00  0.00    -0.003 C 
ATOM     10  N   UNL     1       4.188  -5.839  22.373  0.00  0.00    -0.180 NA
ATOM     11  C   UNL     1       5.406  -5.692  25.599  0.00  0.00    +0.010 C 
ATOM     12  C   UNL     1       5.412  -5.235  22.110  0.00  0.00    +0.270 C 
ATOM     13  O   UNL     1       5.936  -5.194  21.019  0.00  0.00    -0.268 OA
ATOM     14  N   UNL     1       7.737  -3.357  22.316  0.00  0.00    -0.248 NA
ATOM     15  C   UNL     1       8.184  -2.135  22.438  0.00  0.00    +0.055 C 
ATOM     16  C   UNL     1       9.454  -1.552  21.892  0.00  0.00    +0.083 C 
ATOM     17  C   UNL     1       9.252  -0.081  21.647  0.00  0.00    -0.021 C 
ATOM     18  C   UNL     1       8.213   0.605  22.159  0.00  0.00    -0.003 C 
ATOM     19  C   UNL     1       7.304  -0.015  23.118  0.00  0.00    +0.012 C 
ATOM     20  C   UNL     1       7.366  -1.333  23.353  0.00  0.00    +0.027 C 
ENDROOT
BRANCH   1  21
ATOM     21  O   UNL     1       8.442  -2.387  25.598  0.00  0.00    -0.382 OA
BRANCH  21  22
ATOM     22  C   UNL     1       9.035  -3.389  26.405  0.00  0.00    +0.382 C 
BRANCH  22  23
ATOM     23  C   UNL     1       9.197  -4.741  25.725  0.00  0.00    +0.345 C 
ATOM     24  O   UNL     1       9.730  -4.878  24.631  0.00  0.00    -0.247 OA
BRANCH  23  25
ATOM     25  O   UNL     1       8.709  -5.796  26.417  0.00  0.00    -0.478 OA
ATOM     26  H   UNL     1       8.380  -5.542  27.304  0.00  0.00    +0.295 HD
ENDBRANCH  23  25
ENDBRANCH  22  23
ENDBRANCH  21  22
ENDBRANCH   1  21
TORSDOF 4
ENDMDL
MODEL 4
REMARK VINA RESULT:      -7.4      2.058      3.109
REMARK  Name = 
REMARK  4 active torsions:
REMARK  status: ('A' for Active; 'I' for Inactive)
REMARK    1  A    between atoms: O_1  and  C_2
REMARK    2  A    between atoms: C_2  and  C_4
REMARK    3  A    between atoms: C_4  and  O_5
REMARK    4  A    between atoms: O_5  and  N_6
REMARK                            x       y       z     vdW  Elec       q    Type
REMARK                         _______ _______ _______ _____ _____    ______ ____
ROOT
ATOM      1  N   UNL     1       8.267  -4.259  22.998  0.00  0.00    -0.082 NA
ATOM      2  C   UNL     1       7.024  -3.919  23.129  0.00  0.00    +0.137 C 
ATOM      3  C   UNL     1       6.651  -2.717  23.980  0.00  0.00    +0.106 C 
ATOM      4  C   UNL     1       7.107  -1.473  23.766  0.00  0.00    +0.075 C 
ATOM      5  C   UNL     1       8.151  -0.844  23.013  0.00  0.00    +0.009 C 
ATOM      6  C   UNL     1       7.617   0.486  22.681  0.00  0.00    +0.046 C 
ATOM      7  C   UNL     1       8.354   1.404  21.750  0.00  0.00    +0.080 C 
ATOM      8  C   UNL     1       9.817   1.264  22.060  0.00  0.00    -0.021 C 
ATOM      9  C   UNL     1      10.331   0.161  22.631  0.00  0.00    -0.003 C 
ATOM     10  N   UNL     1       6.518   0.763  23.316  0.00  0.00    -0.180 NA
ATOM     11  C   UNL     1       9.488  -0.968  23.008  0.00  0.00    +0.010 C 
ATOM     12  C   UNL     1       6.220  -0.318  24.138  0.00  0.00    +0.270 C 
ATOM     13  O   UNL     1       5.329  -0.330  24.959  0.00  0.00    -0.268 OA
ATOM     14  N   UNL     1       5.945  -3.141  25.102  0.00  0.00    -0.248 NA
ATOM     15  C   UNL     1       5.578  -4.374  24.871  0.00  0.00    +0.055 C 
ATOM     16  C   UNL     1       5.048  -5.383  25.847  0.00  0.00    +0.083 C 
ATOM     17  C   UNL     1       4.140  -6.338  25.119  0.00  0.00    -0.021 C 
ATOM     18  C   UNL     1       4.110  -6.431  23.776  0.00  0.00    -0.003 C 
ATOM     19  C   UNL     1       5.079  -5.715  22.952  0.00  0.00    +0.012 C 
ATOM     20  C   UNL     1       5.886  -4.798  23.502  0.00  0.00    +0.027 C 
ENDROOT
BRANCH   1  21
ATOM     21  O   UNL     1       8.510  -5.236  23.990  0.00  0.00    -0.382 OA
BRANCH  21  22
ATOM     22  C   UNL     1       9.408  -4.750  24.971  0.00  0.00    +0.382 C 
BRANCH  22  23
ATOM     23  C   UNL     1       8.839  -4.689  26.381  0.00  0.00    +0.345 C 
ATOM     24  O   UNL     1       8.777  -3.652  27.031  0.00  0.00    -0.247 OA
BRANCH  23  25
ATOM     25  O   UNL     1       8.400  -5.868  26.878  0.00  0.00    -0.478 OA
ATOM     26  H   UNL     1       8.432  -5.896  27.857  0.00  0.00    +0.295 HD
ENDBRANCH  23  25
ENDBRANCH  22  23
ENDBRANCH  21  22
ENDBRANCH   1  21
TORSDOF 4
ENDMDL
MODEL 5
REMARK VINA RESULT:      -7.0      2.518      6.781
REMARK  Name = 
REMARK  4 active torsions:
REMARK  status: ('A' for Active; 'I' for Inactive)
REMARK    1  A    between atoms: O_1  and  C_2
REMARK    2  A    between atoms: C_2  and  C_4
REMARK    3  A    between atoms: C_4  and  O_5
REMARK    4  A    between atoms: O_5  and  N_6
REMARK                            x       y       z     vdW  Elec       q    Type
REMARK                         _______ _______ _______ _____ _____    ______ ____
ROOT
ATOM      1  N   UNL     1       6.234  -0.262  23.721  0.00  0.00    -0.082 NA
ATOM      2  C   UNL     1       7.408  -0.579  23.276  0.00  0.00    +0.137 C 
ATOM      3  C   UNL     1       8.210  -1.671  23.964  0.00  0.00    +0.106 C 
ATOM      4  C   UNL     1       7.782  -2.933  24.123  0.00  0.00    +0.075 C 
ATOM      5  C   UNL     1       6.546  -3.651  24.029  0.00  0.00    +0.009 C 
ATOM      6  C   UNL     1       6.936  -5.009  23.621  0.00  0.00    +0.046 C 
ATOM      7  C   UNL     1       5.903  -6.032  23.255  0.00  0.00    +0.080 C 
ATOM      8  C   UNL     1       4.756  -5.862  24.209  0.00  0.00    -0.021 C 
ATOM      9  C   UNL     1       4.509  -4.701  24.841  0.00  0.00    -0.003 C 
ATOM     10  N   UNL     1       8.220  -5.205  23.679  0.00  0.00    -0.180 NA
ATOM     11  C   UNL     1       5.361  -3.532  24.651  0.00  0.00    +0.010 C 
ATOM     12  C   UNL     1       8.807  -4.033  24.142  0.00  0.00    +0.270 C 
ATOM     13  O   UNL     1       9.978  -3.921  24.431  0.00  0.00    -0.268 OA
ATOM     14  N   UNL     1       9.338  -1.115  24.562  0.00  0.00    -0.248 NA
ATOM     15  C   UNL     1       9.477   0.083  24.059  0.00  0.00    +0.055 C 
ATOM     16  C   UNL     1      10.345   1.202  24.553  0.00  0.00    +0.083 C 
ATOM     17  C   UNL     1      10.741   2.067  23.386  0.00  0.00    -0.021 C 
ATOM     18  C   UNL     1      10.125   2.000  22.191  0.00  0.00    -0.003 C 
ATOM     19  C   UNL     1       8.926   1.189  22.009  0.00  0.00    +0.012 C 
ATOM     20  C   UNL     1       8.532   0.341  22.968  0.00  0.00    +0.027 C 
ENDROOT
BRANCH   1  21
ATOM     21  O   UNL     1       6.433   0.825  24.602  0.00  0.00    -0.382 OA
BRANCH  21  22
ATOM     22  C   UNL     1       6.133   0.457  25.936  0.00  0.00    +0.382 C 
BRANCH  22  23
ATOM     23  C   UNL     1       7.157   0.910  26.967  0.00  0.00    +0.345 C 
ATOM     24  O   UNL     1       7.102   1.998  27.528  0.00  0.00    -0.247 OA
BRANCH  23  25
ATOM     25  O   UNL     1       8.145   0.024  27.228  0.00  0.00    -0.478 OA
ATOM     26  H   UNL     1       7.864  -0.673  27.858  0.00  0.00    +0.295 HD
ENDBRANCH  23  25
ENDBRANCH  22  23
ENDBRANCH  21  22
ENDBRANCH   1  21
TORSDOF 4
ENDMDL
MODEL 6
REMARK VINA RESULT:      -7.0      2.929      4.729
REMARK  Name = 
REMARK  4 active torsions:
REMARK  status: ('A' for Active; 'I' for Inactive)
REMARK    1  A    between atoms: O_1  and  C_2
REMARK    2  A    between atoms: C_2  and  C_4
REMARK    3  A    between atoms: C_4  and  O_5
REMARK    4  A    between atoms: O_5  and  N_6
REMARK                            x       y       z     vdW  Elec       q    Type
REMARK                         _______ _______ _______ _____ _____    ______ ____
ROOT
ATOM      1  N   UNL     1       8.190  -0.702  26.137  0.00  0.00    -0.082 NA
ATOM      2  C   UNL     1       8.795  -1.302  25.161  0.00  0.00    +0.137 C 
ATOM      3  C   UNL     1       8.640  -0.786  23.741  0.00  0.00    +0.106 C 
ATOM      4  C   UNL     1       8.962   0.457  23.352  0.00  0.00    +0.075 C 
ATOM      5  C   UNL     1       9.253   1.717  23.970  0.00  0.00    +0.009 C 
ATOM      6  C   UNL     1      10.184   2.378  23.043  0.00  0.00    +0.046 C 
ATOM      7  C   UNL     1      10.858   3.666  23.412  0.00  0.00    +0.080 C 
ATOM      8  C   UNL     1       9.844   4.501  24.142  0.00  0.00    -0.021 C 
ATOM      9  C   UNL     1       8.795   3.961  24.786  0.00  0.00    -0.003 C 
ATOM     10  N   UNL     1      10.286   1.761  21.903  0.00  0.00    -0.180 NA
ATOM     11  C   UNL     1       8.564   2.520  24.797  0.00  0.00    +0.010 C 
ATOM     12  C   UNL     1       9.438   0.660  21.941  0.00  0.00    +0.270 C 
ATOM     13  O   UNL     1       9.200  -0.054  20.992  0.00  0.00    -0.268 OA
ATOM     14  N   UNL     1       7.942  -1.719  22.978  0.00  0.00    -0.248 NA
ATOM     15  C   UNL     1       7.943  -2.835  23.658  0.00  0.00    +0.055 C 
ATOM     16  C   UNL     1       7.104  -4.058  23.436  0.00  0.00    +0.083 C 
ATOM     17  C   UNL     1       7.861  -5.266  23.920  0.00  0.00    -0.021 C 
ATOM     18  C   UNL     1       8.947  -5.174  24.710  0.00  0.00    -0.003 C 
ATOM     19  C   UNL     1       9.359  -3.892  25.274  0.00  0.00    +0.012 C 
ATOM     20  C   UNL     1       8.786  -2.756  24.855  0.00  0.00    +0.027 C 
ENDROOT
BRANCH   1  21
ATOM     21  O   UNL     1       6.968  -1.389  26.318  0.00  0.00    -0.382 OA
BRANCH  21  22
ATOM     22  C   UNL     1       5.958  -0.510  26.782  0.00  0.00    +0.382 C 
BRANCH  22  23
ATOM     23  C   UNL     1       5.142   0.158  25.685  0.00  0.00    +0.345 C 
ATOM     24  O   UNL     1       4.205   0.912  25.917  0.00  0.00    -0.247 OA
BRANCH  23  25
ATOM     25  O   UNL     1       5.522  -0.138  24.421  0.00  0.00    -0.478 OA
ATOM     26  H   UNL     1       5.410   0.619  23.810  0.00  0.00    +0.295 HD
ENDBRANCH  23  25
ENDBRANCH  22  23
ENDBRANCH  21  22
ENDBRANCH   1  21
TORSDOF 4
ENDMDL
MODEL 7
REMARK VINA RESULT:      -6.9      2.372      3.171
REMARK  Name = 
REMARK  4 active torsions:
REMARK  status: ('A' for Active; 'I' for Inactive)
REMARK    1  A    between atoms: O_1  and  C_2
REMARK    2  A    between atoms: C_2  and  C_4
REMARK    3  A    between atoms: C_4  and  O_5
REMARK    4  A    between atoms: O_5  and  N_6
REMARK                            x       y       z     vdW  Elec       q    Type
REMARK                         _______ _______ _______ _____ _____    ______ ____
ROOT
ATOM      1  N   UNL     1       7.016  -3.889  23.264  0.00  0.00    -0.082 NA
ATOM      2  C   UNL     1       5.897  -3.247  23.374  0.00  0.00    +0.137 C 
ATOM      3  C   UNL     1       5.851  -1.927  24.126  0.00  0.00    +0.106 C 
ATOM      4  C   UNL     1       6.590  -0.853  23.807  0.00  0.00    +0.075 C 
ATOM      5  C   UNL     1       7.736  -0.559  22.998  0.00  0.00    +0.009 C 
ATOM      6  C   UNL     1       7.533   0.830  22.561  0.00  0.00    +0.046 C 
ATOM      7  C   UNL     1       8.445   1.464  21.552  0.00  0.00    +0.080 C 
ATOM      8  C   UNL     1       9.838   0.995  21.862  0.00  0.00    -0.021 C 
ATOM      9  C   UNL     1      10.084  -0.152  22.519  0.00  0.00    -0.003 C 
ATOM     10  N   UNL     1       6.552   1.417  23.179  0.00  0.00    -0.180 NA
ATOM     11  C   UNL     1       9.002  -1.007  22.994  0.00  0.00    +0.010 C 
ATOM     12  C   UNL     1       6.021   0.509  24.089  0.00  0.00    +0.270 C 
ATOM     13  O   UNL     1       5.177   0.781  24.914  0.00  0.00    -0.268 OA
ATOM     14  N   UNL     1       5.093  -2.075  25.284  0.00  0.00    -0.248 NA
ATOM     15  C   UNL     1       4.431  -3.196  25.158  0.00  0.00    +0.055 C 
ATOM     16  C   UNL     1       3.698  -3.964  26.217  0.00  0.00    +0.083 C 
ATOM     17  C   UNL     1       2.565  -4.721  25.577  0.00  0.00    -0.021 C 
ATOM     18  C   UNL     1       2.478  -4.909  24.247  0.00  0.00    -0.003 C 
ATOM     19  C   UNL     1       3.569  -4.520  23.360  0.00  0.00    +0.012 C 
ATOM     20  C   UNL     1       4.590  -3.788  23.827  0.00  0.00    +0.027 C 
ENDROOT
BRANCH   1  21
ATOM     21  O   UNL     1       7.040  -4.816  24.330  0.00  0.00    -0.382 OA
BRANCH  21  22
ATOM     22  C   UNL     1       7.981  -4.429  25.316  0.00  0.00    +0.382 C 
BRANCH  22  23
ATOM     23  C   UNL     1       9.429  -4.752  24.976  0.00  0.00    +0.345 C 
ATOM     24  O   UNL     1      10.197  -3.934  24.485  0.00  0.00    -0.247 OA
BRANCH  23  25
ATOM     25  O   UNL     1       9.818  -6.017  25.254  0.00  0.00    -0.478 OA
ATOM     26  H   UNL     1       9.778  -6.602  24.469  0.00  0.00    +0.295 HD
ENDBRANCH  23  25
ENDBRANCH  22  23
ENDBRANCH  21  22
ENDBRANCH   1  21
TORSDOF 4
ENDMDL
MODEL 8
REMARK VINA RESULT:      -6.9      2.762      6.735
REMARK  Name = 
REMARK  4 active torsions:
REMARK  status: ('A' for Active; 'I' for Inactive)
REMARK    1  A    between atoms: O_1  and  C_2
REMARK    2  A    between atoms: C_2  and  C_4
REMARK    3  A    between atoms: C_4  and  O_5
REMARK    4  A    between atoms: O_5  and  N_6
REMARK                            x       y       z     vdW  Elec       q    Type
REMARK                         _______ _______ _______ _____ _____    ______ ____
ROOT
ATOM      1  N   UNL     1       6.231  -0.243  23.786  0.00  0.00    -0.082 NA
ATOM      2  C   UNL     1       7.395  -0.566  23.317  0.00  0.00    +0.137 C 
ATOM      3  C   UNL     1       8.198  -1.675  23.977  0.00  0.00    +0.106 C 
ATOM      4  C   UNL     1       7.760  -2.934  24.126  0.00  0.00    +0.075 C 
ATOM      5  C   UNL     1       6.515  -3.639  24.043  0.00  0.00    +0.009 C 
ATOM      6  C   UNL     1       6.884  -4.995  23.610  0.00  0.00    +0.046 C 
ATOM      7  C   UNL     1       5.835  -6.003  23.247  0.00  0.00    +0.080 C 
ATOM      8  C   UNL     1       4.706  -5.835  24.223  0.00  0.00    -0.021 C 
ATOM      9  C   UNL     1       4.481  -4.680  24.874  0.00  0.00    -0.003 C 
ATOM     10  N   UNL     1       8.167  -5.205  23.643  0.00  0.00    -0.180 NA
ATOM     11  C   UNL     1       5.342  -3.517  24.686  0.00  0.00    +0.010 C 
ATOM     12  C   UNL     1       8.773  -4.045  24.112  0.00  0.00    +0.270 C 
ATOM     13  O   UNL     1       9.950  -3.948  24.384  0.00  0.00    -0.268 OA
ATOM     14  N   UNL     1       9.340  -1.138  24.564  0.00  0.00    -0.248 NA
ATOM     15  C   UNL     1       9.483   0.066  24.074  0.00  0.00    +0.055 C 
ATOM     16  C   UNL     1      10.370   1.169  24.569  0.00  0.00    +0.083 C 
ATOM     17  C   UNL     1      10.756   2.046  23.408  0.00  0.00    -0.021 C 
ATOM     18  C   UNL     1      10.119   2.002  22.222  0.00  0.00    -0.003 C 
ATOM     19  C   UNL     1       8.909   1.205  22.049  0.00  0.00    +0.012 C 
ATOM     20  C   UNL     1       8.523   0.348  23.003  0.00  0.00    +0.027 C 
ENDROOT
BRANCH   1  21
ATOM     21  O   UNL     1       6.455   0.830  24.678  0.00  0.00    -0.382 OA
BRANCH  21  22
ATOM     22  C   UNL     1       5.341   1.703  24.708  0.00  0.00    +0.382 C 
BRANCH  22  23
ATOM     23  C   UNL     1       5.167   2.558  23.461  0.00  0.00    +0.345 C 
ATOM     24  O   UNL     1       6.088   3.180  22.945  0.00  0.00    -0.247 OA
BRANCH  23  25
ATOM     25  O   UNL     1       3.915   2.587  22.951  0.00  0.00    -0.478 OA
ATOM     26  H   UNL     1       3.470   3.447  23.102  0.00  0.00    +0.295 HD
ENDBRANCH  23  25
ENDBRANCH  22  23
ENDBRANCH  21  22
ENDBRANCH   1  21
TORSDOF 4
ENDMDL
MODEL 9
REMARK VINA RESULT:      -6.9      1.856      2.652
REMARK  Name = 
REMARK  4 active torsions:
REMARK  status: ('A' for Active; 'I' for Inactive)
REMARK    1  A    between atoms: O_1  and  C_2
REMARK    2  A    between atoms: C_2  and  C_4
REMARK    3  A    between atoms: C_4  and  O_5
REMARK    4  A    between atoms: O_5  and  N_6
REMARK                            x       y       z     vdW  Elec       q    Type
REMARK                         _______ _______ _______ _____ _____    ______ ____
ROOT
ATOM      1  N   UNL     1       5.374  -3.165  22.629  0.00  0.00    -0.082 NA
ATOM      2  C   UNL     1       5.114  -3.392  23.877  0.00  0.00    +0.137 C 
ATOM      3  C   UNL     1       6.217  -3.865  24.809  0.00  0.00    +0.106 C 
ATOM      4  C   UNL     1       7.354  -3.189  25.031  0.00  0.00    +0.075 C 
ATOM      5  C   UNL     1       8.077  -2.106  24.432  0.00  0.00    +0.009 C 
ATOM      6  C   UNL     1       8.778  -1.463  25.554  0.00  0.00    +0.046 C 
ATOM      7  C   UNL     1       9.523  -0.176  25.364  0.00  0.00    +0.080 C 
ATOM      8  C   UNL     1      10.208  -0.256  24.029  0.00  0.00    -0.021 C 
ATOM      9  C   UNL     1       9.768  -1.053  23.040  0.00  0.00    -0.003 C 
ATOM     10  N   UNL     1       8.718  -2.157  26.652  0.00  0.00    -0.180 NA
ATOM     11  C   UNL     1       8.601  -1.910  23.211  0.00  0.00    +0.010 C 
ATOM     12  C   UNL     1       8.005  -3.319  26.380  0.00  0.00    +0.270 C 
ATOM     13  O   UNL     1       7.877  -4.241  27.155  0.00  0.00    -0.268 OA
ATOM     14  N   UNL     1       5.953  -5.168  25.222  0.00  0.00    -0.248 NA
ATOM     15  C   UNL     1       4.704  -5.410  24.922  0.00  0.00    +0.055 C 
ATOM     16  C   UNL     1       3.997  -6.733  24.889  0.00  0.00    +0.083 C 
ATOM     17  C   UNL     1       2.539  -6.518  25.192  0.00  0.00    -0.021 C 
ATOM     18  C   UNL     1       1.962  -5.302  25.157  0.00  0.00    -0.003 C 
ATOM     19  C   UNL     1       2.692  -4.138  24.665  0.00  0.00    +0.012 C 
ATOM     20  C   UNL     1       4.009  -4.217  24.429  0.00  0.00    +0.027 C 
ENDROOT
BRANCH   1  21
ATOM     21  O   UNL     1       5.060  -4.359  21.942  0.00  0.00    -0.382 OA
BRANCH  21  22
ATOM     22  C   UNL     1       6.195  -4.865  21.263  0.00  0.00    +0.382 C 
BRANCH  22  23
ATOM     23  C   UNL     1       6.937  -5.972  21.998  0.00  0.00    +0.345 C 
ATOM     24  O   UNL     1       8.061  -5.828  22.462  0.00  0.00    -0.247 OA
BRANCH  23  25
ATOM     25  O   UNL     1       6.265  -7.141  22.110  0.00  0.00    -0.478 OA
ATOM     26  H   UNL     1       5.414  -7.131  21.623  0.00  0.00    +0.295 HD
ENDBRANCH  23  25
ENDBRANCH  22  23
ENDBRANCH  21  22
ENDBRANCH   1  21
TORSDOF 4
ENDMDL
