MODEL 1
REMARK VINA RESULT:      -6.4      0.000      0.000
REMARK  Name = 
REMARK  13 active torsions:
REMARK  status: ('A' for Active; 'I' for Inactive)
REMARK    1  A    between atoms: C_1  and  C_2
REMARK    2  A    between atoms: C_2  and  C_3
REMARK    3  A    between atoms: C_3  and  C_4
REMARK    4  A    between atoms: C_4  and  N_5
REMARK    5  A    between atoms: C_6  and  C_7
REMARK    6  A    between atoms: C_7  and  C_8
REMARK    7  A    between atoms: C_10  and  O_11
REMARK    8  A    between atoms: O_11  and  C_12
REMARK    9  A    between atoms: C_13  and  O_14
REMARK   10  A    between atoms: O_14  and  C_15
REMARK   11  A    between atoms: C_16  and  O_17
REMARK   12  A    between atoms: O_17  and  C_18
REMARK   13  A    between atoms: C_23  and  N_24
REMARK                            x       y       z     vdW  Elec       q    Type
REMARK                         _______ _______ _______ _____ _____    ______ ____
ROOT
ATOM      1  N   UNL     1       9.214  -1.916  23.609  0.00  0.00    -0.312 N 
ATOM      2  C   UNL     1       9.747  -0.662  23.779  0.00  0.00    +0.166 A 
ATOM      3  C   UNL     1       9.332   0.054  22.674  0.00  0.00    +0.148 A 
ATOM      4  C   UNL     1       9.826   1.364  22.544  0.00  0.00    +0.147 A 
ATOM      5  N   UNL     1      10.577   1.872  23.548  0.00  0.00    -0.219 NA
ATOM      6  C   UNL     1      10.862   1.072  24.598  0.00  0.00    +0.225 A 
ATOM      7  N   UNL     1       8.476  -0.698  21.908  0.00  0.00    -0.227 NA
ATOM      8  N   UNL     1      10.520  -0.219  24.787  0.00  0.00    -0.216 NA
ATOM      9  C   UNL     1       8.384  -1.877  22.509  0.00  0.00    +0.116 A 
ENDROOT
BRANCH   4  10
ATOM     10  N   UNL     1       9.580   2.171  21.441  0.00  0.00    -0.341 N 
ATOM     11  H   UNL     1      10.221   2.950  21.374  0.00  0.00    +0.144 HD
ATOM     12  H   UNL     1       8.596   2.345  21.267  0.00  0.00    +0.144 HD
ENDBRANCH   4  10
BRANCH   1  13
ATOM     13  C   UNL     1       9.501  -3.049  24.478  0.00  0.00    +0.125 C 
BRANCH  13  14
ATOM     14  C   UNL     1       8.643  -3.120  25.746  0.00  0.00    +0.021 C 
BRANCH  14  16
ATOM     15  C   UNL     1       9.169  -5.562  25.429  0.00  0.00    +0.004 C 
ATOM     16  C   UNL     1       8.487  -4.532  26.316  0.00  0.00    -0.002 C 
ENDBRANCH  14  16
ENDBRANCH  13  14
ENDBRANCH   1  13
BRANCH   9  17
ATOM     17  C   UNL     1       7.457  -2.993  22.088  0.00  0.00    +0.111 C 
BRANCH  17  18
ATOM     18  C   UNL     1       6.358  -3.403  23.068  0.00  0.00    -0.015 A 
ATOM     19  C   UNL     1       6.130  -4.768  23.373  0.00  0.00    +0.090 A 
ATOM     20 CL   UNL     1       7.064  -5.953  22.499  0.00  0.00    -0.079 Cl
ATOM     21  C   UNL     1       5.242  -5.152  24.412  0.00  0.00    +0.184 A 
ATOM     22  C   UNL     1       4.626  -4.145  25.188  0.00  0.00    +0.205 A 
ATOM     23  C   UNL     1       4.802  -2.787  24.844  0.00  0.00    +0.166 A 
ATOM     24  C   UNL     1       5.624  -2.440  23.771  0.00  0.00    +0.055 A 
BRANCH  21  25
ATOM     25  O   UNL     1       5.079  -6.455  24.820  0.00  0.00    -0.490 OA
ATOM     26  C   UNL     1       3.893  -7.126  24.401  0.00  0.00    +0.277 C 
ENDBRANCH  21  25
BRANCH  22  27
ATOM     27  O   UNL     1       3.899  -4.323  26.343  0.00  0.00    -0.488 OA
ATOM     28  C   UNL     1       4.570  -4.623  27.552  0.00  0.00    +0.277 C 
ENDBRANCH  22  27
BRANCH  23  29
ATOM     29  O   UNL     1       4.179  -1.855  25.644  0.00  0.00    -0.491 OA
ATOM     30  C   UNL     1       5.010  -0.963  26.378  0.00  0.00    +0.277 C 
ENDBRANCH  23  29
ENDBRANCH  17  18
ENDBRANCH   9  17
TORSDOF 9
ENDMDL
MODEL 2
REMARK VINA RESULT:      -6.2      1.959      3.123
REMARK  Name = 
REMARK  13 active torsions:
REMARK  status: ('A' for Active; 'I' for Inactive)
REMARK    1  A    between atoms: C_1  and  C_2
REMARK    2  A    between atoms: C_2  and  C_3
REMARK    3  A    between atoms: C_3  and  C_4
REMARK    4  A    between atoms: C_4  and  N_5
REMARK    5  A    between atoms: C_6  and  C_7
REMARK    6  A    between atoms: C_7  and  C_8
REMARK    7  A    between atoms: C_10  and  O_11
REMARK    8  A    between atoms: O_11  and  C_12
REMARK    9  A    between atoms: C_13  and  O_14
REMARK   10  A    between atoms: O_14  and  C_15
REMARK   11  A    between atoms: C_16  and  O_17
REMARK   12  A    between atoms: O_17  and  C_18
REMARK   13  A    between atoms: C_23  and  N_24
REMARK                            x       y       z     vdW  Elec       q    Type
REMARK                         _______ _______ _______ _____ _____    ______ ____
ROOT
ATOM      1  N   UNL     1       9.089  -0.595  25.196  0.00  0.00    -0.312 N 
ATOM      2  C   UNL     1       8.881   0.683  24.739  0.00  0.00    +0.166 A 
ATOM      3  C   UNL     1       9.447   0.707  23.479  0.00  0.00    +0.148 A 
ATOM      4  C   UNL     1       9.462   1.946  22.813  0.00  0.00    +0.147 A 
ATOM      5  N   UNL     1       8.834   2.995  23.391  0.00  0.00    -0.219 NA
ATOM      6  C   UNL     1       8.276   2.814  24.606  0.00  0.00    +0.225 A 
ATOM      7  N   UNL     1       9.884  -0.545  23.125  0.00  0.00    -0.227 NA
ATOM      8  N   UNL     1       8.276   1.704  25.373  0.00  0.00    -0.216 NA
ATOM      9  C   UNL     1       9.624  -1.332  24.161  0.00  0.00    +0.116 A 
ENDROOT
BRANCH   4  10
ATOM     10  N   UNL     1      10.082   2.150  21.588  0.00  0.00    -0.341 N 
ATOM     11  H   UNL     1      10.150   1.305  21.037  0.00  0.00    +0.144 HD
ATOM     12  H   UNL     1      10.892   2.758  21.630  0.00  0.00    +0.144 HD
ENDBRANCH   4  10
BRANCH   1  13
ATOM     13  C   UNL     1       8.766  -1.041  26.544  0.00  0.00    +0.125 C 
BRANCH  13  14
ATOM     14  C   UNL     1       7.329  -0.755  26.990  0.00  0.00    +0.021 C 
BRANCH  14  16
ATOM     15  C   UNL     1       5.604  -1.141  25.196  0.00  0.00    +0.004 C 
ATOM     16  C   UNL     1       6.293  -1.727  26.419  0.00  0.00    -0.002 C 
ENDBRANCH  14  16
ENDBRANCH  13  14
ENDBRANCH   1  13
BRANCH   9  17
ATOM     17  C   UNL     1       9.826  -2.829  24.183  0.00  0.00    +0.111 C 
BRANCH  17  18
ATOM     18  C   UNL     1       8.576  -3.708  24.199  0.00  0.00    -0.015 A 
ATOM     19  C   UNL     1       8.297  -4.555  25.300  0.00  0.00    +0.090 A 
ATOM     20 CL   UNL     1       9.491  -4.642  26.567  0.00  0.00    -0.079 Cl
ATOM     21  C   UNL     1       7.057  -5.236  25.409  0.00  0.00    +0.184 A 
ATOM     22  C   UNL     1       6.066  -5.009  24.427  0.00  0.00    +0.205 A 
ATOM     23  C   UNL     1       6.366  -4.217  23.297  0.00  0.00    +0.166 A 
ATOM     24  C   UNL     1       7.621  -3.618  23.179  0.00  0.00    +0.055 A 
BRANCH  21  25
ATOM     25  O   UNL     1       6.697  -5.972  26.514  0.00  0.00    -0.490 OA
ATOM     26  C   UNL     1       6.178  -5.257  27.633  0.00  0.00    +0.277 C 
ENDBRANCH  21  25
BRANCH  22  27
ATOM     27  O   UNL     1       4.754  -5.421  24.469  0.00  0.00    -0.488 OA
ATOM     28  C   UNL     1       4.441  -6.780  24.228  0.00  0.00    +0.277 C 
ENDBRANCH  22  27
BRANCH  23  29
ATOM     29  O   UNL     1       5.356  -4.032  22.380  0.00  0.00    -0.491 OA
ATOM     30  C   UNL     1       5.734  -3.849  21.020  0.00  0.00    +0.277 C 
ENDBRANCH  23  29
ENDBRANCH  17  18
ENDBRANCH   9  17
TORSDOF 9
ENDMDL
MODEL 3
REMARK VINA RESULT:      -6.0      1.845      3.102
REMARK  Name = 
REMARK  13 active torsions:
REMARK  status: ('A' for Active; 'I' for Inactive)
REMARK    1  A    between atoms: C_1  and  C_2
REMARK    2  A    between atoms: C_2  and  C_3
REMARK    3  A    between atoms: C_3  and  C_4
REMARK    4  A    between atoms: C_4  and  N_5
REMARK    5  A    between atoms: C_6  and  C_7
REMARK    6  A    between atoms: C_7  and  C_8
REMARK    7  A    between atoms: C_10  and  O_11
REMARK    8  A    between atoms: O_11  and  C_12
REMARK    9  A    between atoms: C_13  and  O_14
REMARK   10  A    between atoms: O_14  and  C_15
REMARK   11  A    between atoms: C_16  and  O_17
REMARK   12  A    between atoms: O_17  and  C_18
REMARK   13  A    between atoms: C_23  and  N_24
REMARK                            x       y       z     vdW  Elec       q    Type
REMARK                         _______ _______ _______ _____ _____    ______ ____
ROOT
ATOM      1  N   UNL     1       9.108  -0.411  25.267  0.00  0.00    -0.312 N 
ATOM      2  C   UNL     1       8.961   0.872  24.801  0.00  0.00    +0.166 A 
ATOM      3  C   UNL     1       9.531   0.862  23.543  0.00  0.00    +0.148 A 
ATOM      4  C   UNL     1       9.605   2.094  22.869  0.00  0.00    +0.147 A 
ATOM      5  N   UNL     1       9.026   3.175  23.438  0.00  0.00    -0.219 NA
ATOM      6  C   UNL     1       8.456   3.028  24.653  0.00  0.00    +0.225 A 
ATOM      7  N   UNL     1       9.910  -0.412  23.198  0.00  0.00    -0.227 NA
ATOM      8  N   UNL     1       8.403   1.924  25.427  0.00  0.00    -0.216 NA
ATOM      9  C   UNL     1       9.611  -1.179  24.239  0.00  0.00    +0.116 A 
ENDROOT
BRANCH   4  10
ATOM     10  N   UNL     1      10.237   2.260  21.644  0.00  0.00    -0.341 N 
ATOM     11  H   UNL     1      10.964   2.963  21.670  0.00  0.00    +0.144 HD
ATOM     12  H   UNL     1       9.609   2.253  20.849  0.00  0.00    +0.144 HD
ENDBRANCH   4  10
BRANCH   1  13
ATOM     13  C   UNL     1       8.762  -0.832  26.618  0.00  0.00    +0.125 C 
BRANCH  13  14
ATOM     14  C   UNL     1       7.339  -0.474  27.058  0.00  0.00    +0.021 C 
BRANCH  14  16
ATOM     15  C   UNL     1       5.644  -1.012  25.275  0.00  0.00    +0.004 C 
ATOM     16  C   UNL     1       6.271  -1.464  26.586  0.00  0.00    -0.002 C 
ENDBRANCH  14  16
ENDBRANCH  13  14
ENDBRANCH   1  13
BRANCH   9  17
ATOM     17  C   UNL     1       9.743  -2.683  24.272  0.00  0.00    +0.111 C 
BRANCH  17  18
ATOM     18  C   UNL     1       8.461  -3.499  24.436  0.00  0.00    -0.015 A 
ATOM     19  C   UNL     1       7.539  -3.626  23.368  0.00  0.00    +0.090 A 
ATOM     20 CL   UNL     1       7.865  -2.719  21.915  0.00  0.00    -0.079 Cl
ATOM     21  C   UNL     1       6.442  -4.522  23.445  0.00  0.00    +0.184 A 
ATOM     22  C   UNL     1       6.312  -5.343  24.588  0.00  0.00    +0.205 A 
ATOM     23  C   UNL     1       7.192  -5.172  25.679  0.00  0.00    +0.166 A 
ATOM     24  C   UNL     1       8.219  -4.230  25.605  0.00  0.00    +0.055 A 
BRANCH  21  25
ATOM     25  O   UNL     1       5.592  -4.764  22.391  0.00  0.00    -0.490 OA
ATOM     26  C   UNL     1       6.036  -5.680  21.392  0.00  0.00    +0.277 C 
ENDBRANCH  21  25
BRANCH  22  27
ATOM     27  O   UNL     1       5.439  -6.394  24.754  0.00  0.00    -0.488 OA
ATOM     28  C   UNL     1       4.075  -6.133  25.024  0.00  0.00    +0.277 C 
ENDBRANCH  22  27
BRANCH  23  29
ATOM     29  O   UNL     1       7.014  -6.007  26.759  0.00  0.00    -0.491 OA
ATOM     30  C   UNL     1       6.420  -5.447  27.926  0.00  0.00    +0.277 C 
ENDBRANCH  23  29
ENDBRANCH  17  18
ENDBRANCH   9  17
TORSDOF 9
ENDMDL
MODEL 4
REMARK VINA RESULT:      -5.9      1.913      2.916
REMARK  Name = 
REMARK  13 active torsions:
REMARK  status: ('A' for Active; 'I' for Inactive)
REMARK    1  A    between atoms: C_1  and  C_2
REMARK    2  A    between atoms: C_2  and  C_3
REMARK    3  A    between atoms: C_3  and  C_4
REMARK    4  A    between atoms: C_4  and  N_5
REMARK    5  A    between atoms: C_6  and  C_7
REMARK    6  A    between atoms: C_7  and  C_8
REMARK    7  A    between atoms: C_10  and  O_11
REMARK    8  A    between atoms: O_11  and  C_12
REMARK    9  A    between atoms: C_13  and  O_14
REMARK   10  A    between atoms: O_14  and  C_15
REMARK   11  A    between atoms: C_16  and  O_17
REMARK   12  A    between atoms: O_17  and  C_18
REMARK   13  A    between atoms: C_23  and  N_24
REMARK                            x       y       z     vdW  Elec       q    Type
REMARK                         _______ _______ _______ _____ _____    ______ ____
ROOT
ATOM      1  N   UNL     1       7.990  -0.952  25.158  0.00  0.00    -0.312 N 
ATOM      2  C   UNL     1       8.951  -0.170  24.565  0.00  0.00    +0.166 A 
ATOM      3  C   UNL     1       8.414   0.189  23.344  0.00  0.00    +0.148 A 
ATOM      4  C   UNL     1       9.244   0.923  22.477  0.00  0.00    +0.147 A 
ATOM      5  N   UNL     1      10.456   1.318  22.927  0.00  0.00    -0.219 NA
ATOM      6  C   UNL     1      10.832   0.938  24.166  0.00  0.00    +0.225 A 
ATOM      7  N   UNL     1       7.121  -0.258  23.238  0.00  0.00    -0.227 NA
ATOM      8  N   UNL     1      10.162   0.166  25.046  0.00  0.00    -0.216 NA
ATOM      9  C   UNL     1       6.865  -0.915  24.363  0.00  0.00    +0.116 A 
ENDROOT
BRANCH   4  10
ATOM     10  N   UNL     1       8.882   1.269  21.182  0.00  0.00    -0.341 N 
ATOM     11  H   UNL     1       8.218   0.625  20.775  0.00  0.00    +0.144 HD
ATOM     12  H   UNL     1       9.655   1.585  20.607  0.00  0.00    +0.144 HD
ENDBRANCH   4  10
BRANCH   1  13
ATOM     13  C   UNL     1       8.179  -1.661  26.416  0.00  0.00    +0.125 C 
BRANCH  13  14
ATOM     14  C   UNL     1       8.602  -3.127  26.271  0.00  0.00    +0.021 C 
BRANCH  14  16
ATOM     15  C   UNL     1       8.584  -4.942  24.526  0.00  0.00    +0.004 C 
ATOM     16  C   UNL     1       9.015  -3.519  24.851  0.00  0.00    -0.002 C 
ENDBRANCH  14  16
ENDBRANCH  13  14
ENDBRANCH   1  13
BRANCH   9  17
ATOM     17  C   UNL     1       5.520  -1.484  24.746  0.00  0.00    +0.111 C 
BRANCH  17  18
ATOM     18  C   UNL     1       5.335  -2.997  24.627  0.00  0.00    -0.015 A 
ATOM     19  C   UNL     1       4.957  -3.772  25.751  0.00  0.00    +0.090 A 
ATOM     20 CL   UNL     1       4.832  -2.954  27.286  0.00  0.00    -0.079 Cl
ATOM     21  C   UNL     1       4.608  -5.141  25.617  0.00  0.00    +0.184 A 
ATOM     22  C   UNL     1       4.581  -5.714  24.326  0.00  0.00    +0.205 A 
ATOM     23  C   UNL     1       5.020  -4.961  23.215  0.00  0.00    +0.166 A 
ATOM     24  C   UNL     1       5.428  -3.638  23.386  0.00  0.00    +0.055 A 
BRANCH  21  25
ATOM     25  O   UNL     1       4.123  -5.900  26.657  0.00  0.00    -0.490 OA
ATOM     26  C   UNL     1       5.073  -6.630  27.430  0.00  0.00    +0.277 C 
ENDBRANCH  21  25
BRANCH  22  27
ATOM     27  O   UNL     1       4.087  -6.952  23.983  0.00  0.00    -0.488 OA
ATOM     28  C   UNL     1       2.689  -7.172  23.987  0.00  0.00    +0.277 C 
ENDBRANCH  22  27
BRANCH  23  29
ATOM     29  O   UNL     1       4.965  -5.577  21.985  0.00  0.00    -0.491 OA
ATOM     30  C   UNL     1       6.177  -5.663  21.242  0.00  0.00    +0.277 C 
ENDBRANCH  23  29
ENDBRANCH  17  18
ENDBRANCH   9  17
TORSDOF 9
ENDMDL
MODEL 5
REMARK VINA RESULT:      -5.9      3.500      6.616
REMARK  Name = 
REMARK  13 active torsions:
REMARK  status: ('A' for Active; 'I' for Inactive)
REMARK    1  A    between atoms: C_1  and  C_2
REMARK    2  A    between atoms: C_2  and  C_3
REMARK    3  A    between atoms: C_3  and  C_4
REMARK    4  A    between atoms: C_4  and  N_5
REMARK    5  A    between atoms: C_6  and  C_7
REMARK    6  A    between atoms: C_7  and  C_8
REMARK    7  A    between atoms: C_10  and  O_11
REMARK    8  A    between atoms: O_11  and  C_12
REMARK    9  A    between atoms: C_13  and  O_14
REMARK   10  A    between atoms: O_14  and  C_15
REMARK   11  A    between atoms: C_16  and  O_17
REMARK   12  A    between atoms: O_17  and  C_18
REMARK   13  A    between atoms: C_23  and  N_24
REMARK                            x       y       z     vdW  Elec       q    Type
REMARK                         _______ _______ _______ _____ _____    ______ ____
ROOT
ATOM      1  N   UNL     1       6.222  -3.824  24.066  0.00  0.00    -0.312 N 
ATOM      2  C   UNL     1       6.487  -4.494  25.236  0.00  0.00    +0.166 A 
ATOM      3  C   UNL     1       7.835  -4.295  25.462  0.00  0.00    +0.148 A 
ATOM      4  C   UNL     1       8.400  -4.965  26.562  0.00  0.00    +0.147 A 
ATOM      5  N   UNL     1       7.581  -5.665  27.380  0.00  0.00    -0.219 NA
ATOM      6  C   UNL     1       6.270  -5.731  27.064  0.00  0.00    +0.225 A 
ATOM      7  N   UNL     1       8.357  -3.434  24.529  0.00  0.00    -0.227 NA
ATOM      8  N   UNL     1       5.636  -5.207  25.995  0.00  0.00    -0.216 NA
ATOM      9  C   UNL     1       7.357  -3.127  23.712  0.00  0.00    +0.116 A 
ENDROOT
BRANCH   4  10
ATOM     10  N   UNL     1       9.756  -4.944  26.859  0.00  0.00    -0.341 N 
ATOM     11  H   UNL     1      10.225  -4.127  26.491  0.00  0.00    +0.144 HD
ATOM     12  H   UNL     1      10.215  -5.842  26.762  0.00  0.00    +0.144 HD
ENDBRANCH   4  10
BRANCH   1  13
ATOM     13  C   UNL     1       4.941  -3.868  23.374  0.00  0.00    +0.125 C 
BRANCH  13  14
ATOM     14  C   UNL     1       4.567  -5.238  22.800  0.00  0.00    +0.021 C 
BRANCH  14  16
ATOM     15  C   UNL     1       6.220  -5.569  20.929  0.00  0.00    +0.004 C 
ATOM     16  C   UNL     1       5.762  -6.052  22.297  0.00  0.00    -0.002 C 
ENDBRANCH  14  16
ENDBRANCH  13  14
ENDBRANCH   1  13
BRANCH   9  17
ATOM     17  C   UNL     1       7.433  -2.113  22.595  0.00  0.00    +0.111 C 
BRANCH  17  18
ATOM     18  C   UNL     1       7.522  -0.639  22.987  0.00  0.00    -0.015 A 
ATOM     19  C   UNL     1       8.663   0.132  22.656  0.00  0.00    +0.090 A 
ATOM     20 CL   UNL     1       9.999  -0.694  21.900  0.00  0.00    -0.079 Cl
ATOM     21  C   UNL     1       8.684   1.538  22.851  0.00  0.00    +0.184 A 
ATOM     22  C   UNL     1       7.517   2.176  23.328  0.00  0.00    +0.205 A 
ATOM     23  C   UNL     1       6.402   1.402  23.718  0.00  0.00    +0.166 A 
ATOM     24  C   UNL     1       6.437   0.014  23.584  0.00  0.00    +0.055 A 
BRANCH  21  25
ATOM     25  O   UNL     1       9.721   2.341  22.437  0.00  0.00    -0.490 OA
ATOM     26  C   UNL     1      10.680   2.725  23.419  0.00  0.00    +0.277 C 
ENDBRANCH  21  25
BRANCH  22  27
ATOM     27  O   UNL     1       7.286   3.532  23.394  0.00  0.00    -0.488 OA
ATOM     28  C   UNL     1       7.043   4.258  22.204  0.00  0.00    +0.277 C 
ENDBRANCH  22  27
BRANCH  23  29
ATOM     29  O   UNL     1       5.296   2.086  24.169  0.00  0.00    -0.491 OA
ATOM     30  C   UNL     1       4.902   1.873  25.521  0.00  0.00    +0.277 C 
ENDBRANCH  23  29
ENDBRANCH  17  18
ENDBRANCH   9  17
TORSDOF 9
ENDMDL
MODEL 6
REMARK VINA RESULT:      -5.9      3.707      6.915
REMARK  Name = 
REMARK  13 active torsions:
REMARK  status: ('A' for Active; 'I' for Inactive)
REMARK    1  A    between atoms: C_1  and  C_2
REMARK    2  A    between atoms: C_2  and  C_3
REMARK    3  A    between atoms: C_3  and  C_4
REMARK    4  A    between atoms: C_4  and  N_5
REMARK    5  A    between atoms: C_6  and  C_7
REMARK    6  A    between atoms: C_7  and  C_8
REMARK    7  A    between atoms: C_10  and  O_11
REMARK    8  A    between atoms: O_11  and  C_12
REMARK    9  A    between atoms: C_13  and  O_14
REMARK   10  A    between atoms: O_14  and  C_15
REMARK   11  A    between atoms: C_16  and  O_17
REMARK   12  A    between atoms: O_17  and  C_18
REMARK   13  A    between atoms: C_23  and  N_24
REMARK                            x       y       z     vdW  Elec       q    Type
REMARK                         _______ _______ _______ _____ _____    ______ ____
ROOT
ATOM      1  N   UNL     1       6.430  -4.553  24.846  0.00  0.00    -0.312 N 
ATOM      2  C   UNL     1       5.368  -5.249  25.369  0.00  0.00    +0.166 A 
ATOM      3  C   UNL     1       5.868  -5.864  26.500  0.00  0.00    +0.148 A 
ATOM      4  C   UNL     1       5.001  -6.734  27.186  0.00  0.00    +0.147 A 
ATOM      5  N   UNL     1       3.720  -6.830  26.765  0.00  0.00    -0.219 NA
ATOM      6  C   UNL     1       3.354  -6.129  25.671  0.00  0.00    +0.225 A 
ATOM      7  N   UNL     1       7.161  -5.466  26.731  0.00  0.00    -0.227 NA
ATOM      8  N   UNL     1       4.115  -5.338  24.888  0.00  0.00    -0.216 NA
ATOM      9  C   UNL     1       7.474  -4.640  25.741  0.00  0.00    +0.116 A 
ENDROOT
BRANCH   4  10
ATOM     10  N   UNL     1       5.389  -7.499  28.278  0.00  0.00    -0.341 N 
ATOM     11  H   UNL     1       5.021  -7.149  29.152  0.00  0.00    +0.144 HD
ATOM     12  H   UNL     1       6.358  -7.795  28.253  0.00  0.00    +0.144 HD
ENDBRANCH   4  10
BRANCH   1  13
ATOM     13  C   UNL     1       6.395  -3.851  23.570  0.00  0.00    +0.125 C 
BRANCH  13  14
ATOM     14  C   UNL     1       7.401  -4.358  22.531  0.00  0.00    +0.021 C 
BRANCH  14  16
ATOM     15  C   UNL     1       6.125  -5.879  20.981  0.00  0.00    +0.004 C 
ATOM     16  C   UNL     1       7.165  -5.804  22.088  0.00  0.00    -0.002 C 
ENDBRANCH  14  16
ENDBRANCH  13  14
ENDBRANCH   1  13
BRANCH   9  17
ATOM     17  C   UNL     1       8.763  -3.859  25.640  0.00  0.00    +0.111 C 
BRANCH  17  18
ATOM     18  C   UNL     1       8.674  -2.337  25.740  0.00  0.00    -0.015 A 
ATOM     19  C   UNL     1       9.273  -1.509  24.759  0.00  0.00    +0.090 A 
ATOM     20 CL   UNL     1      10.210  -2.289  23.513  0.00  0.00    -0.079 Cl
ATOM     21  C   UNL     1       9.045  -0.108  24.739  0.00  0.00    +0.184 A 
ATOM     22  C   UNL     1       8.155   0.451  25.684  0.00  0.00    +0.205 A 
ATOM     23  C   UNL     1       7.609  -0.363  26.701  0.00  0.00    +0.166 A 
ATOM     24  C   UNL     1       7.909  -1.725  26.740  0.00  0.00    +0.055 A 
BRANCH  21  25
ATOM     25  O   UNL     1       9.507   0.716  23.740  0.00  0.00    -0.490 OA
ATOM     26  C   UNL     1      10.697   1.457  24.004  0.00  0.00    +0.277 C 
ENDBRANCH  21  25
BRANCH  22  27
ATOM     27  O   UNL     1       7.666   1.737  25.696  0.00  0.00    -0.488 OA
ATOM     28  C   UNL     1       6.640   2.104  24.794  0.00  0.00    +0.277 C 
ENDBRANCH  22  27
BRANCH  23  29
ATOM     29  O   UNL     1       6.746   0.242  27.586  0.00  0.00    -0.491 OA
ATOM     30  C   UNL     1       5.415  -0.260  27.648  0.00  0.00    +0.277 C 
ENDBRANCH  23  29
ENDBRANCH  17  18
ENDBRANCH   9  17
TORSDOF 9
ENDMDL
MODEL 7
REMARK VINA RESULT:      -5.7      3.960      7.238
REMARK  Name = 
REMARK  13 active torsions:
REMARK  status: ('A' for Active; 'I' for Inactive)
REMARK    1  A    between atoms: C_1  and  C_2
REMARK    2  A    between atoms: C_2  and  C_3
REMARK    3  A    between atoms: C_3  and  C_4
REMARK    4  A    between atoms: C_4  and  N_5
REMARK    5  A    between atoms: C_6  and  C_7
REMARK    6  A    between atoms: C_7  and  C_8
REMARK    7  A    between atoms: C_10  and  O_11
REMARK    8  A    between atoms: O_11  and  C_12
REMARK    9  A    between atoms: C_13  and  O_14
REMARK   10  A    between atoms: O_14  and  C_15
REMARK   11  A    between atoms: C_16  and  O_17
REMARK   12  A    between atoms: O_17  and  C_18
REMARK   13  A    between atoms: C_23  and  N_24
REMARK                            x       y       z     vdW  Elec       q    Type
REMARK                         _______ _______ _______ _____ _____    ______ ____
ROOT
ATOM      1  N   UNL     1       8.490  -2.297  24.174  0.00  0.00    -0.312 N 
ATOM      2  C   UNL     1       7.405  -3.000  23.713  0.00  0.00    +0.166 A 
ATOM      3  C   UNL     1       6.350  -2.583  24.501  0.00  0.00    +0.148 A 
ATOM      4  C   UNL     1       5.116  -3.228  24.304  0.00  0.00    +0.147 A 
ATOM      5  N   UNL     1       5.012  -4.125  23.297  0.00  0.00    -0.219 NA
ATOM      6  C   UNL     1       6.116  -4.398  22.570  0.00  0.00    +0.225 A 
ATOM      7  N   UNL     1       6.748  -1.572  25.340  0.00  0.00    -0.227 NA
ATOM      8  N   UNL     1       7.364  -3.911  22.724  0.00  0.00    -0.216 NA
ATOM      9  C   UNL     1       8.039  -1.383  25.102  0.00  0.00    +0.116 A 
ENDROOT
BRANCH   4  10
ATOM     10  N   UNL     1       3.993  -2.989  25.085  0.00  0.00    -0.341 N 
ATOM     11  H   UNL     1       3.158  -2.838  24.535  0.00  0.00    +0.144 HD
ATOM     12  H   UNL     1       4.161  -2.378  25.875  0.00  0.00    +0.144 HD
ENDBRANCH   4  10
BRANCH   1  13
ATOM     13  C   UNL     1       9.856  -2.512  23.715  0.00  0.00    +0.125 C 
BRANCH  13  14
ATOM     14  C   UNL     1      10.318  -1.563  22.604  0.00  0.00    +0.021 C 
BRANCH  14  16
ATOM     15  C   UNL     1       9.253   0.313  21.305  0.00  0.00    +0.004 C 
ATOM     16  C   UNL     1       9.217  -1.176  21.615  0.00  0.00    -0.002 C 
ENDBRANCH  14  16
ENDBRANCH  13  14
ENDBRANCH   1  13
BRANCH   9  17
ATOM     17  C   UNL     1       8.880  -0.286  25.711  0.00  0.00    +0.111 C 
BRANCH  17  18
ATOM     18  C   UNL     1       8.777   1.107  25.091  0.00  0.00    -0.015 A 
ATOM     19  C   UNL     1       9.896   1.705  24.460  0.00  0.00    +0.090 A 
ATOM     20 CL   UNL     1      11.411   0.845  24.528  0.00  0.00    -0.079 Cl
ATOM     21  C   UNL     1       9.768   2.913  23.725  0.00  0.00    +0.184 A 
ATOM     22  C   UNL     1       8.485   3.487  23.576  0.00  0.00    +0.205 A 
ATOM     23  C   UNL     1       7.382   2.927  24.258  0.00  0.00    +0.166 A 
ATOM     24  C   UNL     1       7.551   1.781  25.034  0.00  0.00    +0.055 A 
BRANCH  21  25
ATOM     25  O   UNL     1      10.797   3.466  23.000  0.00  0.00    -0.490 OA
ATOM     26  C   UNL     1      11.576   4.474  23.639  0.00  0.00    +0.277 C 
ENDBRANCH  21  25
BRANCH  22  27
ATOM     27  O   UNL     1       8.140   4.532  22.750  0.00  0.00    -0.488 OA
ATOM     28  C   UNL     1       8.286   5.863  23.209  0.00  0.00    +0.277 C 
ENDBRANCH  22  27
BRANCH  23  29
ATOM     29  O   UNL     1       6.160   3.532  24.067  0.00  0.00    -0.491 OA
ATOM     30  C   UNL     1       5.155   2.778  23.397  0.00  0.00    +0.277 C 
ENDBRANCH  23  29
ENDBRANCH  17  18
ENDBRANCH   9  17
TORSDOF 9
ENDMDL
MODEL 8
REMARK VINA RESULT:      -5.7      3.682      7.004
REMARK  Name = 
REMARK  13 active torsions:
REMARK  status: ('A' for Active; 'I' for Inactive)
REMARK    1  A    between atoms: C_1  and  C_2
REMARK    2  A    between atoms: C_2  and  C_3
REMARK    3  A    between atoms: C_3  and  C_4
REMARK    4  A    between atoms: C_4  and  N_5
REMARK    5  A    between atoms: C_6  and  C_7
REMARK    6  A    between atoms: C_7  and  C_8
REMARK    7  A    between atoms: C_10  and  O_11
REMARK    8  A    between atoms: O_11  and  C_12
REMARK    9  A    between atoms: C_13  and  O_14
REMARK   10  A    between atoms: O_14  and  C_15
REMARK   11  A    between atoms: C_16  and  O_17
REMARK   12  A    between atoms: O_17  and  C_18
REMARK   13  A    between atoms: C_23  and  N_24
REMARK                            x       y       z     vdW  Elec       q    Type
REMARK                         _______ _______ _______ _____ _____    ______ ____
ROOT
ATOM      1  N   UNL     1       8.020  -2.193  24.025  0.00  0.00    -0.312 N 
ATOM      2  C   UNL     1       7.366  -3.377  24.262  0.00  0.00    +0.166 A 
ATOM      3  C   UNL     1       7.840  -3.807  25.485  0.00  0.00    +0.148 A 
ATOM      4  C   UNL     1       7.400  -5.067  25.929  0.00  0.00    +0.147 A 
ATOM      5  N   UNL     1       6.472  -5.721  25.195  0.00  0.00    -0.219 NA
ATOM      6  C   UNL     1       6.058  -5.155  24.041  0.00  0.00    +0.225 A 
ATOM      7  N   UNL     1       8.669  -2.863  26.039  0.00  0.00    -0.227 NA
ATOM      8  N   UNL     1       6.471  -4.002  23.476  0.00  0.00    -0.216 NA
ATOM      9  C   UNL     1       8.737  -1.873  25.158  0.00  0.00    +0.116 A 
ENDROOT
BRANCH   4  10
ATOM     10  N   UNL     1       7.864  -5.677  27.087  0.00  0.00    -0.341 N 
ATOM     11  H   UNL     1       8.070  -6.658  26.958  0.00  0.00    +0.144 HD
ATOM     12  H   UNL     1       7.371  -5.399  27.928  0.00  0.00    +0.144 HD
ENDBRANCH   4  10
BRANCH   1  13
ATOM     13  C   UNL     1       7.924  -1.442  22.781  0.00  0.00    +0.125 C 
BRANCH  13  14
ATOM     14  C   UNL     1       9.163  -1.524  21.883  0.00  0.00    +0.021 C 
BRANCH  14  16
ATOM     15  C   UNL     1       8.711   0.873  21.259  0.00  0.00    +0.004 C 
ATOM     16  C   UNL     1       9.784  -0.166  21.551  0.00  0.00    -0.002 C 
ENDBRANCH  14  16
ENDBRANCH  13  14
ENDBRANCH   1  13
BRANCH   9  17
ATOM     17  C   UNL     1       9.444  -0.558  25.388  0.00  0.00    +0.111 C 
BRANCH  17  18
ATOM     18  C   UNL     1       8.619   0.720  25.244  0.00  0.00    -0.015 A 
ATOM     19  C   UNL     1       9.167   1.873  24.630  0.00  0.00    +0.090 A 
ATOM     20 CL   UNL     1      10.845   1.811  24.161  0.00  0.00    -0.079 Cl
ATOM     21  C   UNL     1       8.360   3.001  24.327  0.00  0.00    +0.184 A 
ATOM     22  C   UNL     1       6.974   2.937  24.593  0.00  0.00    +0.205 A 
ATOM     23  C   UNL     1       6.439   1.815  25.264  0.00  0.00    +0.166 A 
ATOM     24  C   UNL     1       7.269   0.751  25.616  0.00  0.00    +0.055 A 
BRANCH  21  25
ATOM     25  O   UNL     1       8.821   4.091  23.627  0.00  0.00    -0.490 OA
ATOM     26  C   UNL     1       9.366   5.169  24.385  0.00  0.00    +0.277 C 
ENDBRANCH  21  25
BRANCH  22  27
ATOM     27  O   UNL     1       6.015   3.840  24.196  0.00  0.00    -0.488 OA
ATOM     28  C   UNL     1       5.532   3.807  22.866  0.00  0.00    +0.277 C 
ENDBRANCH  22  27
BRANCH  23  29
ATOM     29  O   UNL     1       5.080   1.813  25.488  0.00  0.00    -0.491 OA
ATOM     30  C   UNL     1       4.623   1.277  26.726  0.00  0.00    +0.277 C 
ENDBRANCH  23  29
ENDBRANCH  17  18
ENDBRANCH   9  17
TORSDOF 9
ENDMDL
MODEL 9
REMARK VINA RESULT:      -5.6      2.177      3.468
REMARK  Name = 
REMARK  13 active torsions:
REMARK  status: ('A' for Active; 'I' for Inactive)
REMARK    1  A    between atoms: C_1  and  C_2
REMARK    2  A    between atoms: C_2  and  C_3
REMARK    3  A    between atoms: C_3  and  C_4
REMARK    4  A    between atoms: C_4  and  N_5
REMARK    5  A    between atoms: C_6  and  C_7
REMARK    6  A    between atoms: C_7  and  C_8
REMARK    7  A    between atoms: C_10  and  O_11
REMARK    8  A    between atoms: O_11  and  C_12
REMARK    9  A    between atoms: C_13  and  O_14
REMARK   10  A    between atoms: O_14  and  C_15
REMARK   11  A    between atoms: C_16  and  O_17
REMARK   12  A    between atoms: O_17  and  C_18
REMARK   13  A    between atoms: C_23  and  N_24
REMARK                            x       y       z     vdW  Elec       q    Type
REMARK                         _______ _______ _______ _____ _____    ______ ____
ROOT
ATOM      1  N   UNL     1       7.089  -1.814  23.034  0.00  0.00    -0.312 N 
ATOM      2  C   UNL     1       8.229  -1.093  22.776  0.00  0.00    +0.166 A 
ATOM      3  C   UNL     1       8.155   0.003  23.613  0.00  0.00    +0.148 A 
ATOM      4  C   UNL     1       9.165   0.972  23.481  0.00  0.00    +0.147 A 
ATOM      5  N   UNL     1      10.189   0.724  22.635  0.00  0.00    -0.219 NA
ATOM      6  C   UNL     1      10.159  -0.417  21.915  0.00  0.00    +0.225 A 
ATOM      7  N   UNL     1       7.065  -0.099  24.442  0.00  0.00    -0.227 NA
ATOM      8  N   UNL     1       9.205  -1.371  21.893  0.00  0.00    -0.216 NA
ATOM      9  C   UNL     1       6.451  -1.226  24.105  0.00  0.00    +0.116 A 
ENDROOT
BRANCH   4  10
ATOM     10  N   UNL     1       9.171   2.172  24.180  0.00  0.00    -0.341 N 
ATOM     11  H   UNL     1       9.782   2.864  23.766  0.00  0.00    +0.144 HD
ATOM     12  H   UNL     1       9.186   2.064  25.188  0.00  0.00    +0.144 HD
ENDBRANCH   4  10
BRANCH   1  13
ATOM     13  C   UNL     1       6.683  -2.994  22.283  0.00  0.00    +0.125 C 
BRANCH  13  14
ATOM     14  C   UNL     1       7.352  -4.300  22.726  0.00  0.00    +0.021 C 
BRANCH  14  16
ATOM     15  C   UNL     1       4.943  -5.017  22.875  0.00  0.00    +0.004 C 
ATOM     16  C   UNL     1       6.390  -5.485  22.844  0.00  0.00    -0.002 C 
ENDBRANCH  14  16
ENDBRANCH  13  14
ENDBRANCH   1  13
BRANCH   9  17
ATOM     17  C   UNL     1       5.262  -1.814  24.829  0.00  0.00    +0.111 C 
BRANCH  17  18
ATOM     18  C   UNL     1       5.534  -2.925  25.842  0.00  0.00    -0.015 A 
ATOM     19  C   UNL     1       4.474  -3.707  26.364  0.00  0.00    +0.090 A 
ATOM     20 CL   UNL     1       2.851  -3.271  25.899  0.00  0.00    -0.079 Cl
ATOM     21  C   UNL     1       4.728  -4.854  27.160  0.00  0.00    +0.184 A 
ATOM     22  C   UNL     1       6.067  -5.247  27.380  0.00  0.00    +0.205 A 
ATOM     23  C   UNL     1       7.123  -4.433  26.916  0.00  0.00    +0.166 A 
ATOM     24  C   UNL     1       6.844  -3.271  26.197  0.00  0.00    +0.055 A 
BRANCH  21  25
ATOM     25  O   UNL     1       3.738  -5.707  27.589  0.00  0.00    -0.490 OA
ATOM     26  C   UNL     1       3.303  -6.712  26.675  0.00  0.00    +0.277 C 
ENDBRANCH  21  25
BRANCH  22  27
ATOM     27  O   UNL     1       6.498  -6.422  27.954  0.00  0.00    -0.488 OA
ATOM     28  C   UNL     1       6.308  -6.633  29.340  0.00  0.00    +0.277 C 
ENDBRANCH  22  27
BRANCH  23  29
ATOM     29  O   UNL     1       8.404  -4.876  27.159  0.00  0.00    -0.491 OA
ATOM     30  C   UNL     1       9.317  -4.870  26.066  0.00  0.00    +0.277 C 
ENDBRANCH  23  29
ENDBRANCH  17  18
ENDBRANCH   9  17
TORSDOF 9
ENDMDL
