MODEL 1
REMARK VINA RESULT:      -7.3      0.000      0.000
REMARK  Name = 
REMARK  14 active torsions:
REMARK  status: ('A' for Active; 'I' for Inactive)
REMARK    1  A    between atoms: N_10  and  C_11
REMARK    2  A    between atoms: C_14  and  C_16
REMARK    3  A    between atoms: C_16  and  O_17
REMARK    4  A    between atoms: O_17  and  P_18
REMARK    5  A    between atoms: P_18  and  O_19
REMARK    6  A    between atoms: P_18  and  O_21
REMARK    7  A    between atoms: O_21  and  P_22
REMARK    8  A    between atoms: P_22  and  O_23
REMARK    9  A    between atoms: P_22  and  O_24
REMARK   10  A    between atoms: C_26  and  O_28
REMARK   11  A    between atoms: C_29  and  O_31
REMARK   12  A    between atoms: O_31  and  P_32
REMARK   13  A    between atoms: P_32  and  O_33
REMARK   14  A    between atoms: P_32  and  O_34
REMARK                            x       y       z     vdW  Elec       q    Type
REMARK                         _______ _______ _______ _____ _____    ______ ____
ROOT
ATOM      1  C   UNL     1       7.415  -2.848  24.628  0.00  0.00    +0.254 C 
ATOM      2  C   UNL     1       7.705  -4.051  23.713  0.00  0.00    +0.211 C 
ATOM      3  C   UNL     1       8.161  -5.157  24.670  0.00  0.00    +0.179 C 
ATOM      4  C   UNL     1       8.197  -4.484  26.036  0.00  0.00    +0.178 C 
ATOM      5  O   UNL     1       7.268  -3.397  25.963  0.00  0.00    -0.346 OA
ENDROOT
BRANCH   1  13
ATOM      6  N   UNL     1      10.841   2.073  23.798  0.00  0.00    -0.341 N 
ATOM      7  H   UNL     1      11.181   1.991  24.748  0.00  0.00    +0.144 HD
ATOM      8  H   UNL     1      11.472   2.434  23.095  0.00  0.00    +0.144 HD
ATOM      9  C   UNL     1      10.147   0.956  23.356  0.00  0.00    +0.147 A 
ATOM     10  C   UNL     1       9.562   0.017  24.223  0.00  0.00    +0.147 A 
ATOM     11  N   UNL     1       9.535  -0.081  25.598  0.00  0.00    -0.231 NA
ATOM     12  C   UNL     1       8.791  -1.139  25.838  0.00  0.00    +0.203 A 
ATOM     13  N   UNL     1       8.374  -1.759  24.683  0.00  0.00    -0.285 N 
ATOM     14  C   UNL     1       8.851  -1.019  23.635  0.00  0.00    +0.167 A 
ATOM     15  N   UNL     1       8.665  -1.226  22.322  0.00  0.00    -0.216 NA
ATOM     16  C   UNL     1       9.310  -0.296  21.589  0.00  0.00    +0.225 A 
ATOM     17  N   UNL     1      10.025   0.764  22.023  0.00  0.00    -0.219 NA
ENDBRANCH   1  13
BRANCH   3  18
ATOM     18  O   UNL     1       9.462  -5.621  24.323  0.00  0.00    -0.386 OA
ATOM     19  H   UNL     1       9.369  -6.190  23.534  0.00  0.00    +0.210 HD
ENDBRANCH   3  18
BRANCH   2  20
ATOM     20  O   UNL     1       6.453  -4.361  23.087  0.00  0.00    -0.276 OA
BRANCH  20  21
ATOM     21  P   UNL     1       6.340  -5.559  22.036  0.00  0.00    +0.473 P 
ATOM     22  O   UNL     1       7.522  -6.431  21.862  0.00  0.00    -0.228 OA
BRANCH  21  23
ATOM     23  O   UNL     1       5.831  -4.773  20.744  0.00  0.00    -0.303 OA
ATOM     24  H   UNL     1       6.499  -4.136  20.435  0.00  0.00    +0.222 HD
ENDBRANCH  21  23
BRANCH  21  25
ATOM     25  O   UNL     1       4.999  -6.277  22.525  0.00  0.00    -0.303 OA
ATOM     26  H   UNL     1       5.186  -7.194  22.793  0.00  0.00    +0.222 HD
ENDBRANCH  21  25
ENDBRANCH  20  21
ENDBRANCH   2  20
BRANCH   4  27
ATOM     27  C   UNL     1       7.833  -5.422  27.174  0.00  0.00    +0.206 C 
BRANCH  27  28
ATOM     28  O   UNL     1       6.718  -4.907  27.893  0.00  0.00    -0.284 OA
BRANCH  28  29
ATOM     29  P   UNL     1       5.708  -6.067  28.470  0.00  0.00    +0.483 P 
ATOM     30  O   UNL     1       6.557  -7.229  28.981  0.00  0.00    -0.227 OA
BRANCH  29  31
ATOM     31  O   UNL     1       5.828  -5.360  30.045  0.00  0.00    -0.302 OA
ATOM     32  H   UNL     1       6.746  -5.013  30.061  0.00  0.00    +0.222 HD
ENDBRANCH  29  31
BRANCH  29  33
ATOM     33  O   UNL     1       5.587  -6.773  26.897  0.00  0.00    -0.186 OA
BRANCH  33  34
ATOM     34  P   UNL     1       4.053  -6.376  26.202  0.00  0.00    +0.481 P 
ATOM     35  O   UNL     1       2.681  -6.020  25.579  0.00  0.00    -0.227 OA
BRANCH  34  36
ATOM     36  O   UNL     1       4.441  -7.472  25.048  0.00  0.00    -0.302 OA
ATOM     37  H   UNL     1       4.273  -7.114  24.160  0.00  0.00    +0.222 HD
ENDBRANCH  34  36
BRANCH  34  38
ATOM     38  O   UNL     1       4.771  -5.116  25.438  0.00  0.00    -0.302 OA
ATOM     39  H   UNL     1       5.557  -4.921  26.003  0.00  0.00    +0.222 HD
ENDBRANCH  34  38
ENDBRANCH  33  34
ENDBRANCH  29  33
ENDBRANCH  28  29
ENDBRANCH  27  28
ENDBRANCH   4  27
TORSDOF 14
ENDMDL
MODEL 2
REMARK VINA RESULT:      -7.2      4.535      7.170
REMARK  Name = 
REMARK  14 active torsions:
REMARK  status: ('A' for Active; 'I' for Inactive)
REMARK    1  A    between atoms: N_10  and  C_11
REMARK    2  A    between atoms: C_14  and  C_16
REMARK    3  A    between atoms: C_16  and  O_17
REMARK    4  A    between atoms: O_17  and  P_18
REMARK    5  A    between atoms: P_18  and  O_19
REMARK    6  A    between atoms: P_18  and  O_21
REMARK    7  A    between atoms: O_21  and  P_22
REMARK    8  A    between atoms: P_22  and  O_23
REMARK    9  A    between atoms: P_22  and  O_24
REMARK   10  A    between atoms: C_26  and  O_28
REMARK   11  A    between atoms: C_29  and  O_31
REMARK   12  A    between atoms: O_31  and  P_32
REMARK   13  A    between atoms: P_32  and  O_33
REMARK   14  A    between atoms: P_32  and  O_34
REMARK                            x       y       z     vdW  Elec       q    Type
REMARK                         _______ _______ _______ _____ _____    ______ ____
ROOT
ATOM      1  C   UNL     1       7.795  -4.788  24.372  0.00  0.00    +0.254 C 
ATOM      2  C   UNL     1       6.951  -3.942  23.401  0.00  0.00    +0.211 C 
ATOM      3  C   UNL     1       7.528  -2.529  23.527  0.00  0.00    +0.179 C 
ATOM      4  C   UNL     1       8.580  -2.645  24.623  0.00  0.00    +0.178 C 
ATOM      5  O   UNL     1       8.996  -4.015  24.624  0.00  0.00    -0.346 OA
ENDROOT
BRANCH   1  13
ATOM      6  N   UNL     1       4.784  -7.251  29.011  0.00  0.00    -0.341 N 
ATOM      7  H   UNL     1       5.407  -6.783  29.657  0.00  0.00    +0.144 HD
ATOM      8  H   UNL     1       3.821  -7.386  29.288  0.00  0.00    +0.144 HD
ATOM      9  C   UNL     1       4.894  -6.798  27.704  0.00  0.00    +0.147 A 
ATOM     10  C   UNL     1       6.026  -6.125  27.213  0.00  0.00    +0.147 A 
ATOM     11  N   UNL     1       7.203  -5.734  27.814  0.00  0.00    -0.231 NA
ATOM     12  C   UNL     1       7.906  -5.193  26.842  0.00  0.00    +0.203 A 
ATOM     13  N   UNL     1       7.221  -5.173  25.649  0.00  0.00    -0.285 N 
ATOM     14  C   UNL     1       6.014  -5.780  25.869  0.00  0.00    +0.167 A 
ATOM     15  N   UNL     1       5.033  -6.017  24.985  0.00  0.00    -0.216 NA
ATOM     16  C   UNL     1       3.982  -6.619  25.577  0.00  0.00    +0.225 A 
ATOM     17  N   UNL     1       3.859  -7.017  26.861  0.00  0.00    -0.219 NA
ENDBRANCH   1  13
BRANCH   3  18
ATOM     18  O   UNL     1       6.520  -1.603  23.918  0.00  0.00    -0.386 OA
ATOM     19  H   UNL     1       6.970  -0.816  24.282  0.00  0.00    +0.210 HD
ENDBRANCH   3  18
BRANCH   2  20
ATOM     20  O   UNL     1       7.185  -4.509  22.105  0.00  0.00    -0.276 OA
BRANCH  20  21
ATOM     21  P   UNL     1       6.101  -5.464  21.423  0.00  0.00    +0.473 P 
ATOM     22  O   UNL     1       6.037  -5.483  19.945  0.00  0.00    -0.228 OA
BRANCH  21  23
ATOM     23  O   UNL     1       4.780  -5.007  22.193  0.00  0.00    -0.303 OA
ATOM     24  H   UNL     1       4.419  -5.732  22.731  0.00  0.00    +0.222 HD
ENDBRANCH  21  23
BRANCH  21  25
ATOM     25  O   UNL     1       6.421  -6.857  22.135  0.00  0.00    -0.303 OA
ATOM     26  H   UNL     1       6.277  -7.594  21.514  0.00  0.00    +0.222 HD
ENDBRANCH  21  25
ENDBRANCH  20  21
ENDBRANCH   2  20
BRANCH   4  27
ATOM     27  C   UNL     1       9.770  -1.725  24.410  0.00  0.00    +0.206 C 
BRANCH  27  28
ATOM     28  O   UNL     1       9.425  -0.686  23.501  0.00  0.00    -0.284 OA
BRANCH  28  29
ATOM     29  P   UNL     1       9.192   0.774  24.218  0.00  0.00    +0.483 P 
ATOM     30  O   UNL     1       8.227   0.583  25.387  0.00  0.00    -0.227 OA
BRANCH  29  31
ATOM     31  O   UNL     1      10.491   0.424  25.307  0.00  0.00    -0.302 OA
ATOM     32  H   UNL     1      11.272   0.386  24.713  0.00  0.00    +0.222 HD
ENDBRANCH  29  31
BRANCH  29  33
ATOM     33  O   UNL     1       7.895   1.123  23.130  0.00  0.00    -0.186 OA
BRANCH  33  34
ATOM     34  P   UNL     1       7.855   2.823  22.807  0.00  0.00    +0.481 P 
ATOM     35  O   UNL     1       7.819   4.343  22.518  0.00  0.00    -0.227 OA
BRANCH  34  36
ATOM     36  O   UNL     1       8.884   2.480  21.580  0.00  0.00    -0.302 OA
ATOM     37  H   UNL     1       8.436   1.971  20.884  0.00  0.00    +0.222 HD
ENDBRANCH  34  36
BRANCH  34  38
ATOM     38  O   UNL     1       9.036   3.022  23.925  0.00  0.00    -0.302 OA
ATOM     39  H   UNL     1       8.569   2.885  24.783  0.00  0.00    +0.222 HD
ENDBRANCH  34  38
ENDBRANCH  33  34
ENDBRANCH  29  33
ENDBRANCH  28  29
ENDBRANCH  27  28
ENDBRANCH   4  27
TORSDOF 14
ENDMDL
MODEL 3
REMARK VINA RESULT:      -6.9      1.875      4.137
REMARK  Name = 
REMARK  14 active torsions:
REMARK  status: ('A' for Active; 'I' for Inactive)
REMARK    1  A    between atoms: N_10  and  C_11
REMARK    2  A    between atoms: C_14  and  C_16
REMARK    3  A    between atoms: C_16  and  O_17
REMARK    4  A    between atoms: O_17  and  P_18
REMARK    5  A    between atoms: P_18  and  O_19
REMARK    6  A    between atoms: P_18  and  O_21
REMARK    7  A    between atoms: O_21  and  P_22
REMARK    8  A    between atoms: P_22  and  O_23
REMARK    9  A    between atoms: P_22  and  O_24
REMARK   10  A    between atoms: C_26  and  O_28
REMARK   11  A    between atoms: C_29  and  O_31
REMARK   12  A    between atoms: O_31  and  P_32
REMARK   13  A    between atoms: P_32  and  O_33
REMARK   14  A    between atoms: P_32  and  O_34
REMARK                            x       y       z     vdW  Elec       q    Type
REMARK                         _______ _______ _______ _____ _____    ______ ____
ROOT
ATOM      1  C   UNL     1       9.044  -1.744  23.016  0.00  0.00    +0.254 C 
ATOM      2  C   UNL     1       8.800  -2.249  24.450  0.00  0.00    +0.211 C 
ATOM      3  C   UNL     1       7.322  -2.652  24.466  0.00  0.00    +0.179 C 
ATOM      4  C   UNL     1       6.807  -2.257  23.088  0.00  0.00    +0.178 C 
ATOM      5  O   UNL     1       7.948  -2.269  22.223  0.00  0.00    -0.346 OA
ENDROOT
BRANCH   1  13
ATOM      6  N   UNL     1       9.564   4.281  23.291  0.00  0.00    -0.341 N 
ATOM      7  H   UNL     1       9.713   4.309  22.291  0.00  0.00    +0.144 HD
ATOM      8  H   UNL     1       9.075   5.054  23.723  0.00  0.00    +0.144 HD
ATOM      9  C   UNL     1       9.115   3.053  23.753  0.00  0.00    +0.147 A 
ATOM     10  C   UNL     1       9.284   1.851  23.043  0.00  0.00    +0.147 A 
ATOM     11  N   UNL     1       9.846   1.574  21.816  0.00  0.00    -0.231 NA
ATOM     12  C   UNL     1       9.766   0.265  21.705  0.00  0.00    +0.203 A 
ATOM     13  N   UNL     1       9.135  -0.314  22.782  0.00  0.00    -0.285 N 
ATOM     14  C   UNL     1       8.830   0.693  23.658  0.00  0.00    +0.167 A 
ATOM     15  N   UNL     1       8.241   0.595  24.859  0.00  0.00    -0.216 NA
ATOM     16  C   UNL     1       8.087   1.810  25.423  0.00  0.00    +0.225 A 
ATOM     17  N   UNL     1       8.484   3.010  24.949  0.00  0.00    -0.219 NA
ENDBRANCH   1  13
BRANCH   3  18
ATOM     18  O   UNL     1       6.614  -1.936  25.473  0.00  0.00    -0.386 OA
ATOM     19  H   UNL     1       7.274  -1.589  26.104  0.00  0.00    +0.210 HD
ENDBRANCH   3  18
BRANCH   2  20
ATOM     20  O   UNL     1       9.670  -3.379  24.605  0.00  0.00    -0.276 OA
BRANCH  20  21
ATOM     21  P   UNL     1       9.073  -4.842  24.843  0.00  0.00    +0.473 P 
ATOM     22  O   UNL     1       8.351  -5.478  23.718  0.00  0.00    -0.228 OA
BRANCH  21  23
ATOM     23  O   UNL     1       8.246  -4.609  26.187  0.00  0.00    -0.303 OA
ATOM     24  H   UNL     1       8.182  -5.429  26.707  0.00  0.00    +0.222 HD
ENDBRANCH  21  23
BRANCH  21  25
ATOM     25  O   UNL     1      10.358  -5.619  25.386  0.00  0.00    -0.303 OA
ATOM     26  H   UNL     1      11.161  -5.301  24.935  0.00  0.00    +0.222 HD
ENDBRANCH  21  25
ENDBRANCH  20  21
ENDBRANCH   2  20
BRANCH   4  27
ATOM     27  C   UNL     1       5.728  -3.188  22.563  0.00  0.00    +0.206 C 
BRANCH  27  28
ATOM     28  O   UNL     1       4.888  -3.611  23.631  0.00  0.00    -0.284 OA
BRANCH  28  29
ATOM     29  P   UNL     1       4.387  -5.170  23.504  0.00  0.00    +0.483 P 
ATOM     30  O   UNL     1       2.993  -5.175  22.879  0.00  0.00    -0.227 OA
BRANCH  29  31
ATOM     31  O   UNL     1       5.043  -5.231  21.904  0.00  0.00    -0.302 OA
ATOM     32  H   UNL     1       5.957  -4.895  22.028  0.00  0.00    +0.222 HD
ENDBRANCH  29  31
BRANCH  29  33
ATOM     33  O   UNL     1       3.731  -5.111  25.103  0.00  0.00    -0.186 OA
BRANCH  33  34
ATOM     34  P   UNL     1       4.828  -5.871  26.205  0.00  0.00    +0.481 P 
ATOM     35  O   UNL     1       5.809  -6.551  27.190  0.00  0.00    -0.227 OA
BRANCH  34  36
ATOM     36  O   UNL     1       5.330  -4.350  26.547  0.00  0.00    -0.302 OA
ATOM     37  H   UNL     1       4.578  -3.736  26.576  0.00  0.00    +0.222 HD
ENDBRANCH  34  36
BRANCH  34  38
ATOM     38  O   UNL     1       5.871  -6.082  24.959  0.00  0.00    -0.302 OA
ATOM     39  H   UNL     1       6.756  -5.932  25.369  0.00  0.00    +0.222 HD
ENDBRANCH  34  38
ENDBRANCH  33  34
ENDBRANCH  29  33
ENDBRANCH  28  29
ENDBRANCH  27  28
ENDBRANCH   4  27
TORSDOF 14
ENDMDL
MODEL 4
REMARK VINA RESULT:      -6.8      1.642      2.055
REMARK  Name = 
REMARK  14 active torsions:
REMARK  status: ('A' for Active; 'I' for Inactive)
REMARK    1  A    between atoms: N_10  and  C_11
REMARK    2  A    between atoms: C_14  and  C_16
REMARK    3  A    between atoms: C_16  and  O_17
REMARK    4  A    between atoms: O_17  and  P_18
REMARK    5  A    between atoms: P_18  and  O_19
REMARK    6  A    between atoms: P_18  and  O_21
REMARK    7  A    between atoms: O_21  and  P_22
REMARK    8  A    between atoms: P_22  and  O_23
REMARK    9  A    between atoms: P_22  and  O_24
REMARK   10  A    between atoms: C_26  and  O_28
REMARK   11  A    between atoms: C_29  and  O_31
REMARK   12  A    between atoms: O_31  and  P_32
REMARK   13  A    between atoms: P_32  and  O_33
REMARK   14  A    between atoms: P_32  and  O_34
REMARK                            x       y       z     vdW  Elec       q    Type
REMARK                         _______ _______ _______ _____ _____    ______ ____
ROOT
ATOM      1  C   UNL     1       7.255  -2.050  22.981  0.00  0.00    +0.254 C 
ATOM      2  C   UNL     1       7.617  -3.518  22.694  0.00  0.00    +0.211 C 
ATOM      3  C   UNL     1       7.874  -4.125  24.077  0.00  0.00    +0.179 C 
ATOM      4  C   UNL     1       7.743  -2.949  25.036  0.00  0.00    +0.178 C 
ATOM      5  O   UNL     1       6.889  -2.003  24.384  0.00  0.00    -0.346 OA
ENDROOT
BRANCH   1  13
ATOM      6  N   UNL     1      10.583   2.990  22.561  0.00  0.00    -0.341 N 
ATOM      7  H   UNL     1      11.383   2.433  22.289  0.00  0.00    +0.144 HD
ATOM      8  H   UNL     1      10.489   3.915  22.165  0.00  0.00    +0.144 HD
ATOM      9  C   UNL     1       9.385   2.289  22.545  0.00  0.00    +0.147 A 
ATOM     10  C   UNL     1       9.309   0.887  22.612  0.00  0.00    +0.147 A 
ATOM     11  N   UNL     1      10.280  -0.090  22.671  0.00  0.00    -0.231 NA
ATOM     12  C   UNL     1       9.608  -1.217  22.772  0.00  0.00    +0.203 A 
ATOM     13  N   UNL     1       8.247  -1.020  22.732  0.00  0.00    -0.285 N 
ATOM     14  C   UNL     1       8.039   0.330  22.642  0.00  0.00    +0.167 A 
ATOM     15  N   UNL     1       6.870   0.988  22.610  0.00  0.00    -0.216 NA
ATOM     16  C   UNL     1       7.064   2.317  22.496  0.00  0.00    +0.225 A 
ATOM     17  N   UNL     1       8.233   2.992  22.464  0.00  0.00    -0.219 NA
ENDBRANCH   1  13
BRANCH   3  18
ATOM     18  O   UNL     1       9.187  -4.670  24.154  0.00  0.00    -0.386 OA
ATOM     19  H   UNL     1       9.480  -4.858  23.240  0.00  0.00    +0.210 HD
ENDBRANCH   3  18
BRANCH   2  20
ATOM     20  O   UNL     1       6.456  -4.078  22.065  0.00  0.00    -0.276 OA
BRANCH  20  21
ATOM     21  P   UNL     1       6.391  -5.634  21.709  0.00  0.00    +0.473 P 
ATOM     22  O   UNL     1       7.581  -6.458  22.018  0.00  0.00    -0.228 OA
BRANCH  21  23
ATOM     23  O   UNL     1       5.941  -5.568  20.179  0.00  0.00    -0.303 OA
ATOM     24  H   UNL     1       6.561  -6.055  19.609  0.00  0.00    +0.222 HD
ENDBRANCH  21  23
BRANCH  21  25
ATOM     25  O   UNL     1       5.030  -6.062  22.426  0.00  0.00    -0.303 OA
ATOM     26  H   UNL     1       4.572  -5.277  22.778  0.00  0.00    +0.222 HD
ENDBRANCH  21  25
ENDBRANCH  20  21
ENDBRANCH   2  20
BRANCH   4  27
ATOM     27  C   UNL     1       7.172  -3.342  26.388  0.00  0.00    +0.206 C 
BRANCH  27  28
ATOM     28  O   UNL     1       7.028  -4.755  26.464  0.00  0.00    -0.284 OA
BRANCH  28  29
ATOM     29  P   UNL     1       5.570  -5.244  27.044  0.00  0.00    +0.483 P 
ATOM     30  O   UNL     1       5.579  -6.769  27.135  0.00  0.00    -0.227 OA
BRANCH  29  31
ATOM     31  O   UNL     1       6.215  -5.200  28.649  0.00  0.00    -0.302 OA
ATOM     32  H   UNL     1       6.765  -4.387  28.642  0.00  0.00    +0.222 HD
ENDBRANCH  29  31
BRANCH  29  33
ATOM     33  O   UNL     1       4.925  -5.288  25.440  0.00  0.00    -0.186 OA
BRANCH  33  34
ATOM     34  P   UNL     1       3.612  -4.167  25.315  0.00  0.00    +0.481 P 
ATOM     35  O   UNL     1       2.438  -3.166  25.202  0.00  0.00    -0.227 OA
BRANCH  34  36
ATOM     36  O   UNL     1       2.857  -5.351  24.470  0.00  0.00    -0.302 OA
ATOM     37  H   UNL     1       3.457  -5.745  23.815  0.00  0.00    +0.222 HD
ENDBRANCH  34  36
BRANCH  34  38
ATOM     38  O   UNL     1       4.348  -3.514  24.004  0.00  0.00    -0.302 OA
ATOM     39  H   UNL     1       5.273  -3.855  24.064  0.00  0.00    +0.222 HD
ENDBRANCH  34  38
ENDBRANCH  33  34
ENDBRANCH  29  33
ENDBRANCH  28  29
ENDBRANCH  27  28
ENDBRANCH   4  27
TORSDOF 14
ENDMDL
MODEL 5
REMARK VINA RESULT:      -6.7      1.618      2.811
REMARK  Name = 
REMARK  14 active torsions:
REMARK  status: ('A' for Active; 'I' for Inactive)
REMARK    1  A    between atoms: N_10  and  C_11
REMARK    2  A    between atoms: C_14  and  C_16
REMARK    3  A    between atoms: C_16  and  O_17
REMARK    4  A    between atoms: O_17  and  P_18
REMARK    5  A    between atoms: P_18  and  O_19
REMARK    6  A    between atoms: P_18  and  O_21
REMARK    7  A    between atoms: O_21  and  P_22
REMARK    8  A    between atoms: P_22  and  O_23
REMARK    9  A    between atoms: P_22  and  O_24
REMARK   10  A    between atoms: C_26  and  O_28
REMARK   11  A    between atoms: C_29  and  O_31
REMARK   12  A    between atoms: O_31  and  P_32
REMARK   13  A    between atoms: P_32  and  O_33
REMARK   14  A    between atoms: P_32  and  O_34
REMARK                            x       y       z     vdW  Elec       q    Type
REMARK                         _______ _______ _______ _____ _____    ______ ____
ROOT
ATOM      1  C   UNL     1       7.109  -1.923  22.639  0.00  0.00    +0.254 C 
ATOM      2  C   UNL     1       7.486  -3.400  22.429  0.00  0.00    +0.211 C 
ATOM      3  C   UNL     1       7.647  -3.958  23.847  0.00  0.00    +0.179 C 
ATOM      4  C   UNL     1       7.453  -2.749  24.753  0.00  0.00    +0.178 C 
ATOM      5  O   UNL     1       6.648  -1.826  24.011  0.00  0.00    -0.346 OA
ENDROOT
BRANCH   1  13
ATOM      6  N   UNL     1      10.594   3.025  22.500  0.00  0.00    -0.341 N 
ATOM      7  H   UNL     1      11.345   2.479  22.099  0.00  0.00    +0.144 HD
ATOM      8  H   UNL     1      10.505   3.993  22.220  0.00  0.00    +0.144 HD
ATOM      9  C   UNL     1       9.372   2.369  22.509  0.00  0.00    +0.147 A 
ATOM     10  C   UNL     1       9.244   0.972  22.425  0.00  0.00    +0.147 A 
ATOM     11  N   UNL     1      10.176  -0.035  22.290  0.00  0.00    -0.231 NA
ATOM     12  C   UNL     1       9.469  -1.145  22.321  0.00  0.00    +0.203 A 
ATOM     13  N   UNL     1       8.119  -0.902  22.422  0.00  0.00    -0.285 N 
ATOM     14  C   UNL     1       7.959   0.455  22.502  0.00  0.00    +0.167 A 
ATOM     15  N   UNL     1       6.819   1.148  22.645  0.00  0.00    -0.216 NA
ATOM     16  C   UNL     1       7.058   2.475  22.665  0.00  0.00    +0.225 A 
ATOM     17  N   UNL     1       8.246   3.113  22.607  0.00  0.00    -0.219 NA
ENDBRANCH   1  13
BRANCH   3  18
ATOM     18  O   UNL     1       8.950  -4.500  24.033  0.00  0.00    -0.386 OA
ATOM     19  H   UNL     1       8.856  -5.470  24.105  0.00  0.00    +0.210 HD
ENDBRANCH   3  18
BRANCH   2  20
ATOM     20  O   UNL     1       6.369  -3.982  21.743  0.00  0.00    -0.276 OA
BRANCH  20  21
ATOM     21  P   UNL     1       6.287  -5.560  21.508  0.00  0.00    +0.473 P 
ATOM     22  O   UNL     1       7.423  -6.383  21.979  0.00  0.00    -0.228 OA
BRANCH  21  23
ATOM     23  O   UNL     1       5.964  -5.610  19.946  0.00  0.00    -0.303 OA
ATOM     24  H   UNL     1       6.055  -4.730  19.541  0.00  0.00    +0.222 HD
ENDBRANCH  21  23
BRANCH  21  25
ATOM     25  O   UNL     1       4.861  -5.897  22.143  0.00  0.00    -0.303 OA
ATOM     26  H   UNL     1       4.887  -5.785  23.110  0.00  0.00    +0.222 HD
ENDBRANCH  21  25
ENDBRANCH  20  21
ENDBRANCH   2  20
BRANCH   4  27
ATOM     27  C   UNL     1       6.790  -3.093  26.076  0.00  0.00    +0.206 C 
BRANCH  27  28
ATOM     28  O   UNL     1       6.379  -4.455  26.075  0.00  0.00    -0.284 OA
BRANCH  28  29
ATOM     29  P   UNL     1       4.809  -4.675  26.505  0.00  0.00    +0.483 P 
ATOM     30  O   UNL     1       4.162  -3.301  26.672  0.00  0.00    -0.227 OA
BRANCH  29  31
ATOM     31  O   UNL     1       4.362  -4.620  24.834  0.00  0.00    -0.302 OA
ATOM     32  H   UNL     1       5.230  -4.638  24.375  0.00  0.00    +0.222 HD
ENDBRANCH  29  31
BRANCH  29  33
ATOM     33  O   UNL     1       5.254  -4.730  28.175  0.00  0.00    -0.186 OA
BRANCH  33  34
ATOM     34  P   UNL     1       5.719  -6.343  28.596  0.00  0.00    +0.481 P 
ATOM     35  O   UNL     1       6.134  -7.785  28.972  0.00  0.00    -0.227 OA
BRANCH  34  36
ATOM     36  O   UNL     1       7.237  -5.864  28.212  0.00  0.00    -0.302 OA
ATOM     37  H   UNL     1       7.801  -6.629  28.012  0.00  0.00    +0.222 HD
ENDBRANCH  34  36
BRANCH  34  38
ATOM     38  O   UNL     1       5.333  -6.808  27.073  0.00  0.00    -0.302 OA
ATOM     39  H   UNL     1       5.906  -6.239  26.505  0.00  0.00    +0.222 HD
ENDBRANCH  34  38
ENDBRANCH  33  34
ENDBRANCH  29  33
ENDBRANCH  28  29
ENDBRANCH  27  28
ENDBRANCH   4  27
TORSDOF 14
ENDMDL
MODEL 6
REMARK VINA RESULT:      -6.5      3.124      4.982
REMARK  Name = 
REMARK  14 active torsions:
REMARK  status: ('A' for Active; 'I' for Inactive)
REMARK    1  A    between atoms: N_10  and  C_11
REMARK    2  A    between atoms: C_14  and  C_16
REMARK    3  A    between atoms: C_16  and  O_17
REMARK    4  A    between atoms: O_17  and  P_18
REMARK    5  A    between atoms: P_18  and  O_19
REMARK    6  A    between atoms: P_18  and  O_21
REMARK    7  A    between atoms: O_21  and  P_22
REMARK    8  A    between atoms: P_22  and  O_23
REMARK    9  A    between atoms: P_22  and  O_24
REMARK   10  A    between atoms: C_26  and  O_28
REMARK   11  A    between atoms: C_29  and  O_31
REMARK   12  A    between atoms: O_31  and  P_32
REMARK   13  A    between atoms: P_32  and  O_33
REMARK   14  A    between atoms: P_32  and  O_34
REMARK                            x       y       z     vdW  Elec       q    Type
REMARK                         _______ _______ _______ _____ _____    ______ ____
ROOT
ATOM      1  C   UNL     1       8.407   0.252  25.308  0.00  0.00    +0.254 C 
ATOM      2  C   UNL     1       7.069  -0.304  24.787  0.00  0.00    +0.211 C 
ATOM      3  C   UNL     1       7.452  -1.591  24.050  0.00  0.00    +0.179 C 
ATOM      4  C   UNL     1       8.973  -1.625  24.114  0.00  0.00    +0.178 C 
ATOM      5  O   UNL     1       9.336  -0.862  25.269  0.00  0.00    -0.346 OA
ENDROOT
BRANCH   1  13
ATOM      6  N   UNL     1      10.259   5.640  23.265  0.00  0.00    -0.341 N 
ATOM      7  H   UNL     1      11.010   5.186  22.762  0.00  0.00    +0.144 HD
ATOM      8  H   UNL     1       9.843   6.467  22.857  0.00  0.00    +0.144 HD
ATOM      9  C   UNL     1       9.303   4.761  23.753  0.00  0.00    +0.147 A 
ATOM     10  C   UNL     1       9.548   3.392  23.959  0.00  0.00    +0.147 A 
ATOM     11  N   UNL     1      10.658   2.606  23.735  0.00  0.00    -0.231 NA
ATOM     12  C   UNL     1      10.313   1.414  24.171  0.00  0.00    +0.203 A 
ATOM     13  N   UNL     1       9.014   1.379  24.624  0.00  0.00    -0.285 N 
ATOM     14  C   UNL     1       8.512   2.647  24.506  0.00  0.00    +0.167 A 
ATOM     15  N   UNL     1       7.296   3.093  24.855  0.00  0.00    -0.216 NA
ATOM     16  C   UNL     1       7.159   4.403  24.567  0.00  0.00    +0.225 A 
ATOM     17  N   UNL     1       8.076   5.247  24.047  0.00  0.00    -0.219 NA
ENDBRANCH   1  13
BRANCH   3  18
ATOM     18  O   UNL     1       7.024  -1.543  22.693  0.00  0.00    -0.386 OA
ATOM     19  H   UNL     1       7.745  -1.910  22.145  0.00  0.00    +0.210 HD
ENDBRANCH   3  18
BRANCH   2  20
ATOM     20  O   UNL     1       6.285  -0.565  25.960  0.00  0.00    -0.276 OA
BRANCH  20  21
ATOM     21  P   UNL     1       5.107   0.424  26.390  0.00  0.00    +0.473 P 
ATOM     22  O   UNL     1       5.311   1.246  27.604  0.00  0.00    -0.228 OA
BRANCH  21  23
ATOM     23  O   UNL     1       3.867  -0.581  26.403  0.00  0.00    -0.303 OA
ATOM     24  H   UNL     1       4.161  -1.498  26.540  0.00  0.00    +0.222 HD
ENDBRANCH  21  23
BRANCH  21  25
ATOM     25  O   UNL     1       4.858   1.224  25.030  0.00  0.00    -0.303 OA
ATOM     26  H   UNL     1       5.512   1.940  24.935  0.00  0.00    +0.222 HD
ENDBRANCH  21  25
ENDBRANCH  20  21
ENDBRANCH   2  20
BRANCH   4  27
ATOM     27  C   UNL     1       9.537  -3.034  24.205  0.00  0.00    +0.206 C 
BRANCH  27  28
ATOM     28  O   UNL     1       9.191  -3.616  25.456  0.00  0.00    -0.284 OA
BRANCH  28  29
ATOM     29  P   UNL     1       8.854  -5.222  25.370  0.00  0.00    +0.483 P 
ATOM     30  O   UNL     1       8.809  -5.623  23.897  0.00  0.00    -0.227 OA
BRANCH  29  31
ATOM     31  O   UNL     1      10.552  -5.558  25.352  0.00  0.00    -0.302 OA
ATOM     32  H   UNL     1      10.950  -4.670  25.222  0.00  0.00    +0.222 HD
ENDBRANCH  29  31
BRANCH  29  33
ATOM     33  O   UNL     1       7.158  -4.887  25.389  0.00  0.00    -0.186 OA
BRANCH  33  34
ATOM     34  P   UNL     1       6.572  -4.962  27.015  0.00  0.00    +0.481 P 
ATOM     35  O   UNL     1       6.048  -5.029  28.470  0.00  0.00    -0.227 OA
BRANCH  34  36
ATOM     36  O   UNL     1       7.007  -3.386  27.105  0.00  0.00    -0.302 OA
ATOM     37  H   UNL     1       7.189  -3.129  28.024  0.00  0.00    +0.222 HD
ENDBRANCH  34  36
BRANCH  34  38
ATOM     38  O   UNL     1       8.038  -5.534  27.474  0.00  0.00    -0.302 OA
ATOM     39  H   UNL     1       8.673  -4.918  27.038  0.00  0.00    +0.222 HD
ENDBRANCH  34  38
ENDBRANCH  33  34
ENDBRANCH  29  33
ENDBRANCH  28  29
ENDBRANCH  27  28
ENDBRANCH   4  27
TORSDOF 14
ENDMDL
MODEL 7
REMARK VINA RESULT:      -6.2      3.093      5.424
REMARK  Name = 
REMARK  14 active torsions:
REMARK  status: ('A' for Active; 'I' for Inactive)
REMARK    1  A    between atoms: N_10  and  C_11
REMARK    2  A    between atoms: C_14  and  C_16
REMARK    3  A    between atoms: C_16  and  O_17
REMARK    4  A    between atoms: O_17  and  P_18
REMARK    5  A    between atoms: P_18  and  O_19
REMARK    6  A    between atoms: P_18  and  O_21
REMARK    7  A    between atoms: O_21  and  P_22
REMARK    8  A    between atoms: P_22  and  O_23
REMARK    9  A    between atoms: P_22  and  O_24
REMARK   10  A    between atoms: C_26  and  O_28
REMARK   11  A    between atoms: C_29  and  O_31
REMARK   12  A    between atoms: O_31  and  P_32
REMARK   13  A    between atoms: P_32  and  O_33
REMARK   14  A    between atoms: P_32  and  O_34
REMARK                            x       y       z     vdW  Elec       q    Type
REMARK                         _______ _______ _______ _____ _____    ______ ____
ROOT
ATOM      1  C   UNL     1       8.737   0.545  25.232  0.00  0.00    +0.254 C 
ATOM      2  C   UNL     1       7.257   0.154  25.066  0.00  0.00    +0.211 C 
ATOM      3  C   UNL     1       7.286  -1.053  24.124  0.00  0.00    +0.179 C 
ATOM      4  C   UNL     1       8.753  -1.200  23.741  0.00  0.00    +0.178 C 
ATOM      5  O   UNL     1       9.499  -0.616  24.814  0.00  0.00    -0.346 OA
ENDROOT
BRANCH   1  13
ATOM      6  N   UNL     1      10.349   6.026  23.231  0.00  0.00    -0.341 N 
ATOM      7  H   UNL     1      10.975   5.594  22.564  0.00  0.00    +0.144 HD
ATOM      8  H   UNL     1       9.892   6.889  22.967  0.00  0.00    +0.144 HD
ATOM      9  C   UNL     1       9.475   5.134  23.835  0.00  0.00    +0.147 A 
ATOM     10  C   UNL     1       9.707   3.749  23.899  0.00  0.00    +0.147 A 
ATOM     11  N   UNL     1      10.726   2.959  23.414  0.00  0.00    -0.231 NA
ATOM     12  C   UNL     1      10.429   1.746  23.829  0.00  0.00    +0.203 A 
ATOM     13  N   UNL     1       9.240   1.706  24.520  0.00  0.00    -0.285 N 
ATOM     14  C   UNL     1       8.770   2.989  24.585  0.00  0.00    +0.167 A 
ATOM     15  N   UNL     1       7.659   3.435  25.191  0.00  0.00    -0.216 NA
ATOM     16  C   UNL     1       7.515   4.764  25.022  0.00  0.00    +0.225 A 
ATOM     17  N   UNL     1       8.344   5.624  24.392  0.00  0.00    -0.219 NA
ENDBRANCH   1  13
BRANCH   3  18
ATOM     18  O   UNL     1       6.503  -0.805  22.960  0.00  0.00    -0.386 OA
ATOM     19  H   UNL     1       5.747  -0.247  23.230  0.00  0.00    +0.210 HD
ENDBRANCH   3  18
BRANCH   2  20
ATOM     20  O   UNL     1       6.810  -0.199  26.383  0.00  0.00    -0.276 OA
BRANCH  20  21
ATOM     21  P   UNL     1       5.437   0.381  26.961  0.00  0.00    +0.473 P 
ATOM     22  O   UNL     1       5.208   0.273  28.418  0.00  0.00    -0.228 OA
BRANCH  21  23
ATOM     23  O   UNL     1       4.385  -0.352  26.012  0.00  0.00    -0.303 OA
ATOM     24  H   UNL     1       3.527   0.110  26.017  0.00  0.00    +0.222 HD
ENDBRANCH  21  23
BRANCH  21  25
ATOM     25  O   UNL     1       5.443   1.858  26.354  0.00  0.00    -0.303 OA
ATOM     26  H   UNL     1       6.359   2.173  26.241  0.00  0.00    +0.222 HD
ENDBRANCH  21  25
ENDBRANCH  20  21
ENDBRANCH   2  20
BRANCH   4  27
ATOM     27  C   UNL     1       9.172  -2.644  23.522  0.00  0.00    +0.206 C 
BRANCH  27  28
ATOM     28  O   UNL     1       8.038  -3.435  23.188  0.00  0.00    -0.284 OA
BRANCH  28  29
ATOM     29  P   UNL     1       7.924  -4.829  24.049  0.00  0.00    +0.483 P 
ATOM     30  O   UNL     1       8.305  -5.990  23.132  0.00  0.00    -0.227 OA
BRANCH  29  31
ATOM     31  O   UNL     1       9.596  -4.684  24.469  0.00  0.00    -0.302 OA
ATOM     32  H   UNL     1       9.613  -3.879  25.029  0.00  0.00    +0.222 HD
ENDBRANCH  29  31
BRANCH  29  33
ATOM     33  O   UNL     1       6.252  -4.975  23.630  0.00  0.00    -0.186 OA
BRANCH  33  34
ATOM     34  P   UNL     1       6.104  -5.233  21.925  0.00  0.00    +0.481 P 
ATOM     35  O   UNL     1       5.972  -5.464  20.401  0.00  0.00    -0.227 OA
BRANCH  34  36
ATOM     36  O   UNL     1       5.490  -3.715  21.883  0.00  0.00    -0.302 OA
ATOM     37  H   UNL     1       5.706  -3.232  22.697  0.00  0.00    +0.222 HD
ENDBRANCH  34  36
BRANCH  34  38
ATOM     38  O   UNL     1       4.660  -5.957  22.202  0.00  0.00    -0.302 OA
ATOM     39  H   UNL     1       4.054  -5.200  22.387  0.00  0.00    +0.222 HD
ENDBRANCH  34  38
ENDBRANCH  33  34
ENDBRANCH  29  33
ENDBRANCH  28  29
ENDBRANCH  27  28
ENDBRANCH   4  27
TORSDOF 14
ENDMDL
MODEL 8
REMARK VINA RESULT:      -6.2      4.442      7.701
REMARK  Name = 
REMARK  14 active torsions:
REMARK  status: ('A' for Active; 'I' for Inactive)
REMARK    1  A    between atoms: N_10  and  C_11
REMARK    2  A    between atoms: C_14  and  C_16
REMARK    3  A    between atoms: C_16  and  O_17
REMARK    4  A    between atoms: O_17  and  P_18
REMARK    5  A    between atoms: P_18  and  O_19
REMARK    6  A    between atoms: P_18  and  O_21
REMARK    7  A    between atoms: O_21  and  P_22
REMARK    8  A    between atoms: P_22  and  O_23
REMARK    9  A    between atoms: P_22  and  O_24
REMARK   10  A    between atoms: C_26  and  O_28
REMARK   11  A    between atoms: C_29  and  O_31
REMARK   12  A    between atoms: O_31  and  P_32
REMARK   13  A    between atoms: P_32  and  O_33
REMARK   14  A    between atoms: P_32  and  O_34
REMARK                            x       y       z     vdW  Elec       q    Type
REMARK                         _______ _______ _______ _____ _____    ______ ____
ROOT
ATOM      1  C   UNL     1       6.113  -4.737  25.864  0.00  0.00    +0.254 C 
ATOM      2  C   UNL     1       7.076  -5.642  26.655  0.00  0.00    +0.211 C 
ATOM      3  C   UNL     1       8.468  -5.256  26.144  0.00  0.00    +0.179 C 
ATOM      4  C   UNL     1       8.198  -4.244  25.038  0.00  0.00    +0.178 C 
ATOM      5  O   UNL     1       6.929  -3.656  25.344  0.00  0.00    -0.346 OA
ENDROOT
BRANCH   1  13
ATOM      6  N   UNL     1       2.028  -7.201  22.138  0.00  0.00    -0.341 N 
ATOM      7  H   UNL     1       2.604  -6.946  21.345  0.00  0.00    +0.144 HD
ATOM      8  H   UNL     1       1.489  -8.054  22.081  0.00  0.00    +0.144 HD
ATOM      9  C   UNL     1       2.671  -7.069  23.360  0.00  0.00    +0.147 A 
ATOM     10  C   UNL     1       3.797  -6.250  23.555  0.00  0.00    +0.147 A 
ATOM     11  N   UNL     1       4.527  -5.459  22.694  0.00  0.00    -0.231 NA
ATOM     12  C   UNL     1       5.433  -4.888  23.458  0.00  0.00    +0.203 A 
ATOM     13  N   UNL     1       5.355  -5.308  24.765  0.00  0.00    -0.285 N 
ATOM     14  C   UNL     1       4.299  -6.175  24.847  0.00  0.00    +0.167 A 
ATOM     15  N   UNL     1       3.827  -6.806  25.933  0.00  0.00    -0.216 NA
ATOM     16  C   UNL     1       2.783  -7.598  25.617  0.00  0.00    +0.225 A 
ATOM     17  N   UNL     1       2.189  -7.762  24.416  0.00  0.00    -0.219 NA
ENDBRANCH   1  13
BRANCH   3  18
ATOM     18  O   UNL     1       9.143  -6.390  25.610  0.00  0.00    -0.386 OA
ATOM     19  H   UNL     1       9.586  -6.844  26.353  0.00  0.00    +0.210 HD
ENDBRANCH   3  18
BRANCH   2  20
ATOM     20  O   UNL     1       6.886  -5.284  28.031  0.00  0.00    -0.276 OA
BRANCH  20  21
ATOM     21  P   UNL     1       5.708  -5.938  28.889  0.00  0.00    +0.473 P 
ATOM     22  O   UNL     1       4.408  -5.231  28.918  0.00  0.00    -0.228 OA
BRANCH  21  23
ATOM     23  O   UNL     1       6.443  -6.148  30.289  0.00  0.00    -0.303 OA
ATOM     24  H   UNL     1       6.794  -7.052  30.369  0.00  0.00    +0.222 HD
ENDBRANCH  21  23
BRANCH  21  25
ATOM     25  O   UNL     1       5.688  -7.426  28.309  0.00  0.00    -0.303 OA
ATOM     26  H   UNL     1       6.406  -7.545  27.661  0.00  0.00    +0.222 HD
ENDBRANCH  21  25
ENDBRANCH  20  21
ENDBRANCH   2  20
BRANCH   4  27
ATOM     27  C   UNL     1       9.272  -3.174  24.932  0.00  0.00    +0.206 C 
BRANCH  27  28
ATOM     28  O   UNL     1       9.636  -2.985  23.569  0.00  0.00    -0.284 OA
BRANCH  28  29
ATOM     29  P   UNL     1       9.185  -1.528  22.958  0.00  0.00    +0.483 P 
ATOM     30  O   UNL     1       9.788  -1.388  21.561  0.00  0.00    -0.227 OA
BRANCH  29  31
ATOM     31  O   UNL     1       7.809  -2.283  22.227  0.00  0.00    -0.302 OA
ATOM     32  H   UNL     1       8.205  -2.790  21.485  0.00  0.00    +0.222 HD
ENDBRANCH  29  31
BRANCH  29  33
ATOM     33  O   UNL     1      10.558  -0.774  23.688  0.00  0.00    -0.186 OA
BRANCH  33  34
ATOM     34  P   UNL     1      10.168   0.861  24.101  0.00  0.00    +0.481 P 
ATOM     35  O   UNL     1       9.818   2.323  24.470  0.00  0.00    -0.227 OA
BRANCH  34  36
ATOM     36  O   UNL     1       9.911   0.279  25.610  0.00  0.00    -0.302 OA
ATOM     37  H   UNL     1       9.116  -0.279  25.635  0.00  0.00    +0.222 HD
ENDBRANCH  34  36
BRANCH  34  38
ATOM     38  O   UNL     1       8.637   0.582  23.585  0.00  0.00    -0.302 OA
ATOM     39  H   UNL     1       8.701   0.683  22.606  0.00  0.00    +0.222 HD
ENDBRANCH  34  38
ENDBRANCH  33  34
ENDBRANCH  29  33
ENDBRANCH  28  29
ENDBRANCH  27  28
ENDBRANCH   4  27
TORSDOF 14
ENDMDL
MODEL 9
REMARK VINA RESULT:      -6.2      4.716      7.488
REMARK  Name = 
REMARK  14 active torsions:
REMARK  status: ('A' for Active; 'I' for Inactive)
REMARK    1  A    between atoms: N_10  and  C_11
REMARK    2  A    between atoms: C_14  and  C_16
REMARK    3  A    between atoms: C_16  and  O_17
REMARK    4  A    between atoms: O_17  and  P_18
REMARK    5  A    between atoms: P_18  and  O_19
REMARK    6  A    between atoms: P_18  and  O_21
REMARK    7  A    between atoms: O_21  and  P_22
REMARK    8  A    between atoms: P_22  and  O_23
REMARK    9  A    between atoms: P_22  and  O_24
REMARK   10  A    between atoms: C_26  and  O_28
REMARK   11  A    between atoms: C_29  and  O_31
REMARK   12  A    between atoms: O_31  and  P_32
REMARK   13  A    between atoms: P_32  and  O_33
REMARK   14  A    between atoms: P_32  and  O_34
REMARK                            x       y       z     vdW  Elec       q    Type
REMARK                         _______ _______ _______ _____ _____    ______ ____
ROOT
ATOM      1  C   UNL     1       7.579  -3.682  24.376  0.00  0.00    +0.254 C 
ATOM      2  C   UNL     1       6.349  -3.232  23.566  0.00  0.00    +0.211 C 
ATOM      3  C   UNL     1       6.230  -1.732  23.854  0.00  0.00    +0.179 C 
ATOM      4  C   UNL     1       7.325  -1.456  24.877  0.00  0.00    +0.178 C 
ATOM      5  O   UNL     1       8.316  -2.469  24.676  0.00  0.00    -0.346 OA
ENDROOT
BRANCH   1  13
ATOM      6  N   UNL     1       5.691  -7.156  28.960  0.00  0.00    -0.341 N 
ATOM      7  H   UNL     1       6.602  -7.072  29.393  0.00  0.00    +0.144 HD
ATOM      8  H   UNL     1       4.881  -7.222  29.562  0.00  0.00    +0.144 HD
ATOM      9  C   UNL     1       5.490  -6.274  27.908  0.00  0.00    +0.147 A 
ATOM     10  C   UNL     1       6.541  -5.665  27.200  0.00  0.00    +0.147 A 
ATOM     11  N   UNL     1       7.910  -5.726  27.342  0.00  0.00    -0.231 NA
ATOM     12  C   UNL     1       8.378  -4.988  26.359  0.00  0.00    +0.203 A 
ATOM     13  N   UNL     1       7.375  -4.412  25.614  0.00  0.00    -0.285 N 
ATOM     14  C   UNL     1       6.187  -4.848  26.135  0.00  0.00    +0.167 A 
ATOM     15  N   UNL     1       4.944  -4.573  25.709  0.00  0.00    -0.216 NA
ATOM     16  C   UNL     1       4.021  -5.169  26.490  0.00  0.00    +0.225 A 
ATOM     17  N   UNL     1       4.219  -5.990  27.545  0.00  0.00    -0.219 NA
ENDBRANCH   1  13
BRANCH   3  18
ATOM     18  O   UNL     1       4.956  -1.424  24.411  0.00  0.00    -0.386 OA
ATOM     19  H   UNL     1       4.704  -2.167  24.993  0.00  0.00    +0.210 HD
ENDBRANCH   3  18
BRANCH   2  20
ATOM     20  O   UNL     1       6.683  -3.494  22.196  0.00  0.00    -0.276 OA
BRANCH  20  21
ATOM     21  P   UNL     1       6.292  -4.884  21.512  0.00  0.00    +0.473 P 
ATOM     22  O   UNL     1       7.298  -5.968  21.538  0.00  0.00    -0.228 OA
BRANCH  21  23
ATOM     23  O   UNL     1       5.814  -4.382  20.075  0.00  0.00    -0.303 OA
ATOM     24  H   UNL     1       6.323  -4.812  19.366  0.00  0.00    +0.222 HD
ENDBRANCH  21  23
BRANCH  21  25
ATOM     25  O   UNL     1       4.897  -5.199  22.223  0.00  0.00    -0.303 OA
ATOM     26  H   UNL     1       5.030  -5.804  22.975  0.00  0.00    +0.222 HD
ENDBRANCH  21  25
ENDBRANCH  20  21
ENDBRANCH   2  20
BRANCH   4  27
ATOM     27  C   UNL     1       7.938  -0.073  24.738  0.00  0.00    +0.206 C 
BRANCH  27  28
ATOM     28  O   UNL     1       6.975   0.836  24.216  0.00  0.00    -0.284 OA
BRANCH  28  29
ATOM     29  P   UNL     1       7.616   1.994  23.243  0.00  0.00    +0.483 P 
ATOM     30  O   UNL     1       7.609   1.470  21.808  0.00  0.00    -0.227 OA
BRANCH  29  31
ATOM     31  O   UNL     1       6.025   2.614  22.965  0.00  0.00    -0.302 OA
ATOM     32  H   UNL     1       5.447   1.897  23.304  0.00  0.00    +0.222 HD
ENDBRANCH  29  31
BRANCH  29  33
ATOM     33  O   UNL     1       9.207   1.376  23.520  0.00  0.00    -0.186 OA
BRANCH  33  34
ATOM     34  P   UNL     1      10.364   2.647  23.322  0.00  0.00    +0.481 P 
ATOM     35  O   UNL     1      11.398   3.784  23.145  0.00  0.00    -0.227 OA
BRANCH  34  36
ATOM     36  O   UNL     1       9.062   3.636  23.217  0.00  0.00    -0.302 OA
ATOM     37  H   UNL     1       9.276   4.526  23.542  0.00  0.00    +0.222 HD
ENDBRANCH  34  36
BRANCH  34  38
ATOM     38  O   UNL     1      10.405   2.305  21.720  0.00  0.00    -0.302 OA
ATOM     39  H   UNL     1      11.370   2.236  21.523  0.00  0.00    +0.222 HD
ENDBRANCH  34  38
ENDBRANCH  33  34
ENDBRANCH  29  33
ENDBRANCH  28  29
ENDBRANCH  27  28
ENDBRANCH   4  27
TORSDOF 14
ENDMDL
