MODEL 1
REMARK VINA RESULT:      -5.1      0.000      0.000
REMARK  Name = 
REMARK  0 active torsions:
REMARK  status: ('A' for Active; 'I' for Inactive)
REMARK                            x       y       z     vdW  Elec       q    Type
REMARK                         _______ _______ _______ _____ _____    ______ ____
ROOT
ATOM      1  O   UNL     1      10.844   0.290  25.162  0.00  0.00    -0.265 OA
ATOM      2  C   UNL     1      10.342  -0.156  24.140  0.00  0.00    +0.284 A 
ATOM      3  C   UNL     1       9.971   0.713  23.044  0.00  0.00    +0.102 A 
ATOM      4  C   UNL     1       9.305   0.142  21.869  0.00  0.00    +0.161 A 
ATOM      5  N   UNL     1       8.971   1.151  20.977  0.00  0.00    -0.283 N 
ATOM      6  H   UNL     1       9.083   0.916  19.992  0.00  0.00    +0.188 HD
ATOM      7  N   UNL     1       9.566   2.302  21.469  0.00  0.00    -0.305 N 
ATOM      8  H   UNL     1       9.010   3.162  21.432  0.00  0.00    +0.186 HD
ATOM      9  N   UNL     1       9.124  -1.125  21.752  0.00  0.00    -0.216 NA
ATOM     10  C   UNL     1       9.541  -1.893  22.812  0.00  0.00    +0.227 A 
ATOM     11  C   UNL     1      10.065   2.014  22.736  0.00  0.00    +0.118 A 
ATOM     12  N   UNL     1      10.091  -1.484  23.913  0.00  0.00    -0.197 NA
ENDROOT
TORSDOF 0
ENDMDL
MODEL 2
REMARK VINA RESULT:      -4.7      3.711      5.761
REMARK  Name = 
REMARK  0 active torsions:
REMARK  status: ('A' for Active; 'I' for Inactive)
REMARK                            x       y       z     vdW  Elec       q    Type
REMARK                         _______ _______ _______ _____ _____    ______ ____
ROOT
ATOM      1  O   UNL     1       7.547  -1.627  26.710  0.00  0.00    -0.265 OA
ATOM      2  C   UNL     1       8.270  -2.229  25.929  0.00  0.00    +0.284 A 
ATOM      3  C   UNL     1       8.475  -3.658  26.043  0.00  0.00    +0.102 A 
ATOM      4  C   UNL     1       9.409  -4.324  25.129  0.00  0.00    +0.161 A 
ATOM      5  N   UNL     1       9.513  -5.668  25.456  0.00  0.00    -0.283 N 
ATOM      6  H   UNL     1       9.588  -6.304  24.664  0.00  0.00    +0.188 HD
ATOM      7  N   UNL     1       8.545  -5.898  26.421  0.00  0.00    -0.305 N 
ATOM      8  H   UNL     1       8.812  -6.493  27.211  0.00  0.00    +0.186 HD
ATOM      9  N   UNL     1       9.980  -3.683  24.172  0.00  0.00    -0.216 NA
ATOM     10  C   UNL     1       9.705  -2.340  24.098  0.00  0.00    +0.227 A 
ATOM     11  C   UNL     1       8.023  -4.665  26.801  0.00  0.00    +0.118 A 
ATOM     12  N   UNL     1       8.939  -1.648  24.882  0.00  0.00    -0.197 NA
ENDROOT
TORSDOF 0
ENDMDL
MODEL 3
REMARK VINA RESULT:      -4.6      1.694      2.377
REMARK  Name = 
REMARK  0 active torsions:
REMARK  status: ('A' for Active; 'I' for Inactive)
REMARK                            x       y       z     vdW  Elec       q    Type
REMARK                         _______ _______ _______ _____ _____    ______ ____
ROOT
ATOM      1  O   UNL     1       9.549  -2.037  22.446  0.00  0.00    -0.265 OA
ATOM      2  C   UNL     1       9.753  -1.022  23.096  0.00  0.00    +0.284 A 
ATOM      3  C   UNL     1       9.589   0.292  22.509  0.00  0.00    +0.102 A 
ATOM      4  C   UNL     1       9.915   1.479  23.306  0.00  0.00    +0.161 A 
ATOM      5  N   UNL     1       9.760   2.623  22.536  0.00  0.00    -0.283 N 
ATOM      6  H   UNL     1       9.370   3.427  23.025  0.00  0.00    +0.188 HD
ATOM      7  N   UNL     1       9.179   2.204  21.350  0.00  0.00    -0.305 N 
ATOM      8  H   UNL     1       9.539   2.620  20.486  0.00  0.00    +0.186 HD
ATOM      9  N   UNL     1      10.255   1.383  24.542  0.00  0.00    -0.216 NA
ATOM     10  C   UNL     1      10.347   0.107  25.044  0.00  0.00    +0.227 A 
ATOM     11  C   UNL     1       9.183   0.812  21.344  0.00  0.00    +0.118 A 
ATOM     12  N   UNL     1      10.132  -1.004  24.413  0.00  0.00    -0.197 NA
ENDROOT
TORSDOF 0
ENDMDL
MODEL 4
REMARK VINA RESULT:      -4.5      2.049      2.265
REMARK  Name = 
REMARK  0 active torsions:
REMARK  status: ('A' for Active; 'I' for Inactive)
REMARK                            x       y       z     vdW  Elec       q    Type
REMARK                         _______ _______ _______ _____ _____    ______ ____
ROOT
ATOM      1  O   UNL     1       6.436  -0.793  23.387  0.00  0.00    -0.265 OA
ATOM      2  C   UNL     1       7.572  -0.699  22.944  0.00  0.00    +0.284 A 
ATOM      3  C   UNL     1       8.085   0.563  22.452  0.00  0.00    +0.102 A 
ATOM      4  C   UNL     1       9.427   0.611  21.864  0.00  0.00    +0.161 A 
ATOM      5  N   UNL     1       9.691   1.889  21.391  0.00  0.00    -0.283 N 
ATOM      6  H   UNL     1      10.646   2.215  21.528  0.00  0.00    +0.188 HD
ATOM      7  N   UNL     1       8.637   2.677  21.826  0.00  0.00    -0.305 N 
ATOM      8  H   UNL     1       8.262   3.357  21.158  0.00  0.00    +0.186 HD
ATOM      9  N   UNL     1      10.193  -0.422  21.857  0.00  0.00    -0.216 NA
ATOM     10  C   UNL     1       9.655  -1.572  22.380  0.00  0.00    +0.227 A 
ATOM     11  C   UNL     1       7.671   1.834  22.366  0.00  0.00    +0.118 A 
ATOM     12  N   UNL     1       8.469  -1.733  22.875  0.00  0.00    -0.197 NA
ENDROOT
TORSDOF 0
ENDMDL
MODEL 5
REMARK VINA RESULT:      -4.4      4.130      6.115
REMARK  Name = 
REMARK  0 active torsions:
REMARK  status: ('A' for Active; 'I' for Inactive)
REMARK                            x       y       z     vdW  Elec       q    Type
REMARK                         _______ _______ _______ _____ _____    ______ ____
ROOT
ATOM      1  O   UNL     1      10.179  -3.071  23.882  0.00  0.00    -0.265 OA
ATOM      2  C   UNL     1       9.013  -3.388  24.068  0.00  0.00    +0.284 A 
ATOM      3  C   UNL     1       8.647  -4.343  25.094  0.00  0.00    +0.102 A 
ATOM      4  C   UNL     1       7.244  -4.746  25.231  0.00  0.00    +0.161 A 
ATOM      5  N   UNL     1       7.125  -5.717  26.215  0.00  0.00    -0.283 N 
ATOM      6  H   UNL     1       6.294  -5.645  26.800  0.00  0.00    +0.188 HD
ATOM      7  N   UNL     1       8.371  -5.800  26.816  0.00  0.00    -0.305 N 
ATOM      8  H   UNL     1       8.718  -6.739  27.035  0.00  0.00    +0.186 HD
ATOM      9  N   UNL     1       6.319  -4.203  24.522  0.00  0.00    -0.216 NA
ATOM     10  C   UNL     1       6.735  -3.273  23.600  0.00  0.00    +0.227 A 
ATOM     11  C   UNL     1       9.259  -5.039  26.061  0.00  0.00    +0.118 A 
ATOM     12  N   UNL     1       7.949  -2.886  23.365  0.00  0.00    -0.197 NA
ENDROOT
TORSDOF 0
ENDMDL
MODEL 6
REMARK VINA RESULT:      -4.4      5.696      7.114
REMARK  Name = 
REMARK  0 active torsions:
REMARK  status: ('A' for Active; 'I' for Inactive)
REMARK                            x       y       z     vdW  Elec       q    Type
REMARK                         _______ _______ _______ _____ _____    ______ ____
ROOT
ATOM      1  O   UNL     1       4.695  -4.071  24.698  0.00  0.00    -0.265 OA
ATOM      2  C   UNL     1       5.870  -4.356  24.518  0.00  0.00    +0.284 A 
ATOM      3  C   UNL     1       6.667  -4.957  25.567  0.00  0.00    +0.102 A 
ATOM      4  C   UNL     1       8.091  -5.214  25.329  0.00  0.00    +0.161 A 
ATOM      5  N   UNL     1       8.680  -5.719  26.479  0.00  0.00    -0.283 N 
ATOM      6  H   UNL     1       9.378  -6.445  26.328  0.00  0.00    +0.188 HD
ATOM      7  N   UNL     1       7.639  -5.954  27.364  0.00  0.00    -0.305 N 
ATOM      8  H   UNL     1       7.796  -5.693  28.342  0.00  0.00    +0.186 HD
ATOM      9  N   UNL     1       8.626  -5.002  24.179  0.00  0.00    -0.216 NA
ATOM     10  C   UNL     1       7.799  -4.472  23.219  0.00  0.00    +0.227 A 
ATOM     11  C   UNL     1       6.484  -5.403  26.817  0.00  0.00    +0.118 A 
ATOM     12  N   UNL     1       6.547  -4.162  23.342  0.00  0.00    -0.197 NA
ENDROOT
TORSDOF 0
ENDMDL
MODEL 7
REMARK VINA RESULT:      -4.3      2.326      3.323
REMARK  Name = 
REMARK  0 active torsions:
REMARK  status: ('A' for Active; 'I' for Inactive)
REMARK                            x       y       z     vdW  Elec       q    Type
REMARK                         _______ _______ _______ _____ _____    ______ ____
ROOT
ATOM      1  O   UNL     1       9.803  -3.475  24.112  0.00  0.00    -0.265 OA
ATOM      2  C   UNL     1       9.835  -2.301  23.771  0.00  0.00    +0.284 A 
ATOM      3  C   UNL     1       9.441  -1.243  24.678  0.00  0.00    +0.102 A 
ATOM      4  C   UNL     1       9.427   0.143  24.200  0.00  0.00    +0.161 A 
ATOM      5  N   UNL     1       8.950   0.982  25.197  0.00  0.00    -0.283 N 
ATOM      6  H   UNL     1       9.414   1.888  25.262  0.00  0.00    +0.188 HD
ATOM      7  N   UNL     1       8.841   0.195  26.332  0.00  0.00    -0.305 N 
ATOM      8  H   UNL     1       8.004   0.330  26.909  0.00  0.00    +0.186 HD
ATOM      9  N   UNL     1       9.842   0.450  23.022  0.00  0.00    -0.216 NA
ATOM     10  C   UNL     1      10.242  -0.601  22.233  0.00  0.00    +0.227 A 
ATOM     11  C   UNL     1       9.051  -1.127  25.954  0.00  0.00    +0.118 A 
ATOM     12  N   UNL     1      10.246  -1.860  22.539  0.00  0.00    -0.197 NA
ENDROOT
TORSDOF 0
ENDMDL
MODEL 8
REMARK VINA RESULT:      -4.2      5.721      6.695
REMARK  Name = 
REMARK  0 active torsions:
REMARK  status: ('A' for Active; 'I' for Inactive)
REMARK                            x       y       z     vdW  Elec       q    Type
REMARK                         _______ _______ _______ _____ _____    ______ ____
ROOT
ATOM      1  O   UNL     1       7.432  -5.684  27.783  0.00  0.00    -0.265 OA
ATOM      2  C   UNL     1       7.837  -5.325  26.687  0.00  0.00    +0.284 A 
ATOM      3  C   UNL     1       6.983  -5.368  25.518  0.00  0.00    +0.102 A 
ATOM      4  C   UNL     1       7.535  -4.997  24.212  0.00  0.00    +0.161 A 
ATOM      5  N   UNL     1       6.578  -5.179  23.224  0.00  0.00    -0.283 N 
ATOM      6  H   UNL     1       6.570  -4.473  22.490  0.00  0.00    +0.188 HD
ATOM      7  N   UNL     1       5.399  -5.475  23.891  0.00  0.00    -0.305 N 
ATOM      8  H   UNL     1       4.817  -6.219  23.493  0.00  0.00    +0.186 HD
ATOM      9  N   UNL     1       8.734  -4.548  24.095  0.00  0.00    -0.216 NA
ATOM     10  C   UNL     1       9.472  -4.493  25.252  0.00  0.00    +0.227 A 
ATOM     11  C   UNL     1       5.709  -5.667  25.234  0.00  0.00    +0.118 A 
ATOM     12  N   UNL     1       9.097  -4.844  26.442  0.00  0.00    -0.197 NA
ENDROOT
TORSDOF 0
ENDMDL
MODEL 9
REMARK VINA RESULT:      -4.2      2.260      2.930
REMARK  Name = 
REMARK  0 active torsions:
REMARK  status: ('A' for Active; 'I' for Inactive)
REMARK                            x       y       z     vdW  Elec       q    Type
REMARK                         _______ _______ _______ _____ _____    ______ ____
ROOT
ATOM      1  O   UNL     1       9.426   0.196  21.050  0.00  0.00    -0.265 OA
ATOM      2  C   UNL     1       9.548  -0.409  22.105  0.00  0.00    +0.284 A 
ATOM      3  C   UNL     1       9.398   0.263  23.379  0.00  0.00    +0.102 A 
ATOM      4  C   UNL     1       9.625  -0.488  24.618  0.00  0.00    +0.161 A 
ATOM      5  N   UNL     1       9.504   0.356  25.712  0.00  0.00    -0.283 N 
ATOM      6  H   UNL     1       9.053  -0.053  26.530  0.00  0.00    +0.188 HD
ATOM      7  N   UNL     1       9.033   1.559  25.210  0.00  0.00    -0.305 N 
ATOM      8  H   UNL     1       9.451   2.414  25.590  0.00  0.00    +0.186 HD
ATOM      9  N   UNL     1       9.866  -1.751  24.600  0.00  0.00    -0.216 NA
ATOM     10  C   UNL     1       9.950  -2.331  23.358  0.00  0.00    +0.227 A 
ATOM     11  C   UNL     1       9.075   1.485  23.821  0.00  0.00    +0.118 A 
ATOM     12  N   UNL     1       9.818  -1.749  22.207  0.00  0.00    -0.197 NA
ENDROOT
TORSDOF 0
ENDMDL
