MODEL 1
REMARK VINA RESULT:      -6.6      0.000      0.000
REMARK  Name = 
REMARK  6 active torsions:
REMARK  status: ('A' for Active; 'I' for Inactive)
REMARK    1  A    between atoms: C_1  and  C_2
REMARK    2  A    between atoms: N_8  and  C_9
REMARK    3  A    between atoms: C_9  and  C_10
REMARK    4  A    between atoms: C_10  and  C_11
REMARK    5  A    between atoms: C_11  and  N_12
REMARK    6  A    between atoms: C_22  and  C_23
REMARK                            x       y       z     vdW  Elec       q    Type
REMARK                         _______ _______ _______ _____ _____    ______ ____
ROOT
ATOM      1  C   UNL     1      10.182   5.997  23.374  0.00  0.00    +0.044 C 
ATOM      2  C   UNL     1       9.390   4.992  24.162  0.00  0.00    -0.050 A 
ATOM      3  C   UNL     1       8.515   5.471  25.138  0.00  0.00    +0.005 A 
ATOM      4  C   UNL     1       7.793   4.595  25.946  0.00  0.00    +0.027 A 
ATOM      5  C   UNL     1       7.964   3.210  25.770  0.00  0.00    +0.050 A 
ATOM      6  N   UNL     1       7.395   2.144  26.469  0.00  0.00    -0.340 N 
ATOM      7  C   UNL     1       7.869   0.940  25.988  0.00  0.00    +0.051 A 
ATOM      8  C   UNL     1       7.650  -0.391  26.371  0.00  0.00    +0.030 A 
ATOM      9  C   UNL     1       8.325  -1.420  25.704  0.00  0.00    -0.035 A 
ATOM     10  C   UNL     1       8.059  -2.847  26.076  0.00  0.00    +0.044 C 
ATOM     11  C   UNL     1       9.112  -1.040  24.613  0.00  0.00    +0.055 A 
ATOM     12  C   UNL     1       9.880  -1.897  23.744  0.00  0.00    +0.260 A 
ATOM     13  N   UNL     1      10.217  -1.073  22.710  0.00  0.00    -0.289 N 
ATOM     14  H   UNL     1      10.708  -1.420  21.905  0.00  0.00    +0.172 HD
ATOM     15  C   UNL     1       9.934   0.261  22.877  0.00  0.00    +0.260 A 
ATOM     16  O   UNL     1      10.202   1.101  22.035  0.00  0.00    -0.267 OA
ATOM     17  O   UNL     1      10.245  -3.065  23.821  0.00  0.00    -0.267 OA
ATOM     18  C   UNL     1       9.253   0.290  24.132  0.00  0.00    +0.062 A 
ATOM     19  C   UNL     1       8.663   1.304  24.932  0.00  0.00    +0.021 A 
ATOM     20  C   UNL     1       8.806   2.686  24.766  0.00  0.00    +0.009 A 
ATOM     21  C   UNL     1       9.521   3.601  23.955  0.00  0.00    +0.014 A 
ENDROOT
BRANCH   6  22
ATOM     22  C   UNL     1       6.380   2.284  27.500  0.00  0.00    +0.123 C 
BRANCH  22  23
ATOM     23  C   UNL     1       6.872   2.659  28.898  0.00  0.00    +0.036 C 
BRANCH  23  24
ATOM     24  C   UNL     1       7.058   1.473  29.837  0.00  0.00    +0.079 C 
BRANCH  24  25
ATOM     25  N   UNL     1       8.470   1.103  29.843  0.00  0.00    -0.330 NA
ATOM     26  H   UNL     1       8.806   1.035  30.803  0.00  0.00    +0.118 HD
ATOM     27  H   UNL     1       8.596   0.183  29.424  0.00  0.00    +0.118 HD
ENDBRANCH  24  25
ENDBRANCH  23  24
ENDBRANCH  22  23
ENDBRANCH   6  22
TORSDOF 4
ENDMDL
MODEL 2
REMARK VINA RESULT:      -6.5      3.675      5.959
REMARK  Name = 
REMARK  6 active torsions:
REMARK  status: ('A' for Active; 'I' for Inactive)
REMARK    1  A    between atoms: C_1  and  C_2
REMARK    2  A    between atoms: N_8  and  C_9
REMARK    3  A    between atoms: C_9  and  C_10
REMARK    4  A    between atoms: C_10  and  C_11
REMARK    5  A    between atoms: C_11  and  N_12
REMARK    6  A    between atoms: C_22  and  C_23
REMARK                            x       y       z     vdW  Elec       q    Type
REMARK                         _______ _______ _______ _____ _____    ______ ____
ROOT
ATOM      1  C   UNL     1       5.065   2.372  26.756  0.00  0.00    +0.044 C 
ATOM      2  C   UNL     1       5.974   1.450  25.991  0.00  0.00    -0.050 A 
ATOM      3  C   UNL     1       7.271   1.887  25.723  0.00  0.00    +0.005 A 
ATOM      4  C   UNL     1       8.148   1.111  24.969  0.00  0.00    +0.027 A 
ATOM      5  C   UNL     1       7.703  -0.127  24.469  0.00  0.00    +0.050 A 
ATOM      6  N   UNL     1       8.367  -1.057  23.667  0.00  0.00    -0.340 N 
ATOM      7  C   UNL     1       7.542  -2.125  23.378  0.00  0.00    +0.051 A 
ATOM      8  C   UNL     1       7.710  -3.274  22.591  0.00  0.00    +0.030 A 
ATOM      9  C   UNL     1       6.648  -4.176  22.452  0.00  0.00    -0.035 A 
ATOM     10  C   UNL     1       6.837  -5.428  21.652  0.00  0.00    +0.044 C 
ATOM     11  C   UNL     1       5.503  -3.907  23.207  0.00  0.00    +0.055 A 
ATOM     12  C   UNL     1       4.291  -4.685  23.271  0.00  0.00    +0.260 A 
ATOM     13  N   UNL     1       3.630  -4.149  24.337  0.00  0.00    -0.289 N 
ATOM     14  H   UNL     1       2.766  -4.542  24.667  0.00  0.00    +0.172 HD
ATOM     15  C   UNL     1       4.160  -2.997  24.866  0.00  0.00    +0.260 A 
ATOM     16  O   UNL     1       3.653  -2.411  25.807  0.00  0.00    -0.267 OA
ATOM     17  O   UNL     1       3.834  -5.589  22.580  0.00  0.00    -0.267 OA
ATOM     18  C   UNL     1       5.354  -2.815  24.105  0.00  0.00    +0.062 A 
ATOM     19  C   UNL     1       6.404  -1.859  24.096  0.00  0.00    +0.021 A 
ATOM     20  C   UNL     1       6.414  -0.624  24.755  0.00  0.00    +0.009 A 
ATOM     21  C   UNL     1       5.547   0.185  25.531  0.00  0.00    +0.014 A 
ENDROOT
BRANCH   6  22
ATOM     22  C   UNL     1       9.760  -0.952  23.266  0.00  0.00    +0.123 C 
BRANCH  22  23
ATOM     23  C   UNL     1      10.028  -0.417  21.859  0.00  0.00    +0.036 C 
BRANCH  23  24
ATOM     24  C   UNL     1       9.103   0.718  21.433  0.00  0.00    +0.079 C 
BRANCH  24  25
ATOM     25  N   UNL     1       9.817   1.982  21.591  0.00  0.00    -0.330 NA
ATOM     26  H   UNL     1       9.201   2.759  21.354  0.00  0.00    +0.118 HD
ATOM     27  H   UNL     1      10.093   2.113  22.563  0.00  0.00    +0.118 HD
ENDBRANCH  24  25
ENDBRANCH  23  24
ENDBRANCH  22  23
ENDBRANCH   6  22
TORSDOF 4
ENDMDL
MODEL 3
REMARK VINA RESULT:      -6.4      3.384      7.626
REMARK  Name = 
REMARK  6 active torsions:
REMARK  status: ('A' for Active; 'I' for Inactive)
REMARK    1  A    between atoms: C_1  and  C_2
REMARK    2  A    between atoms: N_8  and  C_9
REMARK    3  A    between atoms: C_9  and  C_10
REMARK    4  A    between atoms: C_10  and  C_11
REMARK    5  A    between atoms: C_11  and  N_12
REMARK    6  A    between atoms: C_22  and  C_23
REMARK                            x       y       z     vdW  Elec       q    Type
REMARK                         _______ _______ _______ _____ _____    ______ ____
ROOT
ATOM      1  C   UNL     1       5.283  -4.916  29.177  0.00  0.00    +0.044 C 
ATOM      2  C   UNL     1       5.815  -4.857  27.772  0.00  0.00    -0.050 A 
ATOM      3  C   UNL     1       5.549  -5.935  26.927  0.00  0.00    +0.005 A 
ATOM      4  C   UNL     1       6.060  -5.974  25.632  0.00  0.00    +0.027 A 
ATOM      5  C   UNL     1       6.861  -4.908  25.184  0.00  0.00    +0.050 A 
ATOM      6  N   UNL     1       7.513  -4.733  23.962  0.00  0.00    -0.340 N 
ATOM      7  C   UNL     1       8.226  -3.551  23.957  0.00  0.00    +0.051 A 
ATOM      8  C   UNL     1       9.069  -2.950  23.011  0.00  0.00    +0.030 A 
ATOM      9  C   UNL     1       9.699  -1.739  23.320  0.00  0.00    -0.035 A 
ATOM     10  C   UNL     1      10.562  -1.068  22.295  0.00  0.00    +0.044 C 
ATOM     11  C   UNL     1       9.356  -1.156  24.543  0.00  0.00    +0.055 A 
ATOM     12  C   UNL     1       9.833   0.093  25.084  0.00  0.00    +0.260 A 
ATOM     13  N   UNL     1       8.995   0.320  26.136  0.00  0.00    -0.289 N 
ATOM     14  H   UNL     1       9.047   1.168  26.672  0.00  0.00    +0.172 HD
ATOM     15  C   UNL     1       8.150  -0.710  26.474  0.00  0.00    +0.260 A 
ATOM     16  O   UNL     1       7.366  -0.639  27.405  0.00  0.00    -0.267 OA
ATOM     17  O   UNL     1      10.767   0.833  24.795  0.00  0.00    -0.267 OA
ATOM     18  C   UNL     1       8.413  -1.685  25.465  0.00  0.00    +0.062 A 
ATOM     19  C   UNL     1       7.915  -2.981  25.165  0.00  0.00    +0.021 A 
ATOM     20  C   UNL     1       7.118  -3.780  25.992  0.00  0.00    +0.009 A 
ATOM     21  C   UNL     1       6.578  -3.765  27.302  0.00  0.00    +0.014 A 
ENDROOT
BRANCH   6  22
ATOM     22  C   UNL     1       7.387  -5.631  22.826  0.00  0.00    +0.123 C 
BRANCH  22  23
ATOM     23  C   UNL     1       6.122  -5.488  21.980  0.00  0.00    +0.036 C 
BRANCH  23  24
ATOM     24  C   UNL     1       6.080  -4.229  21.120  0.00  0.00    +0.079 C 
BRANCH  24  25
ATOM     25  N   UNL     1       5.327  -3.204  21.837  0.00  0.00    -0.330 NA
ATOM     26  H   UNL     1       5.904  -2.806  22.577  0.00  0.00    +0.118 HD
ATOM     27  H   UNL     1       5.088  -2.438  21.209  0.00  0.00    +0.118 HD
ENDBRANCH  24  25
ENDBRANCH  23  24
ENDBRANCH  22  23
ENDBRANCH   6  22
TORSDOF 4
ENDMDL
MODEL 4
REMARK VINA RESULT:      -6.4      3.777      6.465
REMARK  Name = 
REMARK  6 active torsions:
REMARK  status: ('A' for Active; 'I' for Inactive)
REMARK    1  A    between atoms: C_1  and  C_2
REMARK    2  A    between atoms: N_8  and  C_9
REMARK    3  A    between atoms: C_9  and  C_10
REMARK    4  A    between atoms: C_10  and  C_11
REMARK    5  A    between atoms: C_11  and  N_12
REMARK    6  A    between atoms: C_22  and  C_23
REMARK                            x       y       z     vdW  Elec       q    Type
REMARK                         _______ _______ _______ _____ _____    ______ ____
ROOT
ATOM      1  C   UNL     1       6.855   0.682  28.249  0.00  0.00    +0.044 C 
ATOM      2  C   UNL     1       7.382  -0.055  27.049  0.00  0.00    -0.050 A 
ATOM      3  C   UNL     1       8.353   0.574  26.270  0.00  0.00    +0.005 A 
ATOM      4  C   UNL     1       8.843  -0.025  25.112  0.00  0.00    +0.027 A 
ATOM      5  C   UNL     1       8.337  -1.281  24.730  0.00  0.00    +0.050 A 
ATOM      6  N   UNL     1       8.633  -2.059  23.609  0.00  0.00    -0.340 N 
ATOM      7  C   UNL     1       7.876  -3.214  23.606  0.00  0.00    +0.051 A 
ATOM      8  C   UNL     1       7.764  -4.278  22.700  0.00  0.00    +0.030 A 
ATOM      9  C   UNL     1       6.854  -5.310  22.958  0.00  0.00    -0.035 A 
ATOM     10  C   UNL     1       6.765  -6.474  22.018  0.00  0.00    +0.044 C 
ATOM     11  C   UNL     1       6.178  -5.250  24.179  0.00  0.00    +0.055 A 
ATOM     12  C   UNL     1       5.218  -6.193  24.699  0.00  0.00    +0.260 A 
ATOM     13  N   UNL     1       5.087  -5.820  26.005  0.00  0.00    -0.289 N 
ATOM     14  H   UNL     1       4.522  -6.349  26.645  0.00  0.00    +0.172 HD
ATOM     15  C   UNL     1       5.690  -4.638  26.363  0.00  0.00    +0.260 A 
ATOM     16  O   UNL     1       5.630  -4.186  27.494  0.00  0.00    -0.267 OA
ATOM     17  O   UNL     1       4.580  -7.109  24.193  0.00  0.00    -0.267 OA
ATOM     18  C   UNL     1       6.364  -4.245  25.167  0.00  0.00    +0.062 A 
ATOM     19  C   UNL     1       7.189  -3.153  24.791  0.00  0.00    +0.021 A 
ATOM     20  C   UNL     1       7.387  -1.970  25.513  0.00  0.00    +0.009 A 
ATOM     21  C   UNL     1       6.913  -1.339  26.690  0.00  0.00    +0.014 A 
ENDROOT
BRANCH   6  22
ATOM     22  C   UNL     1       9.657  -1.736  22.629  0.00  0.00    +0.123 C 
BRANCH  22  23
ATOM     23  C   UNL     1       9.247  -0.795  21.497  0.00  0.00    +0.036 C 
BRANCH  23  24
ATOM     24  C   UNL     1       9.639   0.662  21.719  0.00  0.00    +0.079 C 
BRANCH  24  25
ATOM     25  N   UNL     1       8.656   1.512  21.054  0.00  0.00    -0.330 NA
ATOM     26  H   UNL     1       8.861   1.561  20.056  0.00  0.00    +0.118 HD
ATOM     27  H   UNL     1       7.725   1.110  21.142  0.00  0.00    +0.118 HD
ENDBRANCH  24  25
ENDBRANCH  23  24
ENDBRANCH  22  23
ENDBRANCH   6  22
TORSDOF 4
ENDMDL
MODEL 5
REMARK VINA RESULT:      -6.2      3.793      6.972
REMARK  Name = 
REMARK  6 active torsions:
REMARK  status: ('A' for Active; 'I' for Inactive)
REMARK    1  A    between atoms: C_1  and  C_2
REMARK    2  A    between atoms: N_8  and  C_9
REMARK    3  A    between atoms: C_9  and  C_10
REMARK    4  A    between atoms: C_10  and  C_11
REMARK    5  A    between atoms: C_11  and  N_12
REMARK    6  A    between atoms: C_22  and  C_23
REMARK                            x       y       z     vdW  Elec       q    Type
REMARK                         _______ _______ _______ _____ _____    ______ ____
ROOT
ATOM      1  C   UNL     1       6.205  -5.940  20.397  0.00  0.00    +0.044 C 
ATOM      2  C   UNL     1       6.280  -5.537  21.844  0.00  0.00    -0.050 A 
ATOM      3  C   UNL     1       5.560  -6.292  22.770  0.00  0.00    +0.005 A 
ATOM      4  C   UNL     1       5.537  -5.942  24.118  0.00  0.00    +0.027 A 
ATOM      5  C   UNL     1       6.247  -4.802  24.537  0.00  0.00    +0.050 A 
ATOM      6  N   UNL     1       6.347  -4.228  25.806  0.00  0.00    -0.340 N 
ATOM      7  C   UNL     1       7.123  -3.087  25.763  0.00  0.00    +0.051 A 
ATOM      8  C   UNL     1       7.482  -2.142  26.734  0.00  0.00    +0.030 A 
ATOM      9  C   UNL     1       8.264  -1.040  26.368  0.00  0.00    -0.035 A 
ATOM     10  C   UNL     1       8.692  -0.053  27.411  0.00  0.00    +0.044 C 
ATOM     11  C   UNL     1       8.721  -1.016  25.047  0.00  0.00    +0.055 A 
ATOM     12  C   UNL     1       9.560  -0.020  24.427  0.00  0.00    +0.260 A 
ATOM     13  N   UNL     1       9.926  -0.606  23.251  0.00  0.00    -0.289 N 
ATOM     14  H   UNL     1      10.577  -0.164  22.627  0.00  0.00    +0.172 HD
ATOM     15  C   UNL     1       9.284  -1.779  22.930  0.00  0.00    +0.260 A 
ATOM     16  O   UNL     1       9.507  -2.389  21.899  0.00  0.00    -0.267 OA
ATOM     17  O   UNL     1       9.898   1.114  24.748  0.00  0.00    -0.267 OA
ATOM     18  C   UNL     1       8.471  -2.024  24.077  0.00  0.00    +0.062 A 
ATOM     19  C   UNL     1       7.557  -3.040  24.463  0.00  0.00    +0.021 A 
ATOM     20  C   UNL     1       7.022  -4.037  23.639  0.00  0.00    +0.009 A 
ATOM     21  C   UNL     1       7.033  -4.423  22.276  0.00  0.00    +0.014 A 
ENDROOT
BRANCH   6  22
ATOM     22  C   UNL     1       5.782  -4.802  27.016  0.00  0.00    +0.123 C 
BRANCH  22  23
ATOM     23  C   UNL     1       6.718  -5.660  27.866  0.00  0.00    +0.036 C 
BRANCH  23  24
ATOM     24  C   UNL     1       6.040  -6.351  29.045  0.00  0.00    +0.079 C 
BRANCH  24  25
ATOM     25  N   UNL     1       5.318  -7.517  28.545  0.00  0.00    -0.330 NA
ATOM     26  H   UNL     1       5.407  -8.288  29.206  0.00  0.00    +0.118 HD
ATOM     27  H   UNL     1       4.323  -7.311  28.469  0.00  0.00    +0.118 HD
ENDBRANCH  24  25
ENDBRANCH  23  24
ENDBRANCH  22  23
ENDBRANCH   6  22
TORSDOF 4
ENDMDL
MODEL 6
REMARK VINA RESULT:      -6.0      3.646      7.415
REMARK  Name = 
REMARK  6 active torsions:
REMARK  status: ('A' for Active; 'I' for Inactive)
REMARK    1  A    between atoms: C_1  and  C_2
REMARK    2  A    between atoms: N_8  and  C_9
REMARK    3  A    between atoms: C_9  and  C_10
REMARK    4  A    between atoms: C_10  and  C_11
REMARK    5  A    between atoms: C_11  and  N_12
REMARK    6  A    between atoms: C_22  and  C_23
REMARK                            x       y       z     vdW  Elec       q    Type
REMARK                         _______ _______ _______ _____ _____    ______ ____
ROOT
ATOM      1  C   UNL     1       4.094  -3.319  28.727  0.00  0.00    +0.044 C 
ATOM      2  C   UNL     1       4.939  -3.536  27.503  0.00  0.00    -0.050 A 
ATOM      3  C   UNL     1       5.342  -4.840  27.210  0.00  0.00    +0.005 A 
ATOM      4  C   UNL     1       6.175  -5.107  26.126  0.00  0.00    +0.027 A 
ATOM      5  C   UNL     1       6.616  -4.036  25.328  0.00  0.00    +0.050 A 
ATOM      6  N   UNL     1       7.474  -4.038  24.226  0.00  0.00    -0.340 N 
ATOM      7  C   UNL     1       7.669  -2.753  23.760  0.00  0.00    +0.051 A 
ATOM      8  C   UNL     1       8.460  -2.222  22.731  0.00  0.00    +0.030 A 
ATOM      9  C   UNL     1       8.482  -0.838  22.523  0.00  0.00    -0.035 A 
ATOM     10  C   UNL     1       9.286  -0.269  21.394  0.00  0.00    +0.044 C 
ATOM     11  C   UNL     1       7.616  -0.078  23.315  0.00  0.00    +0.055 A 
ATOM     12  C   UNL     1       7.424   1.351  23.281  0.00  0.00    +0.260 A 
ATOM     13  N   UNL     1       6.300   1.533  24.034  0.00  0.00    -0.289 N 
ATOM     14  H   UNL     1       5.881   2.440  24.135  0.00  0.00    +0.172 HD
ATOM     15  C   UNL     1       5.838   0.432  24.714  0.00  0.00    +0.260 A 
ATOM     16  O   UNL     1       4.855   0.469  25.434  0.00  0.00    -0.267 OA
ATOM     17  O   UNL     1       8.057   2.274  22.783  0.00  0.00    -0.267 OA
ATOM     18  C   UNL     1       6.717  -0.606  24.281  0.00  0.00    +0.062 A 
ATOM     19  C   UNL     1       6.841  -1.995  24.547  0.00  0.00    +0.021 A 
ATOM     20  C   UNL     1       6.197  -2.710  25.564  0.00  0.00    +0.009 A 
ATOM     21  C   UNL     1       5.344  -2.470  26.669  0.00  0.00    +0.014 A 
ENDROOT
BRANCH   6  22
ATOM     22  C   UNL     1       8.016  -5.236  23.606  0.00  0.00    +0.123 C 
BRANCH  22  23
ATOM     23  C   UNL     1       7.411  -5.645  22.264  0.00  0.00    +0.036 C 
BRANCH  23  24
ATOM     24  C   UNL     1       5.934  -6.021  22.330  0.00  0.00    +0.079 C 
BRANCH  24  25
ATOM     25  N   UNL     1       5.144  -4.870  21.906  0.00  0.00    -0.330 NA
ATOM     26  H   UNL     1       5.757  -4.153  21.518  0.00  0.00    +0.118 HD
ATOM     27  H   UNL     1       4.501  -5.137  21.162  0.00  0.00    +0.118 HD
ENDBRANCH  24  25
ENDBRANCH  23  24
ENDBRANCH  22  23
ENDBRANCH   6  22
TORSDOF 4
ENDMDL
MODEL 7
REMARK VINA RESULT:      -5.8      2.791      5.973
REMARK  Name = 
REMARK  6 active torsions:
REMARK  status: ('A' for Active; 'I' for Inactive)
REMARK    1  A    between atoms: C_1  and  C_2
REMARK    2  A    between atoms: N_8  and  C_9
REMARK    3  A    between atoms: C_9  and  C_10
REMARK    4  A    between atoms: C_10  and  C_11
REMARK    5  A    between atoms: C_11  and  N_12
REMARK    6  A    between atoms: C_22  and  C_23
REMARK                            x       y       z     vdW  Elec       q    Type
REMARK                         _______ _______ _______ _____ _____    ______ ____
ROOT
ATOM      1  C   UNL     1       6.878  -6.016  21.561  0.00  0.00    +0.044 C 
ATOM      2  C   UNL     1       6.782  -4.996  22.662  0.00  0.00    -0.050 A 
ATOM      3  C   UNL     1       6.010  -5.313  23.780  0.00  0.00    +0.005 A 
ATOM      4  C   UNL     1       5.829  -4.394  24.811  0.00  0.00    +0.027 A 
ATOM      5  C   UNL     1       6.432  -3.127  24.706  0.00  0.00    +0.050 A 
ATOM      6  N   UNL     1       6.370  -2.034  25.573  0.00  0.00    -0.340 N 
ATOM      7  C   UNL     1       7.087  -0.969  25.063  0.00  0.00    +0.051 A 
ATOM      8  C   UNL     1       7.294   0.342  25.514  0.00  0.00    +0.030 A 
ATOM      9  C   UNL     1       8.052   1.226  24.736  0.00  0.00    -0.035 A 
ATOM     10  C   UNL     1       8.318   2.614  25.235  0.00  0.00    +0.044 C 
ATOM     11  C   UNL     1       8.642   0.692  23.587  0.00  0.00    +0.055 A 
ATOM     12  C   UNL     1       9.488   1.372  22.638  0.00  0.00    +0.260 A 
ATOM     13  N   UNL     1      10.003   0.353  21.890  0.00  0.00    -0.289 N 
ATOM     14  H   UNL     1      10.691   0.524  21.179  0.00  0.00    +0.172 HD
ATOM     15  C   UNL     1       9.459  -0.891  22.101  0.00  0.00    +0.260 A 
ATOM     16  O   UNL     1       9.819  -1.879  21.484  0.00  0.00    -0.267 OA
ATOM     17  O   UNL     1       9.731   2.554  22.423  0.00  0.00    -0.267 OA
ATOM     18  C   UNL     1       8.545  -0.664  23.174  0.00  0.00    +0.062 A 
ATOM     19  C   UNL     1       7.650  -1.476  23.921  0.00  0.00    +0.021 A 
ATOM     20  C   UNL     1       7.255  -2.783  23.613  0.00  0.00    +0.009 A 
ATOM     21  C   UNL     1       7.427  -3.742  22.584  0.00  0.00    +0.014 A 
ENDROOT
BRANCH   6  22
ATOM     22  C   UNL     1       5.714  -2.048  26.870  0.00  0.00    +0.123 C 
BRANCH  22  23
ATOM     23  C   UNL     1       4.256  -1.590  26.903  0.00  0.00    +0.036 C 
BRANCH  23  24
ATOM     24  C   UNL     1       4.051  -0.189  27.469  0.00  0.00    +0.079 C 
BRANCH  24  25
ATOM     25  N   UNL     1       3.785   0.724  26.361  0.00  0.00    -0.330 NA
ATOM     26  H   UNL     1       3.406   1.600  26.718  0.00  0.00    +0.118 HD
ATOM     27  H   UNL     1       4.652   0.956  25.879  0.00  0.00    +0.118 HD
ENDBRANCH  24  25
ENDBRANCH  23  24
ENDBRANCH  22  23
ENDBRANCH   6  22
TORSDOF 4
ENDMDL
MODEL 8
REMARK VINA RESULT:      -5.7      3.969      5.526
REMARK  Name = 
REMARK  6 active torsions:
REMARK  status: ('A' for Active; 'I' for Inactive)
REMARK    1  A    between atoms: C_1  and  C_2
REMARK    2  A    between atoms: N_8  and  C_9
REMARK    3  A    between atoms: C_9  and  C_10
REMARK    4  A    between atoms: C_10  and  C_11
REMARK    5  A    between atoms: C_11  and  N_12
REMARK    6  A    between atoms: C_22  and  C_23
REMARK                            x       y       z     vdW  Elec       q    Type
REMARK                         _______ _______ _______ _____ _____    ______ ____
ROOT
ATOM      1  C   UNL     1       9.439  -0.715  21.417  0.00  0.00    +0.044 C 
ATOM      2  C   UNL     1       8.335  -0.815  22.432  0.00  0.00    -0.050 A 
ATOM      3  C   UNL     1       8.066   0.306  23.218  0.00  0.00    +0.005 A 
ATOM      4  C   UNL     1       7.097   0.266  24.217  0.00  0.00    +0.027 A 
ATOM      5  C   UNL     1       6.392  -0.932  24.433  0.00  0.00    +0.050 A 
ATOM      6  N   UNL     1       5.415  -1.235  25.384  0.00  0.00    -0.340 N 
ATOM      7  C   UNL     1       5.012  -2.550  25.264  0.00  0.00    +0.051 A 
ATOM      8  C   UNL     1       4.112  -3.341  25.993  0.00  0.00    +0.030 A 
ATOM      9  C   UNL     1       3.943  -4.687  25.649  0.00  0.00    -0.035 A 
ATOM     10  C   UNL     1       2.948  -5.525  26.392  0.00  0.00    +0.044 C 
ATOM     11  C   UNL     1       4.631  -5.129  24.515  0.00  0.00    +0.055 A 
ATOM     12  C   UNL     1       4.608  -6.449  23.934  0.00  0.00    +0.260 A 
ATOM     13  N   UNL     1       5.207  -6.267  22.721  0.00  0.00    -0.289 N 
ATOM     14  H   UNL     1       5.274  -7.015  22.054  0.00  0.00    +0.172 HD
ATOM     15  C   UNL     1       5.792  -5.042  22.508  0.00  0.00    +0.260 A 
ATOM     16  O   UNL     1       6.375  -4.761  21.475  0.00  0.00    -0.267 OA
ATOM     17  O   UNL     1       4.222  -7.540  24.337  0.00  0.00    -0.267 OA
ATOM     18  C   UNL     1       5.454  -4.316  23.691  0.00  0.00    +0.062 A 
ATOM     19  C   UNL     1       5.700  -3.000  24.167  0.00  0.00    +0.021 A 
ATOM     20  C   UNL     1       6.603  -2.075  23.632  0.00  0.00    +0.009 A 
ATOM     21  C   UNL     1       7.590  -2.001  22.618  0.00  0.00    +0.014 A 
ENDROOT
BRANCH   6  22
ATOM     22  C   UNL     1       4.844  -0.273  26.312  0.00  0.00    +0.123 C 
BRANCH  22  23
ATOM     23  C   UNL     1       5.502  -0.179  27.689  0.00  0.00    +0.036 C 
BRANCH  23  24
ATOM     24  C   UNL     1       6.508   0.958  27.827  0.00  0.00    +0.079 C 
BRANCH  24  25
ATOM     25  N   UNL     1       7.852   0.389  27.833  0.00  0.00    -0.330 NA
ATOM     26  H   UNL     1       7.835  -0.541  27.415  0.00  0.00    +0.118 HD
ATOM     27  H   UNL     1       8.478   0.954  27.261  0.00  0.00    +0.118 HD
ENDBRANCH  24  25
ENDBRANCH  23  24
ENDBRANCH  22  23
ENDBRANCH   6  22
TORSDOF 4
ENDMDL
MODEL 9
REMARK VINA RESULT:      -5.6      5.245      8.442
REMARK  Name = 
REMARK  6 active torsions:
REMARK  status: ('A' for Active; 'I' for Inactive)
REMARK    1  A    between atoms: C_1  and  C_2
REMARK    2  A    between atoms: N_8  and  C_9
REMARK    3  A    between atoms: C_9  and  C_10
REMARK    4  A    between atoms: C_10  and  C_11
REMARK    5  A    between atoms: C_11  and  N_12
REMARK    6  A    between atoms: C_22  and  C_23
REMARK                            x       y       z     vdW  Elec       q    Type
REMARK                         _______ _______ _______ _____ _____    ______ ____
ROOT
ATOM      1  C   UNL     1       6.068  -6.016  20.705  0.00  0.00    +0.044 C 
ATOM      2  C   UNL     1       6.439  -5.491  22.064  0.00  0.00    -0.050 A 
ATOM      3  C   UNL     1       7.568  -4.678  22.165  0.00  0.00    +0.005 A 
ATOM      4  C   UNL     1       8.003  -4.205  23.401  0.00  0.00    +0.027 A 
ATOM      5  C   UNL     1       7.289  -4.566  24.558  0.00  0.00    +0.050 A 
ATOM      6  N   UNL     1       7.542  -4.259  25.896  0.00  0.00    -0.340 N 
ATOM      7  C   UNL     1       6.603  -4.852  26.716  0.00  0.00    +0.051 A 
ATOM      8  C   UNL     1       6.443  -4.891  28.109  0.00  0.00    +0.030 A 
ATOM      9  C   UNL     1       5.391  -5.631  28.661  0.00  0.00    -0.035 A 
ATOM     10  C   UNL     1       5.186  -5.637  30.145  0.00  0.00    +0.044 C 
ATOM     11  C   UNL     1       4.498  -6.211  27.755  0.00  0.00    +0.055 A 
ATOM     12  C   UNL     1       3.323  -6.991  28.058  0.00  0.00    +0.260 A 
ATOM     13  N   UNL     1       2.680  -7.067  26.858  0.00  0.00    -0.289 N 
ATOM     14  H   UNL     1       1.779  -7.504  26.775  0.00  0.00    +0.172 HD
ATOM     15  C   UNL     1       3.372  -6.602  25.765  0.00  0.00    +0.260 A 
ATOM     16  O   UNL     1       2.915  -6.633  24.635  0.00  0.00    -0.267 OA
ATOM     17  O   UNL     1       2.917  -7.539  29.077  0.00  0.00    -0.267 OA
ATOM     18  C   UNL     1       4.571  -6.084  26.342  0.00  0.00    +0.062 A 
ATOM     19  C   UNL     1       5.734  -5.445  25.837  0.00  0.00    +0.021 A 
ATOM     20  C   UNL     1       6.118  -5.351  24.494  0.00  0.00    +0.009 A 
ATOM     21  C   UNL     1       5.695  -5.811  23.223  0.00  0.00    +0.014 A 
ENDROOT
BRANCH   6  22
ATOM     22  C   UNL     1       8.596  -3.368  26.351  0.00  0.00    +0.123 C 
BRANCH  22  23
ATOM     23  C   UNL     1       8.272  -1.874  26.360  0.00  0.00    +0.036 C 
BRANCH  23  24
ATOM     24  C   UNL     1       8.911  -1.086  25.222  0.00  0.00    +0.079 C 
BRANCH  24  25
ATOM     25  N   UNL     1       9.721  -0.016  25.798  0.00  0.00    -0.330 NA
ATOM     26  H   UNL     1       9.753   0.776  25.157  0.00  0.00    +0.118 HD
ATOM     27  H   UNL     1       9.298   0.323  26.660  0.00  0.00    +0.118 HD
ENDBRANCH  24  25
ENDBRANCH  23  24
ENDBRANCH  22  23
ENDBRANCH   6  22
TORSDOF 4
ENDMDL
