MODEL 1
REMARK VINA RESULT:      -4.2      0.000      0.000
REMARK  Name = 
REMARK  1 active torsions:
REMARK  status: ('A' for Active; 'I' for Inactive)
REMARK    1  A    between atoms: O_1  and  C_2
REMARK                            x       y       z     vdW  Elec       q    Type
REMARK                         _______ _______ _______ _____ _____    ______ ____
ROOT
ATOM      1  C   UNL     1       9.993   1.069  22.152  0.00  0.00    +0.117 A 
ATOM      2  C   UNL     1      10.312   0.918  23.498  0.00  0.00    +0.046 A 
ATOM      3  C   UNL     1      10.055  -0.295  24.139  0.00  0.00    +0.018 A 
ATOM      4  C   UNL     1       9.479  -1.345  23.422  0.00  0.00    +0.014 A 
ATOM      5  I   UNL     1       9.087  -3.151  24.373  0.00  0.00    -0.044 I 
ATOM      6  C   UNL     1       9.163  -1.190  22.071  0.00  0.00    +0.018 A 
ATOM      7  C   UNL     1       9.422   0.025  21.432  0.00  0.00    +0.046 A 
ENDROOT
BRANCH   1   8
ATOM      8  O   UNL     1      10.258   2.274  21.570  0.00  0.00    -0.507 OA
ATOM      9  H   UNL     1      10.685   2.117  20.712  0.00  0.00    +0.292 HD
ENDBRANCH   1   8
TORSDOF 1
ENDMDL
MODEL 2
REMARK VINA RESULT:      -4.2      0.042      1.713
REMARK  Name = 
REMARK  1 active torsions:
REMARK  status: ('A' for Active; 'I' for Inactive)
REMARK    1  A    between atoms: O_1  and  C_2
REMARK                            x       y       z     vdW  Elec       q    Type
REMARK                         _______ _______ _______ _____ _____    ______ ____
ROOT
ATOM      1  C   UNL     1      10.019   1.095  22.196  0.00  0.00    +0.117 A 
ATOM      2  C   UNL     1       9.457   0.054  21.464  0.00  0.00    +0.046 A 
ATOM      3  C   UNL     1       9.188  -1.165  22.087  0.00  0.00    +0.018 A 
ATOM      4  C   UNL     1       9.486  -1.328  23.441  0.00  0.00    +0.014 A 
ATOM      5  I   UNL     1       9.094  -3.145  24.372  0.00  0.00    -0.044 I 
ATOM      6  C   UNL     1      10.047  -0.280  24.173  0.00  0.00    +0.018 A 
ATOM      7  C   UNL     1      10.315   0.939  23.547  0.00  0.00    +0.046 A 
ENDROOT
BRANCH   1   8
ATOM      8  O   UNL     1      10.269   2.266  21.544  0.00  0.00    -0.507 OA
ATOM      9  H   UNL     1      10.638   2.062  20.669  0.00  0.00    +0.292 HD
ENDBRANCH   1   8
TORSDOF 1
ENDMDL
MODEL 3
REMARK VINA RESULT:      -4.0      3.039      3.759
REMARK  Name = 
REMARK  1 active torsions:
REMARK  status: ('A' for Active; 'I' for Inactive)
REMARK    1  A    between atoms: O_1  and  C_2
REMARK                            x       y       z     vdW  Elec       q    Type
REMARK                         _______ _______ _______ _____ _____    ______ ____
ROOT
ATOM      1  C   UNL     1      10.016  -0.353  22.168  0.00  0.00    +0.117 A 
ATOM      2  C   UNL     1       9.269   0.551  21.418  0.00  0.00    +0.046 A 
ATOM      3  C   UNL     1       8.994   1.818  21.934  0.00  0.00    +0.018 A 
ATOM      4  C   UNL     1       9.472   2.167  23.199  0.00  0.00    +0.014 A 
ATOM      5  I   UNL     1       9.059   4.050  23.975  0.00  0.00    -0.044 I 
ATOM      6  C   UNL     1      10.224   1.258  23.946  0.00  0.00    +0.018 A 
ATOM      7  C   UNL     1      10.497  -0.010  23.427  0.00  0.00    +0.046 A 
ENDROOT
BRANCH   1   8
ATOM      8  O   UNL     1      10.254  -1.580  21.625  0.00  0.00    -0.507 OA
ATOM      9  H   UNL     1      10.616  -2.160  22.315  0.00  0.00    +0.292 HD
ENDBRANCH   1   8
TORSDOF 1
ENDMDL
MODEL 4
REMARK VINA RESULT:      -4.0      3.037      3.421
REMARK  Name = 
REMARK  1 active torsions:
REMARK  status: ('A' for Active; 'I' for Inactive)
REMARK    1  A    between atoms: O_1  and  C_2
REMARK                            x       y       z     vdW  Elec       q    Type
REMARK                         _______ _______ _______ _____ _____    ______ ____
ROOT
ATOM      1  C   UNL     1      10.022  -0.360  22.134  0.00  0.00    +0.117 A 
ATOM      2  C   UNL     1      10.528  -0.022  23.385  0.00  0.00    +0.046 A 
ATOM      3  C   UNL     1      10.260   1.237  23.924  0.00  0.00    +0.018 A 
ATOM      4  C   UNL     1       9.485   2.146  23.201  0.00  0.00    +0.014 A 
ATOM      5  I   UNL     1       9.088   4.025  23.995  0.00  0.00    -0.044 I 
ATOM      6  C   UNL     1       8.977   1.801  21.947  0.00  0.00    +0.018 A 
ATOM      7  C   UNL     1       9.247   0.540  21.411  0.00  0.00    +0.046 A 
ENDROOT
BRANCH   1   8
ATOM      8  O   UNL     1      10.315  -1.599  21.646  0.00  0.00    -0.507 OA
ATOM      9  H   UNL     1      10.972  -2.015  22.229  0.00  0.00    +0.292 HD
ENDBRANCH   1   8
TORSDOF 1
ENDMDL
MODEL 5
REMARK VINA RESULT:      -3.8      1.371      2.274
REMARK  Name = 
REMARK  1 active torsions:
REMARK  status: ('A' for Active; 'I' for Inactive)
REMARK    1  A    between atoms: O_1  and  C_2
REMARK                            x       y       z     vdW  Elec       q    Type
REMARK                         _______ _______ _______ _____ _____    ______ ____
ROOT
ATOM      1  C   UNL     1       9.878   2.594  23.170  0.00  0.00    +0.117 A 
ATOM      2  C   UNL     1      10.017   1.762  22.064  0.00  0.00    +0.046 A 
ATOM      3  C   UNL     1       9.916   0.379  22.220  0.00  0.00    +0.018 A 
ATOM      4  C   UNL     1       9.677  -0.157  23.487  0.00  0.00    +0.014 A 
ATOM      5  I   UNL     1       9.534  -2.216  23.727  0.00  0.00    -0.044 I 
ATOM      6  C   UNL     1       9.536   0.682  24.594  0.00  0.00    +0.018 A 
ATOM      7  C   UNL     1       9.637   2.066  24.435  0.00  0.00    +0.046 A 
ENDROOT
BRANCH   1   8
ATOM      8  O   UNL     1       9.990   3.938  22.970  0.00  0.00    -0.507 OA
ATOM      9  H   UNL     1       9.197   4.250  22.503  0.00  0.00    +0.292 HD
ENDBRANCH   1   8
TORSDOF 1
ENDMDL
MODEL 6
REMARK VINA RESULT:      -3.6      5.052      6.138
REMARK  Name = 
REMARK  1 active torsions:
REMARK  status: ('A' for Active; 'I' for Inactive)
REMARK    1  A    between atoms: O_1  and  C_2
REMARK                            x       y       z     vdW  Elec       q    Type
REMARK                         _______ _______ _______ _____ _____    ______ ____
ROOT
ATOM      1  C   UNL     1       8.153  -4.946  26.682  0.00  0.00    +0.117 A 
ATOM      2  C   UNL     1       9.153  -5.289  25.778  0.00  0.00    +0.046 A 
ATOM      3  C   UNL     1       9.581  -4.357  24.831  0.00  0.00    +0.018 A 
ATOM      4  C   UNL     1       8.999  -3.088  24.800  0.00  0.00    +0.014 A 
ATOM      5  I   UNL     1       9.627  -1.699  23.387  0.00  0.00    -0.044 I 
ATOM      6  C   UNL     1       7.998  -2.747  25.711  0.00  0.00    +0.018 A 
ATOM      7  C   UNL     1       7.572  -3.681  26.658  0.00  0.00    +0.046 A 
ENDROOT
BRANCH   1   8
ATOM      8  O   UNL     1       7.764  -5.890  27.585  0.00  0.00    -0.507 OA
ATOM      9  H   UNL     1       8.468  -5.997  28.245  0.00  0.00    +0.292 HD
ENDBRANCH   1   8
TORSDOF 1
ENDMDL
MODEL 7
REMARK VINA RESULT:      -3.6      3.215      3.624
REMARK  Name = 
REMARK  1 active torsions:
REMARK  status: ('A' for Active; 'I' for Inactive)
REMARK    1  A    between atoms: O_1  and  C_2
REMARK                            x       y       z     vdW  Elec       q    Type
REMARK                         _______ _______ _______ _____ _____    ______ ____
ROOT
ATOM      1  C   UNL     1       9.739  -2.087  23.530  0.00  0.00    +0.117 A 
ATOM      2  C   UNL     1       8.723  -1.476  24.257  0.00  0.00    +0.046 A 
ATOM      3  C   UNL     1       8.198  -0.257  23.825  0.00  0.00    +0.018 A 
ATOM      4  C   UNL     1       8.700   0.338  22.666  0.00  0.00    +0.014 A 
ATOM      5  I   UNL     1       7.927   2.157  22.022  0.00  0.00    -0.044 I 
ATOM      6  C   UNL     1       9.718  -0.281  21.938  0.00  0.00    +0.018 A 
ATOM      7  C   UNL     1      10.241  -1.500  22.372  0.00  0.00    +0.046 A 
ENDROOT
BRANCH   1   8
ATOM      8  O   UNL     1      10.224  -3.274  23.994  0.00  0.00    -0.507 OA
ATOM      9  H   UNL     1      11.128  -3.134  24.320  0.00  0.00    +0.292 HD
ENDBRANCH   1   8
TORSDOF 1
ENDMDL
MODEL 8
REMARK VINA RESULT:      -3.5      6.038      6.775
REMARK  Name = 
REMARK  1 active torsions:
REMARK  status: ('A' for Active; 'I' for Inactive)
REMARK    1  A    between atoms: O_1  and  C_2
REMARK                            x       y       z     vdW  Elec       q    Type
REMARK                         _______ _______ _______ _____ _____    ______ ____
ROOT
ATOM      1  C   UNL     1       5.933  -5.904  22.249  0.00  0.00    +0.117 A 
ATOM      2  C   UNL     1       7.271  -5.526  22.295  0.00  0.00    +0.046 A 
ATOM      3  C   UNL     1       7.844  -5.152  23.511  0.00  0.00    +0.018 A 
ATOM      4  C   UNL     1       7.067  -5.161  24.671  0.00  0.00    +0.014 A 
ATOM      5  I   UNL     1       7.913  -4.597  26.484  0.00  0.00    -0.044 I 
ATOM      6  C   UNL     1       5.725  -5.544  24.621  0.00  0.00    +0.018 A 
ATOM      7  C   UNL     1       5.155  -5.918  23.402  0.00  0.00    +0.046 A 
ENDROOT
BRANCH   1   8
ATOM      8  O   UNL     1       5.415  -6.256  21.038  0.00  0.00    -0.507 OA
ATOM      9  H   UNL     1       5.224  -5.448  20.534  0.00  0.00    +0.292 HD
ENDBRANCH   1   8
TORSDOF 1
ENDMDL
MODEL 9
REMARK VINA RESULT:      -3.5      6.041      6.788
REMARK  Name = 
REMARK  1 active torsions:
REMARK  status: ('A' for Active; 'I' for Inactive)
REMARK    1  A    between atoms: O_1  and  C_2
REMARK                            x       y       z     vdW  Elec       q    Type
REMARK                         _______ _______ _______ _____ _____    ______ ____
ROOT
ATOM      1  C   UNL     1       5.963  -5.894  22.200  0.00  0.00    +0.117 A 
ATOM      2  C   UNL     1       5.146  -5.938  23.324  0.00  0.00    +0.046 A 
ATOM      3  C   UNL     1       5.661  -5.576  24.570  0.00  0.00    +0.018 A 
ATOM      4  C   UNL     1       6.993  -5.171  24.674  0.00  0.00    +0.014 A 
ATOM      5  I   UNL     1       7.766  -4.637  26.528  0.00  0.00    -0.044 I 
ATOM      6  C   UNL     1       7.809  -5.125  23.542  0.00  0.00    +0.018 A 
ATOM      7  C   UNL     1       7.291  -5.488  22.297  0.00  0.00    +0.046 A 
ENDROOT
BRANCH   1   8
ATOM      8  O   UNL     1       5.418  -6.262  21.005  0.00  0.00    -0.507 OA
ATOM      9  H   UNL     1       6.102  -6.198  20.318  0.00  0.00    +0.292 HD
ENDBRANCH   1   8
TORSDOF 1
ENDMDL
