MODEL 1
REMARK VINA RESULT:      -5.9      0.000      0.000
REMARK  Name = 
REMARK  20 active torsions:
REMARK  status: ('A' for Active; 'I' for Inactive)
REMARK    1  A    between atoms: C_3  and  C_4
REMARK    2  A    between atoms: C_5  and  C_28
REMARK    3  A    between atoms: C_6  and  C_7
REMARK    4  A    between atoms: C_9  and  N_13
REMARK    5  A    between atoms: C_16  and  C_17
REMARK    6  A    between atoms: C_17  and  O_19
REMARK    7  A    between atoms: O_19  and  C_20
REMARK    8  A    between atoms: C_20  and  C_21
REMARK    9  A    between atoms: C_21  and  O_22
REMARK   10  A    between atoms: O_22  and  C_23
REMARK   11  A    between atoms: C_23  and  C_24
REMARK   12  A    between atoms: C_24  and  C_25
REMARK   13  A    between atoms: C_26  and  C_27
REMARK   14  A    between atoms: C_28  and  O_30
REMARK   15  A    between atoms: O_30  and  C_31
REMARK   16  A    between atoms: C_31  and  C_32
REMARK   17  A    between atoms: C_32  and  O_33
REMARK   18  A    between atoms: O_33  and  C_34
REMARK   19  A    between atoms: C_34  and  C_35
REMARK   20  A    between atoms: C_35  and  C_36
REMARK                            x       y       z     vdW  Elec       q    Type
REMARK                         _______ _______ _______ _____ _____    ______ ____
ROOT
ATOM      1  H   UNL     1       9.666   0.896  26.707  0.00  0.00    +0.152 HD
ATOM      2  N   UNL     1       9.189   0.325  26.011  0.00  0.00    -0.321 N 
ATOM      3  C   UNL     1       9.880   0.088  24.837  0.00  0.00    +0.016 C 
ATOM      4  C   UNL     1      11.300   0.610  24.875  0.00  0.00    +0.061 C 
ATOM      5  C   UNL     1       9.245  -0.523  23.805  0.00  0.00    +0.065 C 
ATOM      6  C   UNL     1       7.781  -1.015  23.966  0.00  0.00    +0.096 C 
ATOM      7  C   UNL     1       7.116  -0.576  25.284  0.00  0.00    +0.065 C 
ATOM      8  C   UNL     1       7.847   0.079  26.222  0.00  0.00    +0.016 C 
ATOM      9  C   UNL     1       7.311   0.604  27.536  0.00  0.00    +0.061 C 
ENDROOT
BRANCH   6  10
ATOM     10  C   UNL     1       7.710  -2.535  23.734  0.00  0.00    -0.029 A 
ATOM     11  C   UNL     1       8.400  -3.436  24.563  0.00  0.00    +0.005 A 
ATOM     12  C   UNL     1       8.367  -4.812  24.310  0.00  0.00    +0.007 A 
ATOM     13  C   UNL     1       7.652  -5.315  23.224  0.00  0.00    +0.084 A 
ATOM     14  C   UNL     1       6.958  -4.429  22.394  0.00  0.00    +0.273 A 
ATOM     15  C   UNL     1       6.981  -3.049  22.644  0.00  0.00    +0.088 A 
BRANCH  14  16
ATOM     16  N   UNL     1       6.214  -4.950  21.237  0.00  0.00    +0.080 N 
ATOM     17  O   UNL     1       6.092  -6.179  21.134  0.00  0.00    +0.041 OA
ATOM     18  O   UNL     1       5.756  -4.129  20.429  0.00  0.00    -0.576 OA
ENDBRANCH  14  16
ENDBRANCH   6  10
BRANCH   7  19
ATOM     19  C   UNL     1       5.676  -0.887  25.553  0.00  0.00    +0.338 C 
ATOM     20  O   UNL     1       4.756  -0.112  25.333  0.00  0.00    -0.245 OA
BRANCH  19  21
ATOM     21  O   UNL     1       5.502  -2.098  26.144  0.00  0.00    -0.459 OA
BRANCH  21  22
ATOM     22  C   UNL     1       4.169  -2.636  26.006  0.00  0.00    +0.260 C 
BRANCH  22  23
ATOM     23  C   UNL     1       3.965  -3.518  24.774  0.00  0.00    +0.201 C 
BRANCH  23  24
ATOM     24  O   UNL     1       3.561  -4.821  25.226  0.00  0.00    -0.376 OA
BRANCH  24  25
ATOM     25  C   UNL     1       4.437  -5.859  24.784  0.00  0.00    +0.159 C 
BRANCH  25  26
ATOM     26  C   UNL     1       4.919  -6.649  26.002  0.00  0.00    +0.025 C 
ATOM     27  C   UNL     1       5.904  -5.855  26.843  0.00  0.00    +0.006 C 
ENDBRANCH  25  26
ENDBRANCH  24  25
ENDBRANCH  23  24
ENDBRANCH  22  23
ENDBRANCH  21  22
ENDBRANCH  19  21
ENDBRANCH   7  19
BRANCH   5  28
ATOM     28  C   UNL     1       9.872  -0.625  22.451  0.00  0.00    +0.338 C 
ATOM     29  O   UNL     1      10.382  -1.618  21.956  0.00  0.00    -0.245 OA
BRANCH  28  30
ATOM     30  O   UNL     1       9.943   0.612  21.902  0.00  0.00    -0.459 OA
BRANCH  30  31
ATOM     31  C   UNL     1       8.764   1.010  21.196  0.00  0.00    +0.260 C 
BRANCH  31  32
ATOM     32  C   UNL     1       8.120   2.282  21.729  0.00  0.00    +0.201 C 
BRANCH  32  33
ATOM     33  O   UNL     1       6.931   1.894  22.427  0.00  0.00    -0.376 OA
BRANCH  33  34
ATOM     34  C   UNL     1       6.706   2.671  23.601  0.00  0.00    +0.159 C 
BRANCH  34  35
ATOM     35  C   UNL     1       8.042   3.256  24.055  0.00  0.00    +0.025 C 
ATOM     36  C   UNL     1       7.995   3.719  25.501  0.00  0.00    +0.006 C 
ENDBRANCH  34  35
ENDBRANCH  33  34
ENDBRANCH  32  33
ENDBRANCH  31  32
ENDBRANCH  30  31
ENDBRANCH  28  30
ENDBRANCH   5  28
TORSDOF 16
ENDMDL
MODEL 2
REMARK VINA RESULT:      -5.5      2.003      7.175
REMARK  Name = 
REMARK  20 active torsions:
REMARK  status: ('A' for Active; 'I' for Inactive)
REMARK    1  A    between atoms: C_3  and  C_4
REMARK    2  A    between atoms: C_5  and  C_28
REMARK    3  A    between atoms: C_6  and  C_7
REMARK    4  A    between atoms: C_9  and  N_13
REMARK    5  A    between atoms: C_16  and  C_17
REMARK    6  A    between atoms: C_17  and  O_19
REMARK    7  A    between atoms: O_19  and  C_20
REMARK    8  A    between atoms: C_20  and  C_21
REMARK    9  A    between atoms: C_21  and  O_22
REMARK   10  A    between atoms: O_22  and  C_23
REMARK   11  A    between atoms: C_23  and  C_24
REMARK   12  A    between atoms: C_24  and  C_25
REMARK   13  A    between atoms: C_26  and  C_27
REMARK   14  A    between atoms: C_28  and  O_30
REMARK   15  A    between atoms: O_30  and  C_31
REMARK   16  A    between atoms: C_31  and  C_32
REMARK   17  A    between atoms: C_32  and  O_33
REMARK   18  A    between atoms: O_33  and  C_34
REMARK   19  A    between atoms: C_34  and  C_35
REMARK   20  A    between atoms: C_35  and  C_36
REMARK                            x       y       z     vdW  Elec       q    Type
REMARK                         _______ _______ _______ _____ _____    ______ ____
ROOT
ATOM      1  H   UNL     1       7.744  -5.967  26.303  0.00  0.00    +0.152 HD
ATOM      2  N   UNL     1       7.449  -5.051  25.971  0.00  0.00    -0.321 N 
ATOM      3  C   UNL     1       6.086  -4.812  25.963  0.00  0.00    +0.016 C 
ATOM      4  C   UNL     1       5.291  -5.929  26.604  0.00  0.00    +0.061 C 
ATOM      5  C   UNL     1       5.614  -3.681  25.382  0.00  0.00    +0.065 C 
ATOM      6  C   UNL     1       6.596  -2.630  24.797  0.00  0.00    +0.096 C 
ATOM      7  C   UNL     1       8.065  -3.092  24.778  0.00  0.00    +0.065 C 
ATOM      8  C   UNL     1       8.407  -4.275  25.348  0.00  0.00    +0.016 C 
ATOM      9  C   UNL     1       9.799  -4.868  25.361  0.00  0.00    +0.061 C 
ENDROOT
BRANCH   6  10
ATOM     10  C   UNL     1       6.400  -1.278  25.504  0.00  0.00    -0.029 A 
ATOM     11  C   UNL     1       6.761  -1.094  26.850  0.00  0.00    +0.005 A 
ATOM     12  C   UNL     1       6.531   0.126  27.494  0.00  0.00    +0.007 A 
ATOM     13  C   UNL     1       5.932   1.185  26.812  0.00  0.00    +0.084 A 
ATOM     14  C   UNL     1       5.572   1.017  25.471  0.00  0.00    +0.273 A 
ATOM     15  C   UNL     1       5.805  -0.201  24.816  0.00  0.00    +0.088 A 
BRANCH  14  16
ATOM     16  N   UNL     1       4.926   2.123  24.749  0.00  0.00    +0.080 N 
ATOM     17  O   UNL     1       3.701   2.258  24.874  0.00  0.00    +0.041 OA
ATOM     18  O   UNL     1       5.645   2.854  24.052  0.00  0.00    -0.576 OA
ENDBRANCH  14  16
ENDBRANCH   6  10
BRANCH   7  19
ATOM     19  C   UNL     1       9.126  -2.235  24.158  0.00  0.00    +0.338 C 
ATOM     20  O   UNL     1       9.811  -1.437  24.782  0.00  0.00    -0.245 OA
BRANCH  19  21
ATOM     21  O   UNL     1       9.196  -2.380  22.809  0.00  0.00    -0.459 OA
BRANCH  21  22
ATOM     22  C   UNL     1      10.055  -1.419  22.157  0.00  0.00    +0.260 C 
BRANCH  22  23
ATOM     23  C   UNL     1       9.314  -0.325  21.387  0.00  0.00    +0.201 C 
BRANCH  23  24
ATOM     24  O   UNL     1       9.034   0.746  22.301  0.00  0.00    -0.376 OA
BRANCH  24  25
ATOM     25  C   UNL     1      10.051   1.748  22.314  0.00  0.00    +0.159 C 
BRANCH  25  26
ATOM     26  C   UNL     1      10.274   2.207  23.755  0.00  0.00    +0.025 C 
ATOM     27  C   UNL     1       9.070   1.920  24.638  0.00  0.00    +0.006 C 
ENDBRANCH  25  26
ENDBRANCH  24  25
ENDBRANCH  23  24
ENDBRANCH  22  23
ENDBRANCH  21  22
ENDBRANCH  19  21
ENDBRANCH   7  19
BRANCH   5  28
ATOM     28  C   UNL     1       4.150  -3.466  25.166  0.00  0.00    +0.338 C 
ATOM     29  O   UNL     1       3.316  -3.206  26.020  0.00  0.00    -0.245 OA
BRANCH  28  30
ATOM     30  O   UNL     1       3.843  -3.768  23.881  0.00  0.00    -0.459 OA
BRANCH  30  31
ATOM     31  C   UNL     1       3.012  -4.924  23.731  0.00  0.00    +0.260 C 
BRANCH  31  32
ATOM     32  C   UNL     1       3.746  -6.154  23.217  0.00  0.00    +0.201 C 
BRANCH  32  33
ATOM     33  O   UNL     1       4.683  -5.708  22.231  0.00  0.00    -0.376 OA
BRANCH  33  34
ATOM     34  C   UNL     1       6.012  -6.152  22.495  0.00  0.00    +0.159 C 
BRANCH  34  35
ATOM     35  C   UNL     1       6.985  -5.111  21.945  0.00  0.00    +0.025 C 
ATOM     36  C   UNL     1       6.265  -3.868  21.452  0.00  0.00    +0.006 C 
ENDBRANCH  34  35
ENDBRANCH  33  34
ENDBRANCH  32  33
ENDBRANCH  31  32
ENDBRANCH  30  31
ENDBRANCH  28  30
ENDBRANCH   5  28
TORSDOF 16
ENDMDL
MODEL 3
REMARK VINA RESULT:      -5.3      2.353      6.976
REMARK  Name = 
REMARK  20 active torsions:
REMARK  status: ('A' for Active; 'I' for Inactive)
REMARK    1  A    between atoms: C_3  and  C_4
REMARK    2  A    between atoms: C_5  and  C_28
REMARK    3  A    between atoms: C_6  and  C_7
REMARK    4  A    between atoms: C_9  and  N_13
REMARK    5  A    between atoms: C_16  and  C_17
REMARK    6  A    between atoms: C_17  and  O_19
REMARK    7  A    between atoms: O_19  and  C_20
REMARK    8  A    between atoms: C_20  and  C_21
REMARK    9  A    between atoms: C_21  and  O_22
REMARK   10  A    between atoms: O_22  and  C_23
REMARK   11  A    between atoms: C_23  and  C_24
REMARK   12  A    between atoms: C_24  and  C_25
REMARK   13  A    between atoms: C_26  and  C_27
REMARK   14  A    between atoms: C_28  and  O_30
REMARK   15  A    between atoms: O_30  and  C_31
REMARK   16  A    between atoms: C_31  and  C_32
REMARK   17  A    between atoms: C_32  and  O_33
REMARK   18  A    between atoms: O_33  and  C_34
REMARK   19  A    between atoms: C_34  and  C_35
REMARK   20  A    between atoms: C_35  and  C_36
REMARK                            x       y       z     vdW  Elec       q    Type
REMARK                         _______ _______ _______ _____ _____    ______ ____
ROOT
ATOM      1  H   UNL     1       4.089  -1.482  27.902  0.00  0.00    +0.152 HD
ATOM      2  N   UNL     1       4.863  -2.034  27.537  0.00  0.00    -0.321 N 
ATOM      3  C   UNL     1       4.862  -3.379  27.863  0.00  0.00    +0.016 C 
ATOM      4  C   UNL     1       3.606  -3.806  28.591  0.00  0.00    +0.061 C 
ATOM      5  C   UNL     1       5.943  -4.137  27.551  0.00  0.00    +0.065 C 
ATOM      6  C   UNL     1       7.136  -3.521  26.771  0.00  0.00    +0.096 C 
ATOM      7  C   UNL     1       7.038  -1.996  26.584  0.00  0.00    +0.065 C 
ATOM      8  C   UNL     1       5.921  -1.337  26.988  0.00  0.00    +0.016 C 
ATOM      9  C   UNL     1       5.712   0.159  26.905  0.00  0.00    +0.061 C 
ENDROOT
BRANCH   6  10
ATOM     10  C   UNL     1       7.344  -4.276  25.447  0.00  0.00    -0.029 A 
ATOM     11  C   UNL     1       8.513  -5.017  25.200  0.00  0.00    +0.005 A 
ATOM     12  C   UNL     1       8.710  -5.657  23.973  0.00  0.00    +0.007 A 
ATOM     13  C   UNL     1       7.750  -5.568  22.964  0.00  0.00    +0.084 A 
ATOM     14  C   UNL     1       6.581  -4.838  23.199  0.00  0.00    +0.273 A 
ATOM     15  C   UNL     1       6.373  -4.198  24.430  0.00  0.00    +0.088 A 
BRANCH  14  16
ATOM     16  N   UNL     1       5.570  -4.726  22.137  0.00  0.00    +0.080 N 
ATOM     17  O   UNL     1       5.900  -5.053  20.988  0.00  0.00    +0.041 OA
ATOM     18  O   UNL     1       4.447  -4.306  22.451  0.00  0.00    -0.576 OA
ENDBRANCH  14  16
ENDBRANCH   6  10
BRANCH   7  19
ATOM     19  C   UNL     1       8.153  -1.233  25.937  0.00  0.00    +0.338 C 
ATOM     20  O   UNL     1       9.056  -0.685  26.554  0.00  0.00    -0.245 OA
BRANCH  19  21
ATOM     21  O   UNL     1       8.014  -1.143  24.588  0.00  0.00    -0.459 OA
BRANCH  21  22
ATOM     22  C   UNL     1       9.133  -1.671  23.845  0.00  0.00    +0.260 C 
BRANCH  22  23
ATOM     23  C   UNL     1       8.952  -1.653  22.326  0.00  0.00    +0.201 C 
BRANCH  23  24
ATOM     24  O   UNL     1       9.819  -0.641  21.790  0.00  0.00    -0.376 OA
BRANCH  24  25
ATOM     25  C   UNL     1       9.155   0.604  21.575  0.00  0.00    +0.159 C 
BRANCH  25  26
ATOM     26  C   UNL     1      10.075   1.739  22.028  0.00  0.00    +0.025 C 
ATOM     27  C   UNL     1      10.292   1.730  23.532  0.00  0.00    +0.006 C 
ENDBRANCH  25  26
ENDBRANCH  24  25
ENDBRANCH  23  24
ENDBRANCH  22  23
ENDBRANCH  21  22
ENDBRANCH  19  21
ENDBRANCH   7  19
BRANCH   5  28
ATOM     28  C   UNL     1       6.085  -5.539  28.052  0.00  0.00    +0.338 C 
ATOM     29  O   UNL     1       6.408  -5.883  29.179  0.00  0.00    -0.245 OA
BRANCH  28  30
ATOM     30  O   UNL     1       5.961  -6.397  27.010  0.00  0.00    -0.459 OA
BRANCH  30  31
ATOM     31  C   UNL     1       4.615  -6.802  26.739  0.00  0.00    +0.260 C 
BRANCH  31  32
ATOM     32  C   UNL     1       4.270  -6.863  25.258  0.00  0.00    +0.201 C 
BRANCH  32  33
ATOM     33  O   UNL     1       3.500  -8.052  25.051  0.00  0.00    -0.376 OA
BRANCH  33  34
ATOM     34  C   UNL     1       2.125  -7.778  24.792  0.00  0.00    +0.159 C 
BRANCH  34  35
ATOM     35  C   UNL     1       2.032  -6.449  24.046  0.00  0.00    +0.025 C 
ATOM     36  C   UNL     1       1.522  -6.631  22.627  0.00  0.00    +0.006 C 
ENDBRANCH  34  35
ENDBRANCH  33  34
ENDBRANCH  32  33
ENDBRANCH  31  32
ENDBRANCH  30  31
ENDBRANCH  28  30
ENDBRANCH   5  28
TORSDOF 16
ENDMDL
MODEL 4
REMARK VINA RESULT:      -5.1      2.149      4.792
REMARK  Name = 
REMARK  20 active torsions:
REMARK  status: ('A' for Active; 'I' for Inactive)
REMARK    1  A    between atoms: C_3  and  C_4
REMARK    2  A    between atoms: C_5  and  C_28
REMARK    3  A    between atoms: C_6  and  C_7
REMARK    4  A    between atoms: C_9  and  N_13
REMARK    5  A    between atoms: C_16  and  C_17
REMARK    6  A    between atoms: C_17  and  O_19
REMARK    7  A    between atoms: O_19  and  C_20
REMARK    8  A    between atoms: C_20  and  C_21
REMARK    9  A    between atoms: C_21  and  O_22
REMARK   10  A    between atoms: O_22  and  C_23
REMARK   11  A    between atoms: C_23  and  C_24
REMARK   12  A    between atoms: C_24  and  C_25
REMARK   13  A    between atoms: C_26  and  C_27
REMARK   14  A    between atoms: C_28  and  O_30
REMARK   15  A    between atoms: O_30  and  C_31
REMARK   16  A    between atoms: C_31  and  C_32
REMARK   17  A    between atoms: C_32  and  O_33
REMARK   18  A    between atoms: O_33  and  C_34
REMARK   19  A    between atoms: C_34  and  C_35
REMARK   20  A    between atoms: C_35  and  C_36
REMARK                            x       y       z     vdW  Elec       q    Type
REMARK                         _______ _______ _______ _____ _____    ______ ____
ROOT
ATOM      1  H   UNL     1       5.554  -5.613  22.974  0.00  0.00    +0.152 HD
ATOM      2  N   UNL     1       6.093  -5.006  23.589  0.00  0.00    -0.321 N 
ATOM      3  C   UNL     1       6.961  -4.124  22.970  0.00  0.00    +0.016 C 
ATOM      4  C   UNL     1       6.829  -4.129  21.463  0.00  0.00    +0.061 C 
ATOM      5  C   UNL     1       7.827  -3.404  23.728  0.00  0.00    +0.065 C 
ATOM      6  C   UNL     1       7.794  -3.515  25.277  0.00  0.00    +0.096 C 
ATOM      7  C   UNL     1       6.858  -4.618  25.804  0.00  0.00    +0.065 C 
ATOM      8  C   UNL     1       6.075  -5.309  24.936  0.00  0.00    +0.016 C 
ATOM      9  C   UNL     1       5.146  -6.443  25.312  0.00  0.00    +0.061 C 
ENDROOT
BRANCH   6  10
ATOM     10  C   UNL     1       7.506  -2.136  25.895  0.00  0.00    -0.029 A 
ATOM     11  C   UNL     1       8.428  -1.509  26.751  0.00  0.00    +0.005 A 
ATOM     12  C   UNL     1       8.131  -0.278  27.346  0.00  0.00    +0.007 A 
ATOM     13  C   UNL     1       6.909   0.349  27.105  0.00  0.00    +0.084 A 
ATOM     14  C   UNL     1       5.985  -0.263  26.252  0.00  0.00    +0.273 A 
ATOM     15  C   UNL     1       6.278  -1.494  25.646  0.00  0.00    +0.088 A 
BRANCH  14  16
ATOM     16  N   UNL     1       4.688   0.384  26.003  0.00  0.00    +0.080 N 
ATOM     17  O   UNL     1       4.649   1.301  25.171  0.00  0.00    +0.041 OA
ATOM     18  O   UNL     1       3.708  -0.022  26.646  0.00  0.00    -0.576 OA
ENDBRANCH  14  16
ENDBRANCH   6  10
BRANCH   7  19
ATOM     19  C   UNL     1       6.783  -4.920  27.269  0.00  0.00    +0.338 C 
ATOM     20  O   UNL     1       7.437  -5.793  27.822  0.00  0.00    -0.245 OA
BRANCH  19  21
ATOM     21  O   UNL     1       5.848  -4.172  27.912  0.00  0.00    -0.459 OA
BRANCH  21  22
ATOM     22  C   UNL     1       5.141  -4.880  28.953  0.00  0.00    +0.260 C 
BRANCH  22  23
ATOM     23  C   UNL     1       3.752  -5.380  28.551  0.00  0.00    +0.201 C 
BRANCH  23  24
ATOM     24  O   UNL     1       2.789  -4.408  28.988  0.00  0.00    -0.376 OA
BRANCH  24  25
ATOM     25  C   UNL     1       2.471  -3.448  27.980  0.00  0.00    +0.159 C 
BRANCH  25  26
ATOM     26  C   UNL     1       2.412  -4.156  26.625  0.00  0.00    +0.025 C 
ATOM     27  C   UNL     1       3.030  -3.318  25.517  0.00  0.00    +0.006 C 
ENDBRANCH  25  26
ENDBRANCH  24  25
ENDBRANCH  23  24
ENDBRANCH  22  23
ENDBRANCH  21  22
ENDBRANCH  19  21
ENDBRANCH   7  19
BRANCH   5  28
ATOM     28  C   UNL     1       8.918  -2.590  23.108  0.00  0.00    +0.338 C 
ATOM     29  O   UNL     1      10.118  -2.801  23.183  0.00  0.00    -0.245 OA
BRANCH  28  30
ATOM     30  O   UNL     1       8.382  -1.466  22.575  0.00  0.00    -0.459 OA
BRANCH  30  31
ATOM     31  C   UNL     1       9.170  -0.874  21.537  0.00  0.00    +0.260 C 
BRANCH  31  32
ATOM     32  C   UNL     1       9.255   0.644  21.610  0.00  0.00    +0.201 C 
BRANCH  32  33
ATOM     33  O   UNL     1      10.375   0.967  22.442  0.00  0.00    -0.376 OA
BRANCH  33  34
ATOM     34  C   UNL     1      10.162   2.144  23.216  0.00  0.00    +0.159 C 
BRANCH  34  35
ATOM     35  C   UNL     1       9.405   1.756  24.485  0.00  0.00    +0.025 C 
ATOM     36  C   UNL     1       8.266   2.717  24.780  0.00  0.00    +0.006 C 
ENDBRANCH  34  35
ENDBRANCH  33  34
ENDBRANCH  32  33
ENDBRANCH  31  32
ENDBRANCH  30  31
ENDBRANCH  28  30
ENDBRANCH   5  28
TORSDOF 16
ENDMDL
MODEL 5
REMARK VINA RESULT:      -5.0      1.560      3.701
REMARK  Name = 
REMARK  20 active torsions:
REMARK  status: ('A' for Active; 'I' for Inactive)
REMARK    1  A    between atoms: C_3  and  C_4
REMARK    2  A    between atoms: C_5  and  C_28
REMARK    3  A    between atoms: C_6  and  C_7
REMARK    4  A    between atoms: C_9  and  N_13
REMARK    5  A    between atoms: C_16  and  C_17
REMARK    6  A    between atoms: C_17  and  O_19
REMARK    7  A    between atoms: O_19  and  C_20
REMARK    8  A    between atoms: C_20  and  C_21
REMARK    9  A    between atoms: C_21  and  O_22
REMARK   10  A    between atoms: O_22  and  C_23
REMARK   11  A    between atoms: C_23  and  C_24
REMARK   12  A    between atoms: C_24  and  C_25
REMARK   13  A    between atoms: C_26  and  C_27
REMARK   14  A    between atoms: C_28  and  O_30
REMARK   15  A    between atoms: O_30  and  C_31
REMARK   16  A    between atoms: C_31  and  C_32
REMARK   17  A    between atoms: C_32  and  O_33
REMARK   18  A    between atoms: O_33  and  C_34
REMARK   19  A    between atoms: C_34  and  C_35
REMARK   20  A    between atoms: C_35  and  C_36
REMARK                            x       y       z     vdW  Elec       q    Type
REMARK                         _______ _______ _______ _____ _____    ______ ____
ROOT
ATOM      1  H   UNL     1       9.852   0.657  26.631  0.00  0.00    +0.152 HD
ATOM      2  N   UNL     1       9.300   0.072  26.005  0.00  0.00    -0.321 N 
ATOM      3  C   UNL     1       9.835  -0.154  24.750  0.00  0.00    +0.016 C 
ATOM      4  C   UNL     1      11.235   0.400  24.598  0.00  0.00    +0.061 C 
ATOM      5  C   UNL     1       9.082  -0.784  23.812  0.00  0.00    +0.065 C 
ATOM      6  C   UNL     1       7.665  -1.310  24.166  0.00  0.00    +0.096 C 
ATOM      7  C   UNL     1       7.171  -0.880  25.560  0.00  0.00    +0.065 C 
ATOM      8  C   UNL     1       8.004  -0.204  26.393  0.00  0.00    +0.016 C 
ATOM      9  C   UNL     1       7.635   0.314  27.765  0.00  0.00    +0.061 C 
ENDROOT
BRANCH   6  10
ATOM     10  C   UNL     1       7.600  -2.831  23.948  0.00  0.00    -0.029 A 
ATOM     11  C   UNL     1       8.515  -3.701  24.565  0.00  0.00    +0.005 A 
ATOM     12  C   UNL     1       8.475  -5.077  24.318  0.00  0.00    +0.007 A 
ATOM     13  C   UNL     1       7.527  -5.613  23.446  0.00  0.00    +0.084 A 
ATOM     14  C   UNL     1       6.608  -4.759  22.829  0.00  0.00    +0.273 A 
ATOM     15  C   UNL     1       6.637  -3.378  23.077  0.00  0.00    +0.088 A 
BRANCH  14  16
ATOM     16  N   UNL     1       5.614  -5.313  21.897  0.00  0.00    +0.080 N 
ATOM     17  O   UNL     1       4.506  -5.626  22.353  0.00  0.00    +0.041 OA
ATOM     18  O   UNL     1       5.946  -5.440  20.709  0.00  0.00    -0.576 OA
ENDBRANCH  14  16
ENDBRANCH   6  10
BRANCH   7  19
ATOM     19  C   UNL     1       5.786  -1.223  26.018  0.00  0.00    +0.338 C 
ATOM     20  O   UNL     1       5.501  -2.245  26.628  0.00  0.00    -0.245 OA
BRANCH  19  21
ATOM     21  O   UNL     1       4.859  -0.316  25.614  0.00  0.00    -0.459 OA
BRANCH  21  22
ATOM     22  C   UNL     1       4.148   0.322  26.697  0.00  0.00    +0.260 C 
BRANCH  22  23
ATOM     23  C   UNL     1       3.922   1.823  26.511  0.00  0.00    +0.201 C 
BRANCH  23  24
ATOM     24  O   UNL     1       4.992   2.517  27.172  0.00  0.00    -0.376 OA
BRANCH  24  25
ATOM     25  C   UNL     1       5.828   3.240  26.269  0.00  0.00    +0.159 C 
BRANCH  25  26
ATOM     26  C   UNL     1       7.002   3.833  27.050  0.00  0.00    +0.025 C 
ATOM     27  C   UNL     1       7.249   5.289  26.691  0.00  0.00    +0.006 C 
ENDBRANCH  25  26
ENDBRANCH  24  25
ENDBRANCH  23  24
ENDBRANCH  22  23
ENDBRANCH  21  22
ENDBRANCH  19  21
ENDBRANCH   7  19
BRANCH   5  28
ATOM     28  C   UNL     1       9.527  -0.877  22.387  0.00  0.00    +0.338 C 
ATOM     29  O   UNL     1      10.521  -1.449  21.968  0.00  0.00    -0.245 OA
BRANCH  28  30
ATOM     30  O   UNL     1       8.740  -0.080  21.625  0.00  0.00    -0.459 OA
BRANCH  30  31
ATOM     31  C   UNL     1       9.177   1.280  21.550  0.00  0.00    +0.260 C 
BRANCH  31  32
ATOM     32  C   UNL     1       8.117   2.297  21.950  0.00  0.00    +0.201 C 
BRANCH  32  33
ATOM     33  O   UNL     1       8.461   2.778  23.254  0.00  0.00    -0.376 OA
BRANCH  33  34
ATOM     34  C   UNL     1       8.499   4.201  23.322  0.00  0.00    +0.159 C 
BRANCH  34  35
ATOM     35  C   UNL     1       9.776   4.614  24.051  0.00  0.00    +0.025 C 
ATOM     36  C   UNL     1      11.006   3.946  23.462  0.00  0.00    +0.006 C 
ENDBRANCH  34  35
ENDBRANCH  33  34
ENDBRANCH  32  33
ENDBRANCH  31  32
ENDBRANCH  30  31
ENDBRANCH  28  30
ENDBRANCH   5  28
TORSDOF 16
ENDMDL
MODEL 6
REMARK VINA RESULT:      -5.0      1.597      2.110
REMARK  Name = 
REMARK  20 active torsions:
REMARK  status: ('A' for Active; 'I' for Inactive)
REMARK    1  A    between atoms: C_3  and  C_4
REMARK    2  A    between atoms: C_5  and  C_28
REMARK    3  A    between atoms: C_6  and  C_7
REMARK    4  A    between atoms: C_9  and  N_13
REMARK    5  A    between atoms: C_16  and  C_17
REMARK    6  A    between atoms: C_17  and  O_19
REMARK    7  A    between atoms: O_19  and  C_20
REMARK    8  A    between atoms: C_20  and  C_21
REMARK    9  A    between atoms: C_21  and  O_22
REMARK   10  A    between atoms: O_22  and  C_23
REMARK   11  A    between atoms: C_23  and  C_24
REMARK   12  A    between atoms: C_24  and  C_25
REMARK   13  A    between atoms: C_26  and  C_27
REMARK   14  A    between atoms: C_28  and  O_30
REMARK   15  A    between atoms: O_30  and  C_31
REMARK   16  A    between atoms: C_31  and  C_32
REMARK   17  A    between atoms: C_32  and  O_33
REMARK   18  A    between atoms: O_33  and  C_34
REMARK   19  A    between atoms: C_34  and  C_35
REMARK   20  A    between atoms: C_35  and  C_36
REMARK                            x       y       z     vdW  Elec       q    Type
REMARK                         _______ _______ _______ _____ _____    ______ ____
ROOT
ATOM      1  H   UNL     1       9.752   0.765  26.787  0.00  0.00    +0.152 HD
ATOM      2  N   UNL     1       9.147   0.350  26.080  0.00  0.00    -0.321 N 
ATOM      3  C   UNL     1       9.658   0.290  24.796  0.00  0.00    +0.016 C 
ATOM      4  C   UNL     1      11.105   0.727  24.718  0.00  0.00    +0.061 C 
ATOM      5  C   UNL     1       8.849  -0.098  23.778  0.00  0.00    +0.065 C 
ATOM      6  C   UNL     1       7.387  -0.540  24.061  0.00  0.00    +0.096 C 
ATOM      7  C   UNL     1       6.936  -0.308  25.515  0.00  0.00    +0.065 C 
ATOM      8  C   UNL     1       7.830   0.135  26.436  0.00  0.00    +0.016 C 
ATOM      9  C   UNL     1       7.512   0.446  27.882  0.00  0.00    +0.061 C 
ENDROOT
BRANCH   6  10
ATOM     10  C   UNL     1       7.177  -1.990  23.591  0.00  0.00    -0.029 A 
ATOM     11  C   UNL     1       6.199  -2.317  22.636  0.00  0.00    +0.005 A 
ATOM     12  C   UNL     1       5.985  -3.646  22.255  0.00  0.00    +0.007 A 
ATOM     13  C   UNL     1       6.737  -4.675  22.821  0.00  0.00    +0.084 A 
ATOM     14  C   UNL     1       7.716  -4.362  23.769  0.00  0.00    +0.273 A 
ATOM     15  C   UNL     1       7.941  -3.032  24.152  0.00  0.00    +0.088 A 
BRANCH  14  16
ATOM     16  N   UNL     1       8.504  -5.442  24.382  0.00  0.00    +0.080 N 
ATOM     17  O   UNL     1       8.957  -6.322  23.637  0.00  0.00    +0.041 OA
ATOM     18  O   UNL     1       8.664  -5.413  25.612  0.00  0.00    -0.576 OA
ENDBRANCH  14  16
ENDBRANCH   6  10
BRANCH   7  19
ATOM     19  C   UNL     1       5.525  -0.591  25.931  0.00  0.00    +0.338 C 
ATOM     20  O   UNL     1       4.592   0.179  25.754  0.00  0.00    -0.245 OA
BRANCH  19  21
ATOM     21  O   UNL     1       5.401  -1.767  26.600  0.00  0.00    -0.459 OA
BRANCH  21  22
ATOM     22  C   UNL     1       4.468  -2.691  26.001  0.00  0.00    +0.260 C 
BRANCH  22  23
ATOM     23  C   UNL     1       4.893  -4.159  26.071  0.00  0.00    +0.201 C 
BRANCH  23  24
ATOM     24  O   UNL     1       3.881  -4.943  25.420  0.00  0.00    -0.376 OA
BRANCH  24  25
ATOM     25  C   UNL     1       3.074  -4.179  24.525  0.00  0.00    +0.159 C 
BRANCH  25  26
ATOM     26  C   UNL     1       2.350  -5.133  23.574  0.00  0.00    +0.025 C 
ATOM     27  C   UNL     1       3.276  -6.214  23.038  0.00  0.00    +0.006 C 
ENDBRANCH  25  26
ENDBRANCH  24  25
ENDBRANCH  23  24
ENDBRANCH  22  23
ENDBRANCH  21  22
ENDBRANCH  19  21
ENDBRANCH   7  19
BRANCH   5  28
ATOM     28  C   UNL     1       9.283   0.009  22.351  0.00  0.00    +0.338 C 
ATOM     29  O   UNL     1       9.690  -0.898  21.641  0.00  0.00    -0.245 OA
BRANCH  28  30
ATOM     30  O   UNL     1       9.317   1.316  21.995  0.00  0.00    -0.459 OA
BRANCH  30  31
ATOM     31  C   UNL     1       8.198   1.742  21.211  0.00  0.00    +0.260 C 
BRANCH  31  32
ATOM     32  C   UNL     1       7.046   2.311  22.028  0.00  0.00    +0.201 C 
BRANCH  32  33
ATOM     33  O   UNL     1       7.066   3.732  21.856  0.00  0.00    -0.376 OA
BRANCH  33  34
ATOM     34  C   UNL     1       7.616   4.414  22.980  0.00  0.00    +0.159 C 
BRANCH  34  35
ATOM     35  C   UNL     1       7.225   3.651  24.244  0.00  0.00    +0.025 C 
ATOM     36  C   UNL     1       8.310   3.718  25.304  0.00  0.00    +0.006 C 
ENDBRANCH  34  35
ENDBRANCH  33  34
ENDBRANCH  32  33
ENDBRANCH  31  32
ENDBRANCH  30  31
ENDBRANCH  28  30
ENDBRANCH   5  28
TORSDOF 16
ENDMDL
MODEL 7
REMARK VINA RESULT:      -5.0      2.361      5.578
REMARK  Name = 
REMARK  20 active torsions:
REMARK  status: ('A' for Active; 'I' for Inactive)
REMARK    1  A    between atoms: C_3  and  C_4
REMARK    2  A    between atoms: C_5  and  C_28
REMARK    3  A    between atoms: C_6  and  C_7
REMARK    4  A    between atoms: C_9  and  N_13
REMARK    5  A    between atoms: C_16  and  C_17
REMARK    6  A    between atoms: C_17  and  O_19
REMARK    7  A    between atoms: O_19  and  C_20
REMARK    8  A    between atoms: C_20  and  C_21
REMARK    9  A    between atoms: C_21  and  O_22
REMARK   10  A    between atoms: O_22  and  C_23
REMARK   11  A    between atoms: C_23  and  C_24
REMARK   12  A    between atoms: C_24  and  C_25
REMARK   13  A    between atoms: C_26  and  C_27
REMARK   14  A    between atoms: C_28  and  O_30
REMARK   15  A    between atoms: O_30  and  C_31
REMARK   16  A    between atoms: C_31  and  C_32
REMARK   17  A    between atoms: C_32  and  O_33
REMARK   18  A    between atoms: O_33  and  C_34
REMARK   19  A    between atoms: C_34  and  C_35
REMARK   20  A    between atoms: C_35  and  C_36
REMARK                            x       y       z     vdW  Elec       q    Type
REMARK                         _______ _______ _______ _____ _____    ______ ____
ROOT
ATOM      1  H   UNL     1       4.387  -6.357  21.942  0.00  0.00    +0.152 HD
ATOM      2  N   UNL     1       4.665  -5.734  22.698  0.00  0.00    -0.321 N 
ATOM      3  C   UNL     1       6.022  -5.660  22.962  0.00  0.00    +0.016 C 
ATOM      4  C   UNL     1       6.858  -6.423  21.958  0.00  0.00    +0.061 C 
ATOM      5  C   UNL     1       6.448  -4.980  24.056  0.00  0.00    +0.065 C 
ATOM      6  C   UNL     1       5.432  -4.232  24.962  0.00  0.00    +0.096 C 
ATOM      7  C   UNL     1       3.959  -4.505  24.604  0.00  0.00    +0.065 C 
ATOM      8  C   UNL     1       3.658  -5.248  23.508  0.00  0.00    +0.016 C 
ATOM      9  C   UNL     1       2.261  -5.628  23.068  0.00  0.00    +0.061 C 
ENDROOT
BRANCH   6  10
ATOM     10  C   UNL     1       5.772  -2.733  25.004  0.00  0.00    -0.029 A 
ATOM     11  C   UNL     1       5.868  -1.968  23.829  0.00  0.00    +0.005 A 
ATOM     12  C   UNL     1       6.228  -0.617  23.880  0.00  0.00    +0.007 A 
ATOM     13  C   UNL     1       6.505  -0.003  25.101  0.00  0.00    +0.084 A 
ATOM     14  C   UNL     1       6.409  -0.751  26.279  0.00  0.00    +0.273 A 
ATOM     15  C   UNL     1       6.042  -2.105  26.237  0.00  0.00    +0.088 A 
BRANCH  14  16
ATOM     16  N   UNL     1       6.713  -0.116  27.569  0.00  0.00    +0.080 N 
ATOM     17  O   UNL     1       5.761   0.267  28.264  0.00  0.00    +0.041 OA
ATOM     18  O   UNL     1       7.906   0.003  27.886  0.00  0.00    -0.576 OA
ENDBRANCH  14  16
ENDBRANCH   6  10
BRANCH   7  19
ATOM     19  C   UNL     1       2.853  -3.936  25.438  0.00  0.00    +0.338 C 
ATOM     20  O   UNL     1       2.338  -2.844  25.240  0.00  0.00    -0.245 OA
BRANCH  19  21
ATOM     21  O   UNL     1       2.532  -4.728  26.495  0.00  0.00    -0.459 OA
BRANCH  21  22
ATOM     22  C   UNL     1       1.866  -4.033  27.571  0.00  0.00    +0.260 C 
BRANCH  22  23
ATOM     23  C   UNL     1       2.612  -4.064  28.905  0.00  0.00    +0.201 C 
BRANCH  23  24
ATOM     24  O   UNL     1       3.585  -5.119  28.844  0.00  0.00    -0.376 OA
BRANCH  24  25
ATOM     25  C   UNL     1       4.921  -4.656  29.038  0.00  0.00    +0.159 C 
BRANCH  25  26
ATOM     26  C   UNL     1       5.878  -5.573  28.273  0.00  0.00    +0.025 C 
ATOM     27  C   UNL     1       5.157  -6.761  27.657  0.00  0.00    +0.006 C 
ENDBRANCH  25  26
ENDBRANCH  24  25
ENDBRANCH  23  24
ENDBRANCH  22  23
ENDBRANCH  21  22
ENDBRANCH  19  21
ENDBRANCH   7  19
BRANCH   5  28
ATOM     28  C   UNL     1       7.875  -5.034  24.502  0.00  0.00    +0.338 C 
ATOM     29  O   UNL     1       8.306  -5.581  25.505  0.00  0.00    -0.245 OA
BRANCH  28  30
ATOM     30  O   UNL     1       8.618  -4.230  23.704  0.00  0.00    -0.459 OA
BRANCH  30  31
ATOM     31  C   UNL     1       9.327  -3.201  24.401  0.00  0.00    +0.260 C 
BRANCH  31  32
ATOM     32  C   UNL     1      10.254  -2.376  23.519  0.00  0.00    +0.201 C 
BRANCH  32  33
ATOM     33  O   UNL     1       9.586  -1.140  23.243  0.00  0.00    -0.376 OA
BRANCH  33  34
ATOM     34  C   UNL     1       9.974  -0.574  21.994  0.00  0.00    +0.159 C 
BRANCH  34  35
ATOM     35  C   UNL     1       9.173   0.708  21.776  0.00  0.00    +0.025 C 
ATOM     36  C   UNL     1       9.994   1.948  22.082  0.00  0.00    +0.006 C 
ENDBRANCH  34  35
ENDBRANCH  33  34
ENDBRANCH  32  33
ENDBRANCH  31  32
ENDBRANCH  30  31
ENDBRANCH  28  30
ENDBRANCH   5  28
TORSDOF 16
ENDMDL
MODEL 8
REMARK VINA RESULT:      -5.0      2.498      5.319
REMARK  Name = 
REMARK  20 active torsions:
REMARK  status: ('A' for Active; 'I' for Inactive)
REMARK    1  A    between atoms: C_3  and  C_4
REMARK    2  A    between atoms: C_5  and  C_28
REMARK    3  A    between atoms: C_6  and  C_7
REMARK    4  A    between atoms: C_9  and  N_13
REMARK    5  A    between atoms: C_16  and  C_17
REMARK    6  A    between atoms: C_17  and  O_19
REMARK    7  A    between atoms: O_19  and  C_20
REMARK    8  A    between atoms: C_20  and  C_21
REMARK    9  A    between atoms: C_21  and  O_22
REMARK   10  A    between atoms: O_22  and  C_23
REMARK   11  A    between atoms: C_23  and  C_24
REMARK   12  A    between atoms: C_24  and  C_25
REMARK   13  A    between atoms: C_26  and  C_27
REMARK   14  A    between atoms: C_28  and  O_30
REMARK   15  A    between atoms: O_30  and  C_31
REMARK   16  A    between atoms: C_31  and  C_32
REMARK   17  A    between atoms: C_32  and  O_33
REMARK   18  A    between atoms: O_33  and  C_34
REMARK   19  A    between atoms: C_34  and  C_35
REMARK   20  A    between atoms: C_35  and  C_36
REMARK                            x       y       z     vdW  Elec       q    Type
REMARK                         _______ _______ _______ _____ _____    ______ ____
ROOT
ATOM      1  H   UNL     1       7.448  -2.720  21.737  0.00  0.00    +0.152 HD
ATOM      2  N   UNL     1       7.439  -2.092  22.539  0.00  0.00    -0.321 N 
ATOM      3  C   UNL     1       8.512  -1.226  22.650  0.00  0.00    +0.016 C 
ATOM      4  C   UNL     1       9.435  -1.277  21.452  0.00  0.00    +0.061 C 
ATOM      5  C   UNL     1       8.648  -0.480  23.775  0.00  0.00    +0.065 C 
ATOM      6  C   UNL     1       7.574  -0.543  24.895  0.00  0.00    +0.096 C 
ATOM      7  C   UNL     1       6.509  -1.634  24.675  0.00  0.00    +0.065 C 
ATOM      8  C   UNL     1       6.508  -2.354  23.525  0.00  0.00    +0.016 C 
ATOM      9  C   UNL     1       5.551  -3.481  23.201  0.00  0.00    +0.061 C 
ENDROOT
BRANCH   6  10
ATOM     10  C   UNL     1       6.967   0.852  25.119  0.00  0.00    -0.029 A 
ATOM     11  C   UNL     1       6.079   1.425  24.193  0.00  0.00    +0.005 A 
ATOM     12  C   UNL     1       5.574   2.715  24.385  0.00  0.00    +0.007 A 
ATOM     13  C   UNL     1       5.949   3.463  25.502  0.00  0.00    +0.084 A 
ATOM     14  C   UNL     1       6.829   2.903  26.433  0.00  0.00    +0.273 A 
ATOM     15  C   UNL     1       7.335   1.608  26.251  0.00  0.00    +0.088 A 
BRANCH  14  16
ATOM     16  N   UNL     1       7.242   3.690  27.605  0.00  0.00    +0.080 N 
ATOM     17  O   UNL     1       7.605   4.860  27.417  0.00  0.00    +0.041 OA
ATOM     18  O   UNL     1       7.208   3.136  28.714  0.00  0.00    -0.576 OA
ENDBRANCH  14  16
ENDBRANCH   6  10
BRANCH   7  19
ATOM     19  C   UNL     1       5.456  -1.891  25.710  0.00  0.00    +0.338 C 
ATOM     20  O   UNL     1       4.298  -1.508  25.617  0.00  0.00    -0.245 OA
BRANCH  19  21
ATOM     21  O   UNL     1       5.942  -2.530  26.806  0.00  0.00    -0.459 OA
BRANCH  21  22
ATOM     22  C   UNL     1       5.440  -3.873  26.977  0.00  0.00    +0.260 C 
BRANCH  22  23
ATOM     23  C   UNL     1       6.412  -4.831  27.667  0.00  0.00    +0.201 C 
BRANCH  23  24
ATOM     24  O   UNL     1       6.721  -5.887  26.744  0.00  0.00    -0.376 OA
BRANCH  24  25
ATOM     25  C   UNL     1       7.443  -5.432  25.599  0.00  0.00    +0.159 C 
BRANCH  25  26
ATOM     26  C   UNL     1       8.782  -4.853  26.057  0.00  0.00    +0.025 C 
ATOM     27  C   UNL     1       9.458  -4.045  24.961  0.00  0.00    +0.006 C 
ENDBRANCH  25  26
ENDBRANCH  24  25
ENDBRANCH  23  24
ENDBRANCH  22  23
ENDBRANCH  21  22
ENDBRANCH  19  21
ENDBRANCH   7  19
BRANCH   5  28
ATOM     28  C   UNL     1       9.885   0.320  24.037  0.00  0.00    +0.338 C 
ATOM     29  O   UNL     1      10.701   0.132  24.926  0.00  0.00    -0.245 OA
BRANCH  28  30
ATOM     30  O   UNL     1       9.887   1.409  23.231  0.00  0.00    -0.459 OA
BRANCH  30  31
ATOM     31  C   UNL     1      10.046   2.652  23.922  0.00  0.00    +0.260 C 
BRANCH  31  32
ATOM     32  C   UNL     1       9.069   3.735  23.486  0.00  0.00    +0.201 C 
BRANCH  32  33
ATOM     33  O   UNL     1       9.254   4.851  24.364  0.00  0.00    -0.376 OA
BRANCH  33  34
ATOM     34  C   UNL     1       8.731   6.064  23.828  0.00  0.00    +0.159 C 
BRANCH  34  35
ATOM     35  C   UNL     1       7.426   5.745  23.101  0.00  0.00    +0.025 C 
ATOM     36  C   UNL     1       7.248   6.599  21.857  0.00  0.00    +0.006 C 
ENDBRANCH  34  35
ENDBRANCH  33  34
ENDBRANCH  32  33
ENDBRANCH  31  32
ENDBRANCH  30  31
ENDBRANCH  28  30
ENDBRANCH   5  28
TORSDOF 16
ENDMDL
MODEL 9
REMARK VINA RESULT:      -4.9      2.421      6.499
REMARK  Name = 
REMARK  20 active torsions:
REMARK  status: ('A' for Active; 'I' for Inactive)
REMARK    1  A    between atoms: C_3  and  C_4
REMARK    2  A    between atoms: C_5  and  C_28
REMARK    3  A    between atoms: C_6  and  C_7
REMARK    4  A    between atoms: C_9  and  N_13
REMARK    5  A    between atoms: C_16  and  C_17
REMARK    6  A    between atoms: C_17  and  O_19
REMARK    7  A    between atoms: O_19  and  C_20
REMARK    8  A    between atoms: C_20  and  C_21
REMARK    9  A    between atoms: C_21  and  O_22
REMARK   10  A    between atoms: O_22  and  C_23
REMARK   11  A    between atoms: C_23  and  C_24
REMARK   12  A    between atoms: C_24  and  C_25
REMARK   13  A    between atoms: C_26  and  C_27
REMARK   14  A    between atoms: C_28  and  O_30
REMARK   15  A    between atoms: O_30  and  C_31
REMARK   16  A    between atoms: C_31  and  C_32
REMARK   17  A    between atoms: C_32  and  O_33
REMARK   18  A    between atoms: O_33  and  C_34
REMARK   19  A    between atoms: C_34  and  C_35
REMARK   20  A    between atoms: C_35  and  C_36
REMARK                            x       y       z     vdW  Elec       q    Type
REMARK                         _______ _______ _______ _____ _____    ______ ____
ROOT
ATOM      1  H   UNL     1       5.177   3.004  23.693  0.00  0.00    +0.152 HD
ATOM      2  N   UNL     1       5.824   2.236  23.866  0.00  0.00    -0.321 N 
ATOM      3  C   UNL     1       5.633   1.528  25.039  0.00  0.00    +0.016 C 
ATOM      4  C   UNL     1       4.382   1.946  25.781  0.00  0.00    +0.061 C 
ATOM      5  C   UNL     1       6.553   0.602  25.412  0.00  0.00    +0.065 C 
ATOM      6  C   UNL     1       7.768   0.290  24.497  0.00  0.00    +0.096 C 
ATOM      7  C   UNL     1       7.901   1.238  23.291  0.00  0.00    +0.065 C 
ATOM      8  C   UNL     1       6.936   2.163  23.051  0.00  0.00    +0.016 C 
ATOM      9  C   UNL     1       6.963   3.182  21.932  0.00  0.00    +0.061 C 
ENDROOT
BRANCH   6  10
ATOM     10  C   UNL     1       7.755  -1.195  24.096  0.00  0.00    -0.029 A 
ATOM     11  C   UNL     1       8.827  -2.049  24.404  0.00  0.00    +0.005 A 
ATOM     12  C   UNL     1       8.824  -3.384  23.989  0.00  0.00    +0.007 A 
ATOM     13  C   UNL     1       7.754  -3.894  23.253  0.00  0.00    +0.084 A 
ATOM     14  C   UNL     1       6.678  -3.057  22.944  0.00  0.00    +0.273 A 
ATOM     15  C   UNL     1       6.671  -1.718  23.362  0.00  0.00    +0.088 A 
BRANCH  14  16
ATOM     16  N   UNL     1       5.553  -3.582  22.156  0.00  0.00    +0.080 N 
ATOM     17  O   UNL     1       5.647  -3.549  20.921  0.00  0.00    +0.041 OA
ATOM     18  O   UNL     1       4.572  -4.023  22.773  0.00  0.00    -0.576 OA
ENDBRANCH  14  16
ENDBRANCH   6  10
BRANCH   7  19
ATOM     19  C   UNL     1       9.072   1.133  22.363  0.00  0.00    +0.338 C 
ATOM     20  O   UNL     1       9.001   0.713  21.217  0.00  0.00    -0.245 OA
BRANCH  19  21
ATOM     21  O   UNL     1      10.244   1.480  22.956  0.00  0.00    -0.459 OA
BRANCH  21  22
ATOM     22  C   UNL     1      10.221   2.775  23.595  0.00  0.00    +0.260 C 
BRANCH  22  23
ATOM     23  C   UNL     1      11.484   3.611  23.383  0.00  0.00    +0.201 C 
BRANCH  23  24
ATOM     24  O   UNL     1      11.125   4.995  23.513  0.00  0.00    -0.376 OA
BRANCH  24  25
ATOM     25  C   UNL     1       9.808   5.183  24.030  0.00  0.00    +0.159 C 
BRANCH  25  26
ATOM     26  C   UNL     1       9.318   6.578  23.641  0.00  0.00    +0.025 C 
ATOM     27  C   UNL     1       8.125   6.522  22.701  0.00  0.00    +0.006 C 
ENDBRANCH  25  26
ENDBRANCH  24  25
ENDBRANCH  23  24
ENDBRANCH  22  23
ENDBRANCH  21  22
ENDBRANCH  19  21
ENDBRANCH   7  19
BRANCH   5  28
ATOM     28  C   UNL     1       6.506  -0.047  26.758  0.00  0.00    +0.338 C 
ATOM     29  O   UNL     1       5.847  -1.026  27.075  0.00  0.00    -0.245 OA
BRANCH  28  30
ATOM     30  O   UNL     1       7.188   0.719  27.644  0.00  0.00    -0.459 OA
BRANCH  30  31
ATOM     31  C   UNL     1       6.465   1.021  28.841  0.00  0.00    +0.260 C 
BRANCH  31  32
ATOM     32  C   UNL     1       6.664   2.443  29.346  0.00  0.00    +0.201 C 
BRANCH  32  33
ATOM     33  O   UNL     1       7.346   3.167  28.317  0.00  0.00    -0.376 OA
BRANCH  33  34
ATOM     34  C   UNL     1       6.563   4.232  27.784  0.00  0.00    +0.159 C 
BRANCH  34  35
ATOM     35  C   UNL     1       7.137   4.617  26.421  0.00  0.00    +0.025 C 
ATOM     36  C   UNL     1       6.124   5.360  25.569  0.00  0.00    +0.006 C 
ENDBRANCH  34  35
ENDBRANCH  33  34
ENDBRANCH  32  33
ENDBRANCH  31  32
ENDBRANCH  30  31
ENDBRANCH  28  30
ENDBRANCH   5  28
TORSDOF 16
ENDMDL
