MODEL 1
REMARK VINA RESULT:      -4.7      0.000      0.000
REMARK  Name = 
REMARK  7 active torsions:
REMARK  status: ('A' for Active; 'I' for Inactive)
REMARK    1  A    between atoms: C_1  and  O_2
REMARK    2  A    between atoms: O_2  and  C_3
REMARK    3  A    between atoms: C_5  and  O_7
REMARK    4  A    between atoms: C_8  and  O_10
REMARK    5  A    between atoms: C_11  and  O_13
REMARK    6  A    between atoms: C_15  and  C_17
REMARK    7  A    between atoms: C_17  and  O_18
REMARK                            x       y       z     vdW  Elec       q    Type
REMARK                         _______ _______ _______ _____ _____    ______ ____
ROOT
ATOM      1  C   UNL     1       8.784   0.740  24.161  0.00  0.00    +0.189 C 
ATOM      2  C   UNL     1       9.847  -0.375  24.096  0.00  0.00    +0.260 C 
ATOM      3  O   UNL     1      10.632  -0.332  22.901  0.00  0.00    -0.332 OA
ATOM      4  C   UNL     1       9.922  -0.219  21.674  0.00  0.00    +0.280 C 
ATOM      5  C   UNL     1       8.855   0.887  21.643  0.00  0.00    +0.201 C 
ATOM      6  C   UNL     1       7.939   0.753  22.871  0.00  0.00    +0.180 C 
ENDROOT
BRANCH   1   8
ATOM      7  C   UNL     1       8.611   3.036  24.886  0.00  0.00    +0.194 C 
ATOM      8  O   UNL     1       9.405   2.047  24.240  0.00  0.00    -0.374 OA
ENDBRANCH   1   8
BRANCH   2   9
ATOM      9  C   UNL     1       9.248  -1.733  24.490  0.00  0.00    +0.337 C 
ATOM     10  O   UNL     1       8.258  -1.864  25.194  0.00  0.00    -0.248 OA
BRANCH   9  11
ATOM     11  O   UNL     1       9.948  -2.796  24.033  0.00  0.00    -0.479 OA
ATOM     12  H   UNL     1      10.920  -2.635  24.102  0.00  0.00    +0.295 HD
ENDBRANCH   9  11
ENDBRANCH   2   9
BRANCH   4  13
ATOM     13  O   UNL     1       9.336  -1.487  21.404  0.00  0.00    -0.365 OA
ATOM     14  H   UNL     1      10.074  -2.076  21.150  0.00  0.00    +0.213 HD
ENDBRANCH   4  13
BRANCH   5  15
ATOM     15  O   UNL     1       9.477   2.173  21.576  0.00  0.00    -0.384 OA
ATOM     16  H   UNL     1       9.010   2.758  22.213  0.00  0.00    +0.210 HD
ENDBRANCH   5  15
BRANCH   6  17
ATOM     17  O   UNL     1       7.091  -0.392  22.781  0.00  0.00    -0.386 OA
ATOM     18  H   UNL     1       7.543  -1.114  22.304  0.00  0.00    +0.210 HD
ENDBRANCH   6  17
TORSDOF 6
ENDMDL
MODEL 2
REMARK VINA RESULT:      -4.7      1.518      3.084
REMARK  Name = 
REMARK  7 active torsions:
REMARK  status: ('A' for Active; 'I' for Inactive)
REMARK    1  A    between atoms: C_1  and  O_2
REMARK    2  A    between atoms: O_2  and  C_3
REMARK    3  A    between atoms: C_5  and  O_7
REMARK    4  A    between atoms: C_8  and  O_10
REMARK    5  A    between atoms: C_11  and  O_13
REMARK    6  A    between atoms: C_15  and  C_17
REMARK    7  A    between atoms: C_17  and  O_18
REMARK                            x       y       z     vdW  Elec       q    Type
REMARK                         _______ _______ _______ _____ _____    ______ ____
ROOT
ATOM      1  C   UNL     1       8.147   1.045  22.490  0.00  0.00    +0.189 C 
ATOM      2  C   UNL     1       8.742  -0.247  23.084  0.00  0.00    +0.260 C 
ATOM      3  O   UNL     1       9.246  -0.074  24.412  0.00  0.00    -0.332 OA
ATOM      4  C   UNL     1      10.102   1.040  24.629  0.00  0.00    +0.280 C 
ATOM      5  C   UNL     1       9.575   2.378  24.088  0.00  0.00    +0.201 C 
ATOM      6  C   UNL     1       9.152   2.208  22.620  0.00  0.00    +0.180 C 
ENDROOT
BRANCH   1   8
ATOM      7  C   UNL     1       6.130   2.370  22.519  0.00  0.00    +0.194 C 
ATOM      8  O   UNL     1       6.967   1.460  23.222  0.00  0.00    -0.374 OA
ENDBRANCH   1   8
BRANCH   2   9
ATOM      9  C   UNL     1       9.662  -0.947  22.074  0.00  0.00    +0.337 C 
ATOM     10  O   UNL     1      10.583  -1.686  22.388  0.00  0.00    -0.248 OA
BRANCH   9  11
ATOM     11  O   UNL     1       9.404  -0.631  20.784  0.00  0.00    -0.479 OA
ATOM     12  H   UNL     1       8.444  -0.738  20.579  0.00  0.00    +0.295 HD
ENDBRANCH   9  11
ENDBRANCH   2   9
BRANCH   4  13
ATOM     13  O   UNL     1      11.363   0.728  24.048  0.00  0.00    -0.365 OA
ATOM     14  H   UNL     1      12.019   0.815  24.767  0.00  0.00    +0.213 HD
ENDBRANCH   4  13
BRANCH   5  15
ATOM     15  O   UNL     1       8.501   2.853  24.904  0.00  0.00    -0.384 OA
ATOM     16  H   UNL     1       7.865   3.314  24.312  0.00  0.00    +0.210 HD
ENDBRANCH   5  15
BRANCH   6  17
ATOM     17  O   UNL     1      10.277   2.035  21.757  0.00  0.00    -0.386 OA
ATOM     18  H   UNL     1      10.461   1.085  21.624  0.00  0.00    +0.210 HD
ENDBRANCH   6  17
TORSDOF 6
ENDMDL
MODEL 3
REMARK VINA RESULT:      -4.7      1.177      3.692
REMARK  Name = 
REMARK  7 active torsions:
REMARK  status: ('A' for Active; 'I' for Inactive)
REMARK    1  A    between atoms: C_1  and  O_2
REMARK    2  A    between atoms: O_2  and  C_3
REMARK    3  A    between atoms: C_5  and  O_7
REMARK    4  A    between atoms: C_8  and  O_10
REMARK    5  A    between atoms: C_11  and  O_13
REMARK    6  A    between atoms: C_15  and  C_17
REMARK    7  A    between atoms: C_17  and  O_18
REMARK                            x       y       z     vdW  Elec       q    Type
REMARK                         _______ _______ _______ _____ _____    ______ ____
ROOT
ATOM      1  C   UNL     1       8.851  -0.354  24.127  0.00  0.00    +0.189 C 
ATOM      2  C   UNL     1       7.972   0.753  23.512  0.00  0.00    +0.260 C 
ATOM      3  O   UNL     1       8.004   0.764  22.082  0.00  0.00    -0.332 OA
ATOM      4  C   UNL     1       9.288   0.721  21.472  0.00  0.00    +0.280 C 
ATOM      5  C   UNL     1      10.224  -0.373  22.010  0.00  0.00    +0.201 C 
ATOM      6  C   UNL     1      10.277  -0.294  23.545  0.00  0.00    +0.180 C 
ENDROOT
BRANCH   1   8
ATOM      7  C   UNL     1       8.646  -2.678  24.748  0.00  0.00    +0.194 C 
ATOM      8  O   UNL     1       8.342  -1.670  23.791  0.00  0.00    -0.374 OA
ENDBRANCH   1   8
BRANCH   2   9
ATOM      9  C   UNL     1       8.192   2.094  24.226  0.00  0.00    +0.337 C 
ATOM     10  O   UNL     1       8.089   3.182  23.681  0.00  0.00    -0.248 OA
BRANCH   9  11
ATOM     11  O   UNL     1       8.572   1.973  25.518  0.00  0.00    -0.479 OA
ATOM     12  H   UNL     1       8.581   2.852  25.968  0.00  0.00    +0.295 HD
ENDBRANCH   9  11
ENDBRANCH   2   9
BRANCH   4  13
ATOM     13  O   UNL     1       9.877   2.006  21.629  0.00  0.00    -0.365 OA
ATOM     14  H   UNL     1      10.842   1.856  21.670  0.00  0.00    +0.213 HD
ENDBRANCH   4  13
BRANCH   5  15
ATOM     15  O   UNL     1       9.797  -1.659  21.554  0.00  0.00    -0.384 OA
ATOM     16  H   UNL     1       8.877  -1.792  21.873  0.00  0.00    +0.210 HD
ENDBRANCH   5  15
BRANCH   6  17
ATOM     17  O   UNL     1      10.985   0.862  23.995  0.00  0.00    -0.386 OA
ATOM     18  H   UNL     1      11.522   0.647  24.783  0.00  0.00    +0.210 HD
ENDBRANCH   6  17
TORSDOF 6
ENDMDL
MODEL 4
REMARK VINA RESULT:      -4.7      1.467      4.066
REMARK  Name = 
REMARK  7 active torsions:
REMARK  status: ('A' for Active; 'I' for Inactive)
REMARK    1  A    between atoms: C_1  and  O_2
REMARK    2  A    between atoms: O_2  and  C_3
REMARK    3  A    between atoms: C_5  and  O_7
REMARK    4  A    between atoms: C_8  and  O_10
REMARK    5  A    between atoms: C_11  and  O_13
REMARK    6  A    between atoms: C_15  and  C_17
REMARK    7  A    between atoms: C_17  and  O_18
REMARK                            x       y       z     vdW  Elec       q    Type
REMARK                         _______ _______ _______ _____ _____    ______ ____
ROOT
ATOM      1  C   UNL     1       8.312  -0.779  22.572  0.00  0.00    +0.189 C 
ATOM      2  C   UNL     1       9.590   0.013  22.235  0.00  0.00    +0.260 C 
ATOM      3  O   UNL     1      10.604  -0.105  23.237  0.00  0.00    -0.332 OA
ATOM      4  C   UNL     1      10.198   0.110  24.583  0.00  0.00    +0.280 C 
ATOM      5  C   UNL     1       8.941  -0.662  25.013  0.00  0.00    +0.201 C 
ATOM      6  C   UNL     1       7.818  -0.425  23.989  0.00  0.00    +0.180 C 
ENDROOT
BRANCH   1   8
ATOM      7  C   UNL     1       7.432  -3.012  22.316  0.00  0.00    +0.194 C 
ATOM      8  O   UNL     1       8.571  -2.205  22.588  0.00  0.00    -0.374 OA
ENDBRANCH   1   8
BRANCH   2   9
ATOM      9  C   UNL     1       9.251   1.430  21.749  0.00  0.00    +0.337 C 
ATOM     10  O   UNL     1       8.146   1.770  21.356  0.00  0.00    -0.248 OA
BRANCH   9  11
ATOM     11  O   UNL     1      10.307   2.274  21.737  0.00  0.00    -0.479 OA
ATOM     12  H   UNL     1      10.389   2.726  20.863  0.00  0.00    +0.295 HD
ENDBRANCH   9  11
ENDBRANCH   2   9
BRANCH   4  13
ATOM     13  O   UNL     1      10.008   1.510  24.752  0.00  0.00    -0.365 OA
ATOM     14  H   UNL     1       9.043   1.642  24.834  0.00  0.00    +0.213 HD
ENDBRANCH   4  13
BRANCH   5  15
ATOM     15  O   UNL     1       9.241  -2.052  25.167  0.00  0.00    -0.384 OA
ATOM     16  H   UNL     1      10.149  -2.195  24.817  0.00  0.00    +0.210 HD
ENDBRANCH   5  15
BRANCH   6  17
ATOM     17  O   UNL     1       7.308   0.907  24.056  0.00  0.00    -0.386 OA
ATOM     18  H   UNL     1       7.358   1.246  24.971  0.00  0.00    +0.210 HD
ENDBRANCH   6  17
TORSDOF 6
ENDMDL
MODEL 5
REMARK VINA RESULT:      -4.6      1.453      2.402
REMARK  Name = 
REMARK  7 active torsions:
REMARK  status: ('A' for Active; 'I' for Inactive)
REMARK    1  A    between atoms: C_1  and  O_2
REMARK    2  A    between atoms: O_2  and  C_3
REMARK    3  A    between atoms: C_5  and  O_7
REMARK    4  A    between atoms: C_8  and  O_10
REMARK    5  A    between atoms: C_11  and  O_13
REMARK    6  A    between atoms: C_15  and  C_17
REMARK    7  A    between atoms: C_17  and  O_18
REMARK                            x       y       z     vdW  Elec       q    Type
REMARK                         _______ _______ _______ _____ _____    ______ ____
ROOT
ATOM      1  C   UNL     1       8.306  -0.128  24.303  0.00  0.00    +0.189 C 
ATOM      2  C   UNL     1       9.566  -0.574  23.537  0.00  0.00    +0.260 C 
ATOM      3  O   UNL     1      10.499   0.490  23.324  0.00  0.00    -0.332 OA
ATOM      4  C   UNL     1       9.974   1.704  22.801  0.00  0.00    +0.280 C 
ATOM      5  C   UNL     1       8.726   2.235  23.524  0.00  0.00    +0.201 C 
ATOM      6  C   UNL     1       7.680   1.113  23.635  0.00  0.00    +0.180 C 
ENDROOT
BRANCH   1   8
ATOM      7  C   UNL     1       8.814  -0.806  26.564  0.00  0.00    +0.194 C 
ATOM      8  O   UNL     1       8.634   0.275  25.656  0.00  0.00    -0.374 OA
ENDBRANCH   1   8
BRANCH   2   9
ATOM      9  C   UNL     1       9.197  -1.432  22.318  0.00  0.00    +0.337 C 
ATOM     10  O   UNL     1       8.139  -2.032  22.201  0.00  0.00    -0.248 OA
BRANCH   9  11
ATOM     11  O   UNL     1      10.178  -1.521  21.391  0.00  0.00    -0.479 OA
ATOM     12  H   UNL     1      10.822  -2.232  21.624  0.00  0.00    +0.295 HD
ENDBRANCH   9  11
ENDBRANCH   2   9
BRANCH   4  13
ATOM     13  O   UNL     1       9.701   1.490  21.422  0.00  0.00    -0.365 OA
ATOM     14  H   UNL     1       9.205   2.276  21.121  0.00  0.00    +0.213 HD
ENDBRANCH   4  13
BRANCH   5  15
ATOM     15  O   UNL     1       9.082   2.764  24.804  0.00  0.00    -0.384 OA
ATOM     16  H   UNL     1       9.716   3.500  24.650  0.00  0.00    +0.210 HD
ENDBRANCH   5  15
BRANCH   6  17
ATOM     17  O   UNL     1       7.100   0.797  22.369  0.00  0.00    -0.386 OA
ATOM     18  H   UNL     1       7.697   0.218  21.856  0.00  0.00    +0.210 HD
ENDBRANCH   6  17
TORSDOF 6
ENDMDL
MODEL 6
REMARK VINA RESULT:      -4.6      3.411      5.487
REMARK  Name = 
REMARK  7 active torsions:
REMARK  status: ('A' for Active; 'I' for Inactive)
REMARK    1  A    between atoms: C_1  and  O_2
REMARK    2  A    between atoms: O_2  and  C_3
REMARK    3  A    between atoms: C_5  and  O_7
REMARK    4  A    between atoms: C_8  and  O_10
REMARK    5  A    between atoms: C_11  and  O_13
REMARK    6  A    between atoms: C_15  and  C_17
REMARK    7  A    between atoms: C_17  and  O_18
REMARK                            x       y       z     vdW  Elec       q    Type
REMARK                         _______ _______ _______ _____ _____    ______ ____
ROOT
ATOM      1  C   UNL     1       8.475  -3.307  24.078  0.00  0.00    +0.189 C 
ATOM      2  C   UNL     1       8.080  -2.667  25.424  0.00  0.00    +0.260 C 
ATOM      3  O   UNL     1       8.729  -3.273  26.546  0.00  0.00    -0.332 OA
ATOM      4  C   UNL     1       8.690  -4.693  26.614  0.00  0.00    +0.280 C 
ATOM      5  C   UNL     1       9.094  -5.415  25.319  0.00  0.00    +0.201 C 
ATOM      6  C   UNL     1       8.297  -4.837  24.138  0.00  0.00    +0.180 C 
ENDROOT
BRANCH   1   8
ATOM      7  C   UNL     1      10.150  -1.860  23.115  0.00  0.00    +0.194 C 
ATOM      8  O   UNL     1       9.878  -3.083  23.788  0.00  0.00    -0.374 OA
ENDBRANCH   1   8
BRANCH   2   9
ATOM      9  C   UNL     1       6.559  -2.472  25.517  0.00  0.00    +0.337 C 
ATOM     10  O   UNL     1       5.822  -2.383  24.548  0.00  0.00    -0.248 OA
BRANCH   9  11
ATOM     11  O   UNL     1       6.098  -2.349  26.782  0.00  0.00    -0.479 OA
ATOM     12  H   UNL     1       6.341  -1.472  27.164  0.00  0.00    +0.295 HD
ENDBRANCH   9  11
ENDBRANCH   2   9
BRANCH   4  13
ATOM     13  O   UNL     1       7.374  -5.065  27.005  0.00  0.00    -0.365 OA
ATOM     14  H   UNL     1       6.780  -4.385  26.629  0.00  0.00    +0.213 HD
ENDBRANCH   4  13
BRANCH   5  15
ATOM     15  O   UNL     1      10.506  -5.312  25.114  0.00  0.00    -0.384 OA
ATOM     16  H   UNL     1      10.843  -6.219  24.939  0.00  0.00    +0.210 HD
ENDBRANCH   5  15
BRANCH   6  17
ATOM     17  O   UNL     1       6.919  -5.209  24.192  0.00  0.00    -0.386 OA
ATOM     18  H   UNL     1       6.560  -5.320  23.291  0.00  0.00    +0.210 HD
ENDBRANCH   6  17
TORSDOF 6
ENDMDL
MODEL 7
REMARK VINA RESULT:      -4.5      1.664      2.650
REMARK  Name = 
REMARK  7 active torsions:
REMARK  status: ('A' for Active; 'I' for Inactive)
REMARK    1  A    between atoms: C_1  and  O_2
REMARK    2  A    between atoms: O_2  and  C_3
REMARK    3  A    between atoms: C_5  and  O_7
REMARK    4  A    between atoms: C_8  and  O_10
REMARK    5  A    between atoms: C_11  and  O_13
REMARK    6  A    between atoms: C_15  and  C_17
REMARK    7  A    between atoms: C_17  and  O_18
REMARK                            x       y       z     vdW  Elec       q    Type
REMARK                         _______ _______ _______ _____ _____    ______ ____
ROOT
ATOM      1  C   UNL     1       8.209  -0.409  24.386  0.00  0.00    +0.189 C 
ATOM      2  C   UNL     1       8.361  -1.880  23.952  0.00  0.00    +0.260 C 
ATOM      3  O   UNL     1       9.710  -2.234  23.632  0.00  0.00    -0.332 OA
ATOM      4  C   UNL     1      10.410  -1.358  22.757  0.00  0.00    +0.280 C 
ATOM      5  C   UNL     1      10.330   0.131  23.131  0.00  0.00    +0.201 C 
ATOM      6  C   UNL     1       8.861   0.528  23.350  0.00  0.00    +0.180 C 
ENDROOT
BRANCH   1   8
ATOM      7  C   UNL     1       8.510  -1.014  26.703  0.00  0.00    +0.194 C 
ATOM      8  O   UNL     1       8.902  -0.161  25.635  0.00  0.00    -0.374 OA
ENDBRANCH   1   8
BRANCH   2   9
ATOM      9  C   UNL     1       7.278  -2.271  22.936  0.00  0.00    +0.337 C 
ATOM     10  O   UNL     1       7.416  -3.146  22.094  0.00  0.00    -0.248 OA
BRANCH   9  11
ATOM     11  O   UNL     1       6.157  -1.520  23.011  0.00  0.00    -0.479 OA
ATOM     12  H   UNL     1       6.292  -0.740  23.602  0.00  0.00    +0.295 HD
ENDBRANCH   9  11
ENDBRANCH   2   9
BRANCH   4  13
ATOM     13  O   UNL     1       9.902  -1.572  21.446  0.00  0.00    -0.365 OA
ATOM     14  H   UNL     1       9.153  -0.952  21.342  0.00  0.00    +0.213 HD
ENDBRANCH   4  13
BRANCH   5  15
ATOM     15  O   UNL     1      11.135   0.396  24.283  0.00  0.00    -0.384 OA
ATOM     16  H   UNL     1      12.039   0.614  23.964  0.00  0.00    +0.210 HD
ENDBRANCH   5  15
BRANCH   6  17
ATOM     17  O   UNL     1       8.128   0.556  22.125  0.00  0.00    -0.386 OA
ATOM     18  H   UNL     1       8.715   0.793  21.381  0.00  0.00    +0.210 HD
ENDBRANCH   6  17
TORSDOF 6
ENDMDL
MODEL 8
REMARK VINA RESULT:      -4.5      1.345      3.521
REMARK  Name = 
REMARK  7 active torsions:
REMARK  status: ('A' for Active; 'I' for Inactive)
REMARK    1  A    between atoms: C_1  and  O_2
REMARK    2  A    between atoms: O_2  and  C_3
REMARK    3  A    between atoms: C_5  and  O_7
REMARK    4  A    between atoms: C_8  and  O_10
REMARK    5  A    between atoms: C_11  and  O_13
REMARK    6  A    between atoms: C_15  and  C_17
REMARK    7  A    between atoms: C_17  and  O_18
REMARK                            x       y       z     vdW  Elec       q    Type
REMARK                         _______ _______ _______ _____ _____    ______ ____
ROOT
ATOM      1  C   UNL     1       9.224   1.901  24.161  0.00  0.00    +0.189 C 
ATOM      2  C   UNL     1       8.472   1.128  23.061  0.00  0.00    +0.260 C 
ATOM      3  O   UNL     1       7.870  -0.080  23.536  0.00  0.00    -0.332 OA
ATOM      4  C   UNL     1       8.695  -0.944  24.308  0.00  0.00    +0.280 C 
ATOM      5  C   UNL     1       9.467  -0.257  25.446  0.00  0.00    +0.201 C 
ATOM      6  C   UNL     1      10.211   0.970  24.895  0.00  0.00    +0.180 C 
ENDROOT
BRANCH   1   8
ATOM      7  C   UNL     1       8.204   3.802  25.244  0.00  0.00    +0.194 C 
ATOM      8  O   UNL     1       8.310   2.385  25.176  0.00  0.00    -0.374 OA
ENDBRANCH   1   8
BRANCH   2   9
ATOM      9  C   UNL     1       9.312   1.031  21.780  0.00  0.00    +0.337 C 
ATOM     10  O   UNL     1       9.315   0.061  21.037  0.00  0.00    -0.248 OA
BRANCH   9  11
ATOM     11  O   UNL     1      10.107   2.103  21.562  0.00  0.00    -0.479 OA
ATOM     12  H   UNL     1      10.782   2.194  22.277  0.00  0.00    +0.295 HD
ENDBRANCH   9  11
ENDBRANCH   2   9
BRANCH   4  13
ATOM     13  O   UNL     1       9.593  -1.587  23.411  0.00  0.00    -0.365 OA
ATOM     14  H   UNL     1       9.806  -0.925  22.723  0.00  0.00    +0.213 HD
ENDBRANCH   4  13
BRANCH   5  15
ATOM     15  O   UNL     1       8.577   0.089  26.510  0.00  0.00    -0.384 OA
ATOM     16  H   UNL     1       7.885   0.678  26.133  0.00  0.00    +0.210 HD
ENDBRANCH   5  15
BRANCH   6  17
ATOM     17  O   UNL     1      11.309   0.598  24.060  0.00  0.00    -0.386 OA
ATOM     18  H   UNL     1      11.014  -0.024  23.367  0.00  0.00    +0.210 HD
ENDBRANCH   6  17
TORSDOF 6
ENDMDL
MODEL 9
REMARK VINA RESULT:      -4.5      1.368      3.652
REMARK  Name = 
REMARK  7 active torsions:
REMARK  status: ('A' for Active; 'I' for Inactive)
REMARK    1  A    between atoms: C_1  and  O_2
REMARK    2  A    between atoms: O_2  and  C_3
REMARK    3  A    between atoms: C_5  and  O_7
REMARK    4  A    between atoms: C_8  and  O_10
REMARK    5  A    between atoms: C_11  and  O_13
REMARK    6  A    between atoms: C_15  and  C_17
REMARK    7  A    between atoms: C_17  and  O_18
REMARK                            x       y       z     vdW  Elec       q    Type
REMARK                         _______ _______ _______ _____ _____    ______ ____
ROOT
ATOM      1  C   UNL     1       8.536   0.097  24.327  0.00  0.00    +0.189 C 
ATOM      2  C   UNL     1       8.086   0.136  22.853  0.00  0.00    +0.260 C 
ATOM      3  O   UNL     1       8.096  -1.152  22.229  0.00  0.00    -0.332 OA
ATOM      4  C   UNL     1       9.275  -1.931  22.393  0.00  0.00    +0.280 C 
ATOM      5  C   UNL     1       9.783  -2.042  23.839  0.00  0.00    +0.201 C 
ATOM      6  C   UNL     1       9.885  -0.638  24.458  0.00  0.00    +0.180 C 
ENDROOT
BRANCH   1   8
ATOM      7  C   UNL     1       6.246  -0.225  25.017  0.00  0.00    +0.194 C 
ATOM      8  O   UNL     1       7.597  -0.652  25.138  0.00  0.00    -0.374 OA
ENDBRANCH   1   8
BRANCH   2   9
ATOM      9  C   UNL     1       8.770   1.283  22.096  0.00  0.00    +0.337 C 
ATOM     10  O   UNL     1       9.226   2.280  22.635  0.00  0.00    -0.248 OA
BRANCH   9  11
ATOM     11  O   UNL     1       8.778   1.128  20.753  0.00  0.00    -0.479 OA
ATOM     12  H   UNL     1       9.697   0.991  20.418  0.00  0.00    +0.295 HD
ENDBRANCH   9  11
ENDBRANCH   2   9
BRANCH   4  13
ATOM     13  O   UNL     1      10.276  -1.368  21.554  0.00  0.00    -0.365 OA
ATOM     14  H   UNL     1      10.625  -0.592  22.034  0.00  0.00    +0.213 HD
ENDBRANCH   4  13
BRANCH   5  15
ATOM     15  O   UNL     1       8.928  -2.901  24.599  0.00  0.00    -0.384 OA
ATOM     16  H   UNL     1       8.580  -2.375  25.353  0.00  0.00    +0.210 HD
ENDBRANCH   5  15
BRANCH   6  17
ATOM     17  O   UNL     1      10.957   0.117  23.892  0.00  0.00    -0.386 OA
ATOM     18  H   UNL     1      11.141  -0.183  22.980  0.00  0.00    +0.210 HD
ENDBRANCH   6  17
TORSDOF 6
ENDMDL
