MODEL 1
REMARK VINA RESULT:      -5.7      0.000      0.000
REMARK  Name = 
REMARK  5 active torsions:
REMARK  status: ('A' for Active; 'I' for Inactive)
REMARK    1  A    between atoms: O_1  and  P_2
REMARK    2  A    between atoms: P_2  and  O_3
REMARK    3  A    between atoms: P_2  and  O_5
REMARK    4  A    between atoms: O_5  and  C_6
REMARK    5  A    between atoms: C_13  and  C_16
REMARK                            x       y       z     vdW  Elec       q    Type
REMARK                         _______ _______ _______ _____ _____    ______ ____
ROOT
ATOM      1  C   UNL     1       7.221  -3.475  22.912  0.00  0.00    +0.158 A 
ATOM      2  C   UNL     1       7.398  -3.909  24.221  0.00  0.00    +0.114 A 
ATOM      3  C   UNL     1       8.558  -3.478  24.910  0.00  0.00    +0.004 A 
ATOM      4  C   UNL     1       8.779  -3.963  26.206  0.00  0.00    +0.013 A 
ATOM      5  C   UNL     1       7.879  -4.860  26.773  0.00  0.00    +0.039 A 
ATOM      6  C   UNL     1       6.773  -5.223  26.030  0.00  0.00    +0.141 A 
ATOM      7  C   UNL     1       9.475  -2.609  24.288  0.00  0.00    +0.010 A 
ATOM      8  C   UNL     1       9.258  -2.182  22.980  0.00  0.00    +0.004 A 
ATOM      9  N   UNL     1       6.507  -4.739  24.793  0.00  0.00    -0.233 NA
ATOM     10  C   UNL     1       8.138  -2.624  22.286  0.00  0.00    +0.048 A 
ENDROOT
BRANCH   6  11
ATOM     11  C   UNL     1       5.808  -6.159  26.534  0.00  0.00    +0.119 C 
ATOM     12  N   UNL     1       5.040  -6.925  26.945  0.00  0.00    -0.189 NA
ENDBRANCH   6  11
BRANCH   1  13
ATOM     13  O   UNL     1       6.204  -3.955  22.128  0.00  0.00    -0.402 OA
BRANCH  13  14
ATOM     14  P   UNL     1       6.172  -5.450  21.554  0.00  0.00    +0.528 P 
ATOM     15  O   UNL     1       5.980  -5.617  20.086  0.00  0.00    -0.216 OA
BRANCH  14  16
ATOM     16  O   UNL     1       5.185  -6.357  22.422  0.00  0.00    -0.293 OA
ATOM     17  H   UNL     1       5.353  -6.241  23.376  0.00  0.00    +0.223 HD
ENDBRANCH  14  16
BRANCH  14  18
ATOM     18  O   UNL     1       7.583  -6.051  22.015  0.00  0.00    -0.293 OA
ATOM     19  H   UNL     1       8.153  -5.339  22.354  0.00  0.00    +0.223 HD
ENDBRANCH  14  18
ENDBRANCH  13  14
ENDBRANCH   1  13
TORSDOF 5
ENDMDL
MODEL 2
REMARK VINA RESULT:      -5.6      3.081      4.252
REMARK  Name = 
REMARK  5 active torsions:
REMARK  status: ('A' for Active; 'I' for Inactive)
REMARK    1  A    between atoms: O_1  and  P_2
REMARK    2  A    between atoms: P_2  and  O_3
REMARK    3  A    between atoms: P_2  and  O_5
REMARK    4  A    between atoms: O_5  and  C_6
REMARK    5  A    between atoms: C_13  and  C_16
REMARK                            x       y       z     vdW  Elec       q    Type
REMARK                         _______ _______ _______ _____ _____    ______ ____
ROOT
ATOM      1  C   UNL     1       6.873  -5.029  24.469  0.00  0.00    +0.158 A 
ATOM      2  C   UNL     1       5.846  -5.816  24.977  0.00  0.00    +0.114 A 
ATOM      3  C   UNL     1       4.839  -6.249  24.079  0.00  0.00    +0.004 A 
ATOM      4  C   UNL     1       3.763  -6.987  24.593  0.00  0.00    +0.013 A 
ATOM      5  C   UNL     1       3.697  -7.257  25.957  0.00  0.00    +0.039 A 
ATOM      6  C   UNL     1       4.726  -6.799  26.757  0.00  0.00    +0.141 A 
ATOM      7  C   UNL     1       4.909  -5.916  22.713  0.00  0.00    +0.010 A 
ATOM      8  C   UNL     1       5.962  -5.138  22.236  0.00  0.00    +0.004 A 
ATOM      9  N   UNL     1       5.800  -6.121  26.286  0.00  0.00    -0.233 NA
ATOM     10  C   UNL     1       6.938  -4.683  23.115  0.00  0.00    +0.048 A 
ENDROOT
BRANCH   6  11
ATOM     11  C   UNL     1       4.723  -7.017  28.176  0.00  0.00    +0.119 C 
ATOM     12  N   UNL     1       4.734  -7.200  29.322  0.00  0.00    -0.189 NA
ENDBRANCH   6  11
BRANCH   1  13
ATOM     13  O   UNL     1       7.807  -4.452  25.289  0.00  0.00    -0.402 OA
BRANCH  13  14
ATOM     14  P   UNL     1       9.381  -4.711  25.142  0.00  0.00    +0.528 P 
ATOM     15  O   UNL     1      10.178  -3.688  24.408  0.00  0.00    -0.216 OA
BRANCH  14  16
ATOM     16  O   UNL     1       9.654  -6.200  24.634  0.00  0.00    -0.293 OA
ATOM     17  H   UNL     1      10.355  -6.213  23.956  0.00  0.00    +0.223 HD
ENDBRANCH  14  16
BRANCH  14  18
ATOM     18  O   UNL     1       9.876  -4.836  26.660  0.00  0.00    -0.293 OA
ATOM     19  H   UNL     1      10.704  -4.340  26.781  0.00  0.00    +0.223 HD
ENDBRANCH  14  18
ENDBRANCH  13  14
ENDBRANCH   1  13
TORSDOF 5
ENDMDL
MODEL 3
REMARK VINA RESULT:      -5.5      3.998      5.776
REMARK  Name = 
REMARK  5 active torsions:
REMARK  status: ('A' for Active; 'I' for Inactive)
REMARK    1  A    between atoms: O_1  and  P_2
REMARK    2  A    between atoms: P_2  and  O_3
REMARK    3  A    between atoms: P_2  and  O_5
REMARK    4  A    between atoms: O_5  and  C_6
REMARK    5  A    between atoms: C_13  and  C_16
REMARK                            x       y       z     vdW  Elec       q    Type
REMARK                         _______ _______ _______ _____ _____    ______ ____
ROOT
ATOM      1  C   UNL     1       4.773  -5.695  26.253  0.00  0.00    +0.158 A 
ATOM      2  C   UNL     1       5.553  -5.539  25.113  0.00  0.00    +0.114 A 
ATOM      3  C   UNL     1       5.107  -6.154  23.917  0.00  0.00    +0.004 A 
ATOM      4  C   UNL     1       5.920  -6.059  22.779  0.00  0.00    +0.013 A 
ATOM      5  C   UNL     1       7.138  -5.390  22.851  0.00  0.00    +0.039 A 
ATOM      6  C   UNL     1       7.491  -4.817  24.057  0.00  0.00    +0.141 A 
ATOM      7  C   UNL     1       3.893  -6.866  23.890  0.00  0.00    +0.010 A 
ATOM      8  C   UNL     1       3.128  -6.989  25.049  0.00  0.00    +0.004 A 
ATOM      9  N   UNL     1       6.710  -4.854  25.163  0.00  0.00    -0.233 NA
ATOM     10  C   UNL     1       3.574  -6.415  26.234  0.00  0.00    +0.048 A 
ENDROOT
BRANCH   6  11
ATOM     11  C   UNL     1       8.740  -4.129  24.221  0.00  0.00    +0.119 C 
ATOM     12  N   UNL     1       9.752  -3.573  24.339  0.00  0.00    -0.189 NA
ENDBRANCH   6  11
BRANCH   1  13
ATOM     13  O   UNL     1       5.199  -5.255  27.480  0.00  0.00    -0.402 OA
BRANCH  13  14
ATOM     14  P   UNL     1       6.056  -6.161  28.485  0.00  0.00    +0.528 P 
ATOM     15  O   UNL     1       5.666  -7.593  28.619  0.00  0.00    -0.216 OA
BRANCH  14  16
ATOM     16  O   UNL     1       6.225  -5.424  29.891  0.00  0.00    -0.293 OA
ATOM     17  H   UNL     1       6.296  -6.072  30.617  0.00  0.00    +0.223 HD
ENDBRANCH  14  16
BRANCH  14  18
ATOM     18  O   UNL     1       7.548  -6.028  27.917  0.00  0.00    -0.293 OA
ATOM     19  H   UNL     1       7.675  -6.640  27.171  0.00  0.00    +0.223 HD
ENDBRANCH  14  18
ENDBRANCH  13  14
ENDBRANCH   1  13
TORSDOF 5
ENDMDL
MODEL 4
REMARK VINA RESULT:      -5.5      3.736      4.637
REMARK  Name = 
REMARK  5 active torsions:
REMARK  status: ('A' for Active; 'I' for Inactive)
REMARK    1  A    between atoms: O_1  and  P_2
REMARK    2  A    between atoms: P_2  and  O_3
REMARK    3  A    between atoms: P_2  and  O_5
REMARK    4  A    between atoms: O_5  and  C_6
REMARK    5  A    between atoms: C_13  and  C_16
REMARK                            x       y       z     vdW  Elec       q    Type
REMARK                         _______ _______ _______ _____ _____    ______ ____
ROOT
ATOM      1  C   UNL     1       7.959  -1.080  23.960  0.00  0.00    +0.158 A 
ATOM      2  C   UNL     1       7.602  -2.424  23.973  0.00  0.00    +0.114 A 
ATOM      3  C   UNL     1       7.805  -3.151  25.172  0.00  0.00    +0.004 A 
ATOM      4  C   UNL     1       7.511  -4.521  25.175  0.00  0.00    +0.013 A 
ATOM      5  C   UNL     1       7.051  -5.134  24.014  0.00  0.00    +0.039 A 
ATOM      6  C   UNL     1       6.878  -4.347  22.892  0.00  0.00    +0.141 A 
ATOM      7  C   UNL     1       8.320  -2.511  26.315  0.00  0.00    +0.010 A 
ATOM      8  C   UNL     1       8.653  -1.158  26.271  0.00  0.00    +0.004 A 
ATOM      9  N   UNL     1       7.112  -3.013  22.867  0.00  0.00    -0.233 NA
ATOM     10  C   UNL     1       8.485  -0.445  25.090  0.00  0.00    +0.048 A 
ENDROOT
BRANCH   6  11
ATOM     11  C   UNL     1       6.428  -4.905  21.648  0.00  0.00    +0.119 C 
ATOM     12  N   UNL     1       6.052  -5.362  20.650  0.00  0.00    -0.189 NA
ENDBRANCH   6  11
BRANCH   1  13
ATOM     13  O   UNL     1       7.928  -0.341  22.806  0.00  0.00    -0.402 OA
BRANCH  13  14
ATOM     14  P   UNL     1       9.250   0.159  22.051  0.00  0.00    +0.528 P 
ATOM     15  O   UNL     1      10.415   0.550  22.895  0.00  0.00    -0.216 OA
BRANCH  14  16
ATOM     16  O   UNL     1       8.880   1.254  20.949  0.00  0.00    -0.293 OA
ATOM     17  H   UNL     1       8.632   0.830  20.106  0.00  0.00    +0.223 HD
ENDBRANCH  14  16
BRANCH  14  18
ATOM     18  O   UNL     1       9.622  -1.078  21.105  0.00  0.00    -0.293 OA
ATOM     19  H   UNL     1      10.094  -0.761  20.315  0.00  0.00    +0.223 HD
ENDBRANCH  14  18
ENDBRANCH  13  14
ENDBRANCH   1  13
TORSDOF 5
ENDMDL
MODEL 5
REMARK VINA RESULT:      -5.5      3.051      4.641
REMARK  Name = 
REMARK  5 active torsions:
REMARK  status: ('A' for Active; 'I' for Inactive)
REMARK    1  A    between atoms: O_1  and  P_2
REMARK    2  A    between atoms: P_2  and  O_3
REMARK    3  A    between atoms: P_2  and  O_5
REMARK    4  A    between atoms: O_5  and  C_6
REMARK    5  A    between atoms: C_13  and  C_16
REMARK                            x       y       z     vdW  Elec       q    Type
REMARK                         _______ _______ _______ _____ _____    ______ ____
ROOT
ATOM      1  C   UNL     1       8.501  -4.138  24.898  0.00  0.00    +0.158 A 
ATOM      2  C   UNL     1       7.380  -4.752  24.351  0.00  0.00    +0.114 A 
ATOM      3  C   UNL     1       6.447  -5.340  25.241  0.00  0.00    +0.004 A 
ATOM      4  C   UNL     1       5.348  -6.019  24.697  0.00  0.00    +0.013 A 
ATOM      5  C   UNL     1       5.207  -6.116  23.316  0.00  0.00    +0.039 A 
ATOM      6  C   UNL     1       6.162  -5.507  22.525  0.00  0.00    +0.141 A 
ATOM      7  C   UNL     1       6.645  -5.267  26.633  0.00  0.00    +0.010 A 
ATOM      8  C   UNL     1       7.774  -4.631  27.147  0.00  0.00    +0.004 A 
ATOM      9  N   UNL     1       7.213  -4.808  23.018  0.00  0.00    -0.233 NA
ATOM     10  C   UNL     1       8.709  -4.078  26.280  0.00  0.00    +0.048 A 
ENDROOT
BRANCH   6  11
ATOM     11  C   UNL     1       6.102  -5.579  21.092  0.00  0.00    +0.119 C 
ATOM     12  N   UNL     1       6.068  -5.641  19.934  0.00  0.00    -0.189 NA
ENDBRANCH   6  11
BRANCH   1  13
ATOM     13  O   UNL     1       9.519  -3.670  24.109  0.00  0.00    -0.402 OA
BRANCH  13  14
ATOM     14  P   UNL     1       9.551  -2.184  23.512  0.00  0.00    +0.528 P 
ATOM     15  O   UNL     1       9.569  -1.054  24.485  0.00  0.00    -0.216 OA
BRANCH  14  16
ATOM     16  O   UNL     1       8.439  -2.017  22.379  0.00  0.00    -0.293 OA
ATOM     17  H   UNL     1       8.541  -2.698  21.688  0.00  0.00    +0.223 HD
ENDBRANCH  14  16
BRANCH  14  18
ATOM     18  O   UNL     1      10.875  -2.179  22.610  0.00  0.00    -0.293 OA
ATOM     19  H   UNL     1      10.661  -2.463  21.705  0.00  0.00    +0.223 HD
ENDBRANCH  14  18
ENDBRANCH  13  14
ENDBRANCH   1  13
TORSDOF 5
ENDMDL
MODEL 6
REMARK VINA RESULT:      -5.5      1.906      3.994
REMARK  Name = 
REMARK  5 active torsions:
REMARK  status: ('A' for Active; 'I' for Inactive)
REMARK    1  A    between atoms: O_1  and  P_2
REMARK    2  A    between atoms: P_2  and  O_3
REMARK    3  A    between atoms: P_2  and  O_5
REMARK    4  A    between atoms: O_5  and  C_6
REMARK    5  A    between atoms: C_13  and  C_16
REMARK                            x       y       z     vdW  Elec       q    Type
REMARK                         _______ _______ _______ _____ _____    ______ ____
ROOT
ATOM      1  C   UNL     1       6.736  -5.121  24.499  0.00  0.00    +0.158 A 
ATOM      2  C   UNL     1       7.583  -4.059  24.793  0.00  0.00    +0.114 A 
ATOM      3  C   UNL     1       7.529  -3.512  26.100  0.00  0.00    +0.004 A 
ATOM      4  C   UNL     1       8.331  -2.398  26.386  0.00  0.00    +0.013 A 
ATOM      5  C   UNL     1       9.135  -1.849  25.392  0.00  0.00    +0.039 A 
ATOM      6  C   UNL     1       9.128  -2.451  24.148  0.00  0.00    +0.141 A 
ATOM      7  C   UNL     1       6.667  -4.060  27.067  0.00  0.00    +0.010 A 
ATOM      8  C   UNL     1       5.842  -5.136  26.742  0.00  0.00    +0.004 A 
ATOM      9  N   UNL     1       8.398  -3.552  23.851  0.00  0.00    -0.233 NA
ATOM     10  C   UNL     1       5.866  -5.659  25.454  0.00  0.00    +0.048 A 
ENDROOT
BRANCH   6  11
ATOM     11  C   UNL     1       9.913  -1.933  23.064  0.00  0.00    +0.119 C 
ATOM     12  N   UNL     1      10.543  -1.527  22.178  0.00  0.00    -0.189 NA
ENDBRANCH   6  11
BRANCH   1  13
ATOM     13  O   UNL     1       6.622  -5.617  23.226  0.00  0.00    -0.402 OA
BRANCH  13  14
ATOM     14  P   UNL     1       5.424  -5.223  22.238  0.00  0.00    +0.528 P 
ATOM     15  O   UNL     1       4.956  -3.808  22.258  0.00  0.00    -0.216 OA
BRANCH  14  16
ATOM     16  O   UNL     1       4.232  -6.278  22.362  0.00  0.00    -0.293 OA
ATOM     17  H   UNL     1       3.490  -5.907  22.876  0.00  0.00    +0.223 HD
ENDBRANCH  14  16
BRANCH  14  18
ATOM     18  O   UNL     1       5.996  -5.613  20.794  0.00  0.00    -0.293 OA
ATOM     19  H   UNL     1       6.865  -6.040  20.885  0.00  0.00    +0.223 HD
ENDBRANCH  14  18
ENDBRANCH  13  14
ENDBRANCH   1  13
TORSDOF 5
ENDMDL
MODEL 7
REMARK VINA RESULT:      -5.5      7.264      9.165
REMARK  Name = 
REMARK  5 active torsions:
REMARK  status: ('A' for Active; 'I' for Inactive)
REMARK    1  A    between atoms: O_1  and  P_2
REMARK    2  A    between atoms: P_2  and  O_3
REMARK    3  A    between atoms: P_2  and  O_5
REMARK    4  A    between atoms: O_5  and  C_6
REMARK    5  A    between atoms: C_13  and  C_16
REMARK                            x       y       z     vdW  Elec       q    Type
REMARK                         _______ _______ _______ _____ _____    ______ ____
ROOT
ATOM      1  C   UNL     1       9.343   2.239  23.992  0.00  0.00    +0.158 A 
ATOM      2  C   UNL     1       9.888   3.517  24.039  0.00  0.00    +0.114 A 
ATOM      3  C   UNL     1       9.151   4.526  24.709  0.00  0.00    +0.004 A 
ATOM      4  C   UNL     1       9.661   5.832  24.704  0.00  0.00    +0.013 A 
ATOM      5  C   UNL     1      10.850   6.111  24.037  0.00  0.00    +0.039 A 
ATOM      6  C   UNL     1      11.503   5.064  23.416  0.00  0.00    +0.141 A 
ATOM      7  C   UNL     1       7.926   4.222  25.330  0.00  0.00    +0.010 A 
ATOM      8  C   UNL     1       7.417   2.925  25.276  0.00  0.00    +0.004 A 
ATOM      9  N   UNL     1      11.061   3.784  23.437  0.00  0.00    -0.233 NA
ATOM     10  C   UNL     1       8.118   1.936  24.596  0.00  0.00    +0.048 A 
ENDROOT
BRANCH   6  11
ATOM     11  C   UNL     1      12.723   5.271  22.689  0.00  0.00    +0.119 C 
ATOM     12  N   UNL     1      13.702   5.445  22.090  0.00  0.00    -0.189 NA
ENDBRANCH   6  11
BRANCH   1  13
ATOM     13  O   UNL     1       9.917   1.241  23.249  0.00  0.00    -0.402 OA
BRANCH  13  14
ATOM     14  P   UNL     1       9.120   0.410  22.136  0.00  0.00    +0.528 P 
ATOM     15  O   UNL     1       7.832  -0.222  22.543  0.00  0.00    -0.216 OA
BRANCH  14  16
ATOM     16  O   UNL     1      10.103  -0.601  21.387  0.00  0.00    -0.293 OA
ATOM     17  H   UNL     1      11.023  -0.483  21.692  0.00  0.00    +0.223 HD
ENDBRANCH  14  16
BRANCH  14  18
ATOM     18  O   UNL     1       8.883   1.485  20.973  0.00  0.00    -0.293 OA
ATOM     19  H   UNL     1       8.808   2.376  21.355  0.00  0.00    +0.223 HD
ENDBRANCH  14  18
ENDBRANCH  13  14
ENDBRANCH   1  13
TORSDOF 5
ENDMDL
MODEL 8
REMARK VINA RESULT:      -5.4      2.288      4.291
REMARK  Name = 
REMARK  5 active torsions:
REMARK  status: ('A' for Active; 'I' for Inactive)
REMARK    1  A    between atoms: O_1  and  P_2
REMARK    2  A    between atoms: P_2  and  O_3
REMARK    3  A    between atoms: P_2  and  O_5
REMARK    4  A    between atoms: O_5  and  C_6
REMARK    5  A    between atoms: C_13  and  C_16
REMARK                            x       y       z     vdW  Elec       q    Type
REMARK                         _______ _______ _______ _____ _____    ______ ____
ROOT
ATOM      1  C   UNL     1       7.723  -4.291  23.813  0.00  0.00    +0.158 A 
ATOM      2  C   UNL     1       8.222  -3.016  24.055  0.00  0.00    +0.114 A 
ATOM      3  C   UNL     1       8.390  -2.616  25.404  0.00  0.00    +0.004 A 
ATOM      4  C   UNL     1       8.828  -1.309  25.659  0.00  0.00    +0.013 A 
ATOM      5  C   UNL     1       9.068  -0.439  24.600  0.00  0.00    +0.039 A 
ATOM      6  C   UNL     1       8.882  -0.916  23.317  0.00  0.00    +0.141 A 
ATOM      7  C   UNL     1       8.090  -3.504  26.454  0.00  0.00    +0.010 A 
ATOM      8  C   UNL     1       7.606  -4.781  26.174  0.00  0.00    +0.004 A 
ATOM      9  N   UNL     1       8.501  -2.185  23.035  0.00  0.00    -0.233 NA
ATOM     10  C   UNL     1       7.410  -5.171  24.854  0.00  0.00    +0.048 A 
ENDROOT
BRANCH   6  11
ATOM     11  C   UNL     1       9.087  -0.076  22.171  0.00  0.00    +0.119 C 
ATOM     12  N   UNL     1       9.248   0.591  21.235  0.00  0.00    -0.189 NA
ENDBRANCH   6  11
BRANCH   1  13
ATOM     13  O   UNL     1       7.398  -4.706  22.548  0.00  0.00    -0.402 OA
BRANCH  13  14
ATOM     14  P   UNL     1       5.914  -5.131  22.120  0.00  0.00    +0.528 P 
ATOM     15  O   UNL     1       4.801  -4.218  22.508  0.00  0.00    -0.216 OA
BRANCH  14  16
ATOM     16  O   UNL     1       5.638  -6.655  22.511  0.00  0.00    -0.293 OA
ATOM     17  H   UNL     1       6.298  -7.245  22.099  0.00  0.00    +0.223 HD
ENDBRANCH  14  16
BRANCH  14  18
ATOM     18  O   UNL     1       6.014  -5.263  20.528  0.00  0.00    -0.293 OA
ATOM     19  H   UNL     1       6.811  -4.806  20.206  0.00  0.00    +0.223 HD
ENDBRANCH  14  18
ENDBRANCH  13  14
ENDBRANCH   1  13
TORSDOF 5
ENDMDL
MODEL 9
REMARK VINA RESULT:      -5.4      2.854      3.965
REMARK  Name = 
REMARK  5 active torsions:
REMARK  status: ('A' for Active; 'I' for Inactive)
REMARK    1  A    between atoms: O_1  and  P_2
REMARK    2  A    between atoms: P_2  and  O_3
REMARK    3  A    between atoms: P_2  and  O_5
REMARK    4  A    between atoms: O_5  and  C_6
REMARK    5  A    between atoms: C_13  and  C_16
REMARK                            x       y       z     vdW  Elec       q    Type
REMARK                         _______ _______ _______ _____ _____    ______ ____
ROOT
ATOM      1  C   UNL     1       7.511  -4.957  23.308  0.00  0.00    +0.158 A 
ATOM      2  C   UNL     1       6.597  -5.465  24.224  0.00  0.00    +0.114 A 
ATOM      3  C   UNL     1       5.376  -5.981  23.723  0.00  0.00    +0.004 A 
ATOM      4  C   UNL     1       4.421  -6.434  24.643  0.00  0.00    +0.013 A 
ATOM      5  C   UNL     1       4.678  -6.350  26.008  0.00  0.00    +0.039 A 
ATOM      6  C   UNL     1       5.897  -5.837  26.406  0.00  0.00    +0.141 A 
ATOM      7  C   UNL     1       5.126  -6.005  22.338  0.00  0.00    +0.010 A 
ATOM      8  C   UNL     1       6.073  -5.501  21.447  0.00  0.00    +0.004 A 
ATOM      9  N   UNL     1       6.859  -5.431  25.543  0.00  0.00    -0.233 NA
ATOM     10  C   UNL     1       7.260  -4.965  21.932  0.00  0.00    +0.048 A 
ENDROOT
BRANCH   6  11
ATOM     11  C   UNL     1       6.232  -5.697  27.795  0.00  0.00    +0.119 C 
ATOM     12  N   UNL     1       6.497  -5.598  28.920  0.00  0.00    -0.189 NA
ENDBRANCH   6  11
BRANCH   1  13
ATOM     13  O   UNL     1       8.651  -4.313  23.713  0.00  0.00    -0.402 OA
BRANCH  13  14
ATOM     14  P   UNL     1       8.689  -2.758  24.096  0.00  0.00    +0.528 P 
ATOM     15  O   UNL     1       7.605  -1.891  23.550  0.00  0.00    -0.216 OA
BRANCH  14  16
ATOM     16  O   UNL     1      10.150  -2.161  23.852  0.00  0.00    -0.293 OA
ATOM     17  H   UNL     1      10.518  -1.793  24.678  0.00  0.00    +0.223 HD
ENDBRANCH  14  16
BRANCH  14  18
ATOM     18  O   UNL     1       8.654  -2.772  25.697  0.00  0.00    -0.293 OA
ATOM     19  H   UNL     1       9.076  -1.968  26.045  0.00  0.00    +0.223 HD
ENDBRANCH  14  18
ENDBRANCH  13  14
ENDBRANCH   1  13
TORSDOF 5
ENDMDL
