MODEL 1
REMARK VINA RESULT:      -7.0      0.000      0.000
REMARK  Name = 
REMARK  15 active torsions:
REMARK  status: ('A' for Active; 'I' for Inactive)
REMARK    1  A    between atoms: C_2  and  C_26
REMARK    2  A    between atoms: C_3  and  O_5
REMARK    3  A    between atoms: O_5  and  C_6
REMARK    4  A    between atoms: C_7  and  O_14
REMARK    5  A    between atoms: O_14  and  C_15
REMARK    6  A    between atoms: N_17  and  C_18
REMARK    7  A    between atoms: C_18  and  C_20
REMARK    8  A    between atoms: C_18  and  C_23
REMARK    9  A    between atoms: C_20  and  C_21
REMARK   10  A    between atoms: C_20  and  C_22
REMARK   11  A    between atoms: C_26  and  C_27
REMARK   12  A    between atoms: C_29  and  C_31
REMARK   13  A    between atoms: C_31  and  C_32
REMARK   14  A    between atoms: C_33  and  C_34
REMARK   15  A    between atoms: C_33  and  C_35
REMARK                            x       y       z     vdW  Elec       q    Type
REMARK                         _______ _______ _______ _____ _____    ______ ____
ROOT
ATOM      1  C   UNL     1       7.711  -2.285  24.159  0.00  0.00    +0.090 C 
ATOM      2  C   UNL     1       8.326  -2.619  25.524  0.00  0.00    +0.101 C 
ATOM      3  O   UNL     1       8.964  -1.543  26.228  0.00  0.00    -0.368 OA
ATOM      4  C   UNL     1       7.722  -1.981  26.772  0.00  0.00    +0.196 C 
ATOM      5  C   UNL     1       9.046  -3.932  25.647  0.00  0.00    +0.041 C 
ATOM      6  C   UNL     1       8.158  -5.093  25.213  0.00  0.00    +0.050 C 
ATOM      7  C   UNL     1       7.589  -4.857  23.806  0.00  0.00    +0.207 C 
ATOM      8  C   UNL     1       6.790  -3.507  23.769  0.00  0.00    +0.167 C 
ENDROOT
BRANCH   1   9
ATOM      9  C   UNL     1       8.728  -1.760  23.113  0.00  0.00    +0.101 C 
ATOM     10  C   UNL     1       8.517  -0.456  22.320  0.00  0.00    +0.155 C 
ATOM     11  O   UNL     1       8.263  -1.763  21.765  0.00  0.00    -0.364 OA
ATOM     12  C   UNL     1      10.163  -2.192  23.296  0.00  0.00    +0.045 C 
BRANCH  10  13
ATOM     13  C   UNL     1       9.601   0.284  21.558  0.00  0.00    +0.061 C 
BRANCH  13  14
ATOM     14  C   UNL     1       9.914   1.673  22.061  0.00  0.00    -0.026 C 
ATOM     15  C   UNL     1      10.467   2.057  23.231  0.00  0.00    -0.080 C 
ATOM     16  C   UNL     1      10.762   3.516  23.489  0.00  0.00    +0.038 C 
ATOM     17  C   UNL     1      10.860   1.156  24.371  0.00  0.00    +0.038 C 
ENDBRANCH  13  14
ENDBRANCH  10  13
ENDBRANCH   1   9
BRANCH   8  18
ATOM     18  O   UNL     1       5.731  -3.652  24.756  0.00  0.00    -0.376 OA
ATOM     19  C   UNL     1       4.688  -2.693  24.712  0.00  0.00    +0.194 C 
ENDBRANCH   8  18
BRANCH   7  20
ATOM     20  O   UNL     1       6.802  -6.043  23.469  0.00  0.00    -0.444 OA
BRANCH  20  21
ATOM     21  C   UNL     1       6.088  -5.943  22.323  0.00  0.00    +0.401 C 
ATOM     22  N   UNL     1       4.734  -6.048  22.441  0.00  0.00    -0.270 N 
ATOM     23  H   UNL     1       4.302  -5.977  21.530  0.00  0.00    +0.153 HD
ATOM     24  O   UNL     1       6.585  -5.850  21.207  0.00  0.00    -0.226 OA
BRANCH  22  25
ATOM     25  C   UNL     1       3.794  -6.036  23.574  0.00  0.00    +0.164 C 
BRANCH  25  26
ATOM     26  C   UNL     1       2.345  -5.581  23.279  0.00  0.00    +0.231 C 
ATOM     27  O   UNL     1       1.645  -6.060  22.394  0.00  0.00    -0.274 OA
ATOM     28  N   UNL     1       1.783  -4.752  24.207  0.00  0.00    -0.328 N 
ATOM     29  H   UNL     1       0.844  -4.426  24.026  0.00  0.00    +0.145 HD
ATOM     30  H   UNL     1       2.369  -4.204  24.821  0.00  0.00    +0.145 HD
ENDBRANCH  25  26
BRANCH  25  31
ATOM     31  C   UNL     1       3.871  -7.219  24.568  0.00  0.00    +0.012 C 
ATOM     32  C   UNL     1       2.537  -7.965  24.671  0.00  0.00    +0.009 C 
ATOM     33  C   UNL     1       4.393  -6.842  25.950  0.00  0.00    +0.009 C 
ENDBRANCH  25  31
ENDBRANCH  22  25
ENDBRANCH  20  21
ENDBRANCH   7  20
TORSDOF 9
ENDMDL
MODEL 2
REMARK VINA RESULT:      -6.7      2.899      4.440
REMARK  Name = 
REMARK  15 active torsions:
REMARK  status: ('A' for Active; 'I' for Inactive)
REMARK    1  A    between atoms: C_2  and  C_26
REMARK    2  A    between atoms: C_3  and  O_5
REMARK    3  A    between atoms: O_5  and  C_6
REMARK    4  A    between atoms: C_7  and  O_14
REMARK    5  A    between atoms: O_14  and  C_15
REMARK    6  A    between atoms: N_17  and  C_18
REMARK    7  A    between atoms: C_18  and  C_20
REMARK    8  A    between atoms: C_18  and  C_23
REMARK    9  A    between atoms: C_20  and  C_21
REMARK   10  A    between atoms: C_20  and  C_22
REMARK   11  A    between atoms: C_26  and  C_27
REMARK   12  A    between atoms: C_29  and  C_31
REMARK   13  A    between atoms: C_31  and  C_32
REMARK   14  A    between atoms: C_33  and  C_34
REMARK   15  A    between atoms: C_33  and  C_35
REMARK                            x       y       z     vdW  Elec       q    Type
REMARK                         _______ _______ _______ _____ _____    ______ ____
ROOT
ATOM      1  C   UNL     1       8.598   0.225  24.149  0.00  0.00    +0.090 C 
ATOM      2  C   UNL     1      10.083   0.211  23.762  0.00  0.00    +0.101 C 
ATOM      3  O   UNL     1      10.714   1.487  23.571  0.00  0.00    -0.368 OA
ATOM      4  C   UNL     1      11.098   0.781  24.748  0.00  0.00    +0.196 C 
ATOM      5  C   UNL     1      10.524  -0.834  22.777  0.00  0.00    +0.041 C 
ATOM      6  C   UNL     1      10.125  -2.232  23.239  0.00  0.00    +0.050 C 
ATOM      7  C   UNL     1       8.623  -2.304  23.549  0.00  0.00    +0.207 C 
ATOM      8  C   UNL     1       8.247  -1.236  24.635  0.00  0.00    +0.167 C 
ENDROOT
BRANCH   1   9
ATOM      9  C   UNL     1       7.674   0.901  23.104  0.00  0.00    +0.101 C 
ATOM     10  C   UNL     1       6.686   2.028  23.463  0.00  0.00    +0.155 C 
ATOM     11  O   UNL     1       6.281   0.656  23.284  0.00  0.00    -0.364 OA
ATOM     12  C   UNL     1       8.148   0.876  21.671  0.00  0.00    +0.045 C 
BRANCH  10  13
ATOM     13  C   UNL     1       6.021   2.954  22.461  0.00  0.00    +0.061 C 
BRANCH  13  14
ATOM     14  C   UNL     1       6.780   4.219  22.144  0.00  0.00    -0.026 C 
ATOM     15  C   UNL     1       6.769   5.409  22.783  0.00  0.00    -0.080 C 
ATOM     16  C   UNL     1       7.681   6.524  22.328  0.00  0.00    +0.038 C 
ATOM     17  C   UNL     1       5.919   5.776  23.970  0.00  0.00    +0.038 C 
ENDBRANCH  13  14
ENDBRANCH  10  13
ENDBRANCH   1   9
BRANCH   8  18
ATOM     18  O   UNL     1       9.050  -1.566  25.803  0.00  0.00    -0.376 OA
ATOM     19  C   UNL     1       8.726  -0.891  27.007  0.00  0.00    +0.194 C 
ENDBRANCH   8  18
BRANCH   7  20
ATOM     20  O   UNL     1       8.341  -3.688  23.929  0.00  0.00    -0.444 OA
BRANCH  20  21
ATOM     21  C   UNL     1       7.182  -4.186  23.435  0.00  0.00    +0.401 C 
ATOM     22  N   UNL     1       6.263  -4.604  24.350  0.00  0.00    -0.270 N 
ATOM     23  H   UNL     1       5.448  -4.971  23.878  0.00  0.00    +0.153 HD
ATOM     24  O   UNL     1       6.956  -4.353  22.242  0.00  0.00    -0.226 OA
BRANCH  22  25
ATOM     25  C   UNL     1       6.118  -4.455  25.807  0.00  0.00    +0.164 C 
BRANCH  25  26
ATOM     26  C   UNL     1       7.218  -5.089  26.691  0.00  0.00    +0.231 C 
ATOM     27  O   UNL     1       7.112  -6.181  27.239  0.00  0.00    -0.274 OA
ATOM     28  N   UNL     1       8.433  -4.465  26.664  0.00  0.00    -0.328 N 
ATOM     29  H   UNL     1       9.161  -4.849  27.249  0.00  0.00    +0.145 HD
ATOM     30  H   UNL     1       8.501  -3.495  26.391  0.00  0.00    +0.145 HD
ENDBRANCH  25  26
BRANCH  25  31
ATOM     31  C   UNL     1       5.630  -3.084  26.332  0.00  0.00    +0.012 C 
ATOM     32  C   UNL     1       4.988  -3.198  27.718  0.00  0.00    +0.009 C 
ATOM     33  C   UNL     1       4.717  -2.335  25.368  0.00  0.00    +0.009 C 
ENDBRANCH  25  31
ENDBRANCH  22  25
ENDBRANCH  20  21
ENDBRANCH   7  20
TORSDOF 9
ENDMDL
MODEL 3
REMARK VINA RESULT:      -6.6      2.307      3.528
REMARK  Name = 
REMARK  15 active torsions:
REMARK  status: ('A' for Active; 'I' for Inactive)
REMARK    1  A    between atoms: C_2  and  C_26
REMARK    2  A    between atoms: C_3  and  O_5
REMARK    3  A    between atoms: O_5  and  C_6
REMARK    4  A    between atoms: C_7  and  O_14
REMARK    5  A    between atoms: O_14  and  C_15
REMARK    6  A    between atoms: N_17  and  C_18
REMARK    7  A    between atoms: C_18  and  C_20
REMARK    8  A    between atoms: C_18  and  C_23
REMARK    9  A    between atoms: C_20  and  C_21
REMARK   10  A    between atoms: C_20  and  C_22
REMARK   11  A    between atoms: C_26  and  C_27
REMARK   12  A    between atoms: C_29  and  C_31
REMARK   13  A    between atoms: C_31  and  C_32
REMARK   14  A    between atoms: C_33  and  C_34
REMARK   15  A    between atoms: C_33  and  C_35
REMARK                            x       y       z     vdW  Elec       q    Type
REMARK                         _______ _______ _______ _____ _____    ______ ____
ROOT
ATOM      1  C   UNL     1       8.220   0.282  23.803  0.00  0.00    +0.090 C 
ATOM      2  C   UNL     1       9.716  -0.052  23.781  0.00  0.00    +0.101 C 
ATOM      3  O   UNL     1      10.626   1.036  24.003  0.00  0.00    -0.368 OA
ATOM      4  C   UNL     1      10.516   0.099  25.072  0.00  0.00    +0.196 C 
ATOM      5  C   UNL     1      10.185  -1.028  22.739  0.00  0.00    +0.041 C 
ATOM      6  C   UNL     1       9.393  -2.330  22.805  0.00  0.00    +0.050 C 
ATOM      7  C   UNL     1       7.883  -2.062  22.732  0.00  0.00    +0.207 C 
ATOM      8  C   UNL     1       7.452  -1.095  23.890  0.00  0.00    +0.167 C 
ENDROOT
BRANCH   1   9
ATOM      9  C   UNL     1       7.781   1.308  22.727  0.00  0.00    +0.101 C 
ATOM     10  C   UNL     1       7.005   2.596  23.063  0.00  0.00    +0.155 C 
ATOM     11  O   UNL     1       6.372   1.413  22.533  0.00  0.00    -0.364 OA
ATOM     12  C   UNL     1       8.606   1.351  21.463  0.00  0.00    +0.045 C 
BRANCH  10  13
ATOM     13  C   UNL     1       6.852   3.788  22.136  0.00  0.00    +0.061 C 
BRANCH  13  14
ATOM     14  C   UNL     1       7.316   5.110  22.697  0.00  0.00    -0.026 C 
ATOM     15  C   UNL     1       8.450   5.406  23.367  0.00  0.00    -0.080 C 
ATOM     16  C   UNL     1       8.743   6.832  23.770  0.00  0.00    +0.038 C 
ATOM     17  C   UNL     1       9.526   4.435  23.774  0.00  0.00    +0.038 C 
ENDBRANCH  13  14
ENDBRANCH  10  13
ENDBRANCH   1   9
BRANCH   8  18
ATOM     18  O   UNL     1       7.815  -1.776  25.124  0.00  0.00    -0.376 OA
ATOM     19  C   UNL     1       7.215  -1.294  26.314  0.00  0.00    +0.194 C 
ENDBRANCH   8  18
BRANCH   7  20
ATOM     20  O   UNL     1       7.226  -3.369  22.749  0.00  0.00    -0.444 OA
BRANCH  20  21
ATOM     21  C   UNL     1       5.958  -3.372  22.272  0.00  0.00    +0.401 C 
ATOM     22  N   UNL     1       4.973  -3.663  23.167  0.00  0.00    -0.270 N 
ATOM     23  H   UNL     1       4.074  -3.656  22.705  0.00  0.00    +0.153 HD
ATOM     24  O   UNL     1       5.666  -3.214  21.092  0.00  0.00    -0.226 OA
BRANCH  22  25
ATOM     25  C   UNL     1       4.914  -3.779  24.633  0.00  0.00    +0.164 C 
BRANCH  25  26
ATOM     26  C   UNL     1       3.735  -3.076  25.346  0.00  0.00    +0.231 C 
ATOM     27  O   UNL     1       3.796  -1.947  25.820  0.00  0.00    -0.274 OA
ATOM     28  N   UNL     1       2.522  -3.694  25.236  0.00  0.00    -0.328 N 
ATOM     29  H   UNL     1       1.741  -3.264  25.710  0.00  0.00    +0.145 HD
ATOM     30  H   UNL     1       2.471  -4.682  25.029  0.00  0.00    +0.145 HD
ENDBRANCH  25  26
BRANCH  25  31
ATOM     31  C   UNL     1       5.265  -5.154  25.248  0.00  0.00    +0.012 C 
ATOM     32  C   UNL     1       6.728  -5.224  25.695  0.00  0.00    +0.009 C 
ATOM     33  C   UNL     1       4.908  -6.344  24.363  0.00  0.00    +0.009 C 
ENDBRANCH  25  31
ENDBRANCH  22  25
ENDBRANCH  20  21
ENDBRANCH   7  20
TORSDOF 9
ENDMDL
MODEL 4
REMARK VINA RESULT:      -6.5      3.084      8.338
REMARK  Name = 
REMARK  15 active torsions:
REMARK  status: ('A' for Active; 'I' for Inactive)
REMARK    1  A    between atoms: C_2  and  C_26
REMARK    2  A    between atoms: C_3  and  O_5
REMARK    3  A    between atoms: O_5  and  C_6
REMARK    4  A    between atoms: C_7  and  O_14
REMARK    5  A    between atoms: O_14  and  C_15
REMARK    6  A    between atoms: N_17  and  C_18
REMARK    7  A    between atoms: C_18  and  C_20
REMARK    8  A    between atoms: C_18  and  C_23
REMARK    9  A    between atoms: C_20  and  C_21
REMARK   10  A    between atoms: C_20  and  C_22
REMARK   11  A    between atoms: C_26  and  C_27
REMARK   12  A    between atoms: C_29  and  C_31
REMARK   13  A    between atoms: C_31  and  C_32
REMARK   14  A    between atoms: C_33  and  C_34
REMARK   15  A    between atoms: C_33  and  C_35
REMARK                            x       y       z     vdW  Elec       q    Type
REMARK                         _______ _______ _______ _____ _____    ______ ____
ROOT
ATOM      1  C   UNL     1       8.019  -3.638  23.781  0.00  0.00    +0.090 C 
ATOM      2  C   UNL     1       8.454  -4.079  25.184  0.00  0.00    +0.101 C 
ATOM      3  O   UNL     1       8.443  -5.489  25.453  0.00  0.00    -0.368 OA
ATOM      4  C   UNL     1       9.734  -4.898  25.327  0.00  0.00    +0.196 C 
ATOM      5  C   UNL     1       7.988  -3.240  26.341  0.00  0.00    +0.041 C 
ATOM      6  C   UNL     1       8.365  -1.775  26.148  0.00  0.00    +0.050 C 
ATOM      7  C   UNL     1       7.867  -1.249  24.794  0.00  0.00    +0.207 C 
ATOM      8  C   UNL     1       8.449  -2.126  23.630  0.00  0.00    +0.167 C 
ENDROOT
BRANCH   1   9
ATOM      9  C   UNL     1       6.568  -4.036  23.410  0.00  0.00    +0.101 C 
ATOM     10  C   UNL     1       6.166  -5.470  23.014  0.00  0.00    +0.155 C 
ATOM     11  O   UNL     1       6.376  -4.418  22.050  0.00  0.00    -0.364 OA
ATOM     12  C   UNL     1       5.467  -3.185  23.996  0.00  0.00    +0.045 C 
BRANCH  10  13
ATOM     13  C   UNL     1       4.744  -5.998  22.981  0.00  0.00    +0.061 C 
BRANCH  13  14
ATOM     14  C   UNL     1       4.245  -6.601  24.271  0.00  0.00    -0.026 C 
ATOM     15  C   UNL     1       3.200  -6.233  25.043  0.00  0.00    -0.080 C 
ATOM     16  C   UNL     1       2.836  -7.042  26.265  0.00  0.00    +0.038 C 
ATOM     17  C   UNL     1       2.292  -5.055  24.812  0.00  0.00    +0.038 C 
ENDBRANCH  13  14
ENDBRANCH  10  13
ENDBRANCH   1   9
BRANCH   8  18
ATOM     18  O   UNL     1       9.896  -2.019  23.746  0.00  0.00    -0.376 OA
ATOM     19  C   UNL     1      10.583  -1.471  22.634  0.00  0.00    +0.194 C 
ENDBRANCH   8  18
BRANCH   7  20
ATOM     20  O   UNL     1       8.232   0.166  24.736  0.00  0.00    -0.444 OA
BRANCH  20  21
ATOM     21  C   UNL     1       7.396   0.937  24.000  0.00  0.00    +0.401 C 
ATOM     22  N   UNL     1       7.789   2.223  23.784  0.00  0.00    -0.270 N 
ATOM     23  H   UNL     1       7.089   2.712  23.242  0.00  0.00    +0.153 HD
ATOM     24  O   UNL     1       6.295   0.573  23.601  0.00  0.00    -0.226 OA
BRANCH  22  25
ATOM     25  C   UNL     1       9.046   2.964  23.980  0.00  0.00    +0.164 C 
BRANCH  25  26
ATOM     26  C   UNL     1      10.293   2.442  23.228  0.00  0.00    +0.231 C 
ATOM     27  O   UNL     1      11.291   1.996  23.785  0.00  0.00    -0.274 OA
ATOM     28  N   UNL     1      10.153   2.293  21.878  0.00  0.00    -0.328 N 
ATOM     29  H   UNL     1      10.961   1.973  21.363  0.00  0.00    +0.145 HD
ATOM     30  H   UNL     1       9.444   2.812  21.380  0.00  0.00    +0.145 HD
ENDBRANCH  25  26
BRANCH  25  31
ATOM     31  C   UNL     1       8.958   4.508  24.014  0.00  0.00    +0.012 C 
ATOM     32  C   UNL     1       7.920   5.043  23.023  0.00  0.00    +0.009 C 
ATOM     33  C   UNL     1      10.297   5.215  23.837  0.00  0.00    +0.009 C 
ENDBRANCH  25  31
ENDBRANCH  22  25
ENDBRANCH  20  21
ENDBRANCH   7  20
TORSDOF 9
ENDMDL
MODEL 5
REMARK VINA RESULT:      -6.4      2.537      4.733
REMARK  Name = 
REMARK  15 active torsions:
REMARK  status: ('A' for Active; 'I' for Inactive)
REMARK    1  A    between atoms: C_2  and  C_26
REMARK    2  A    between atoms: C_3  and  O_5
REMARK    3  A    between atoms: O_5  and  C_6
REMARK    4  A    between atoms: C_7  and  O_14
REMARK    5  A    between atoms: O_14  and  C_15
REMARK    6  A    between atoms: N_17  and  C_18
REMARK    7  A    between atoms: C_18  and  C_20
REMARK    8  A    between atoms: C_18  and  C_23
REMARK    9  A    between atoms: C_20  and  C_21
REMARK   10  A    between atoms: C_20  and  C_22
REMARK   11  A    between atoms: C_26  and  C_27
REMARK   12  A    between atoms: C_29  and  C_31
REMARK   13  A    between atoms: C_31  and  C_32
REMARK   14  A    between atoms: C_33  and  C_34
REMARK   15  A    between atoms: C_33  and  C_35
REMARK                            x       y       z     vdW  Elec       q    Type
REMARK                         _______ _______ _______ _____ _____    ______ ____
ROOT
ATOM      1  C   UNL     1       8.455  -2.030  24.788  0.00  0.00    +0.090 C 
ATOM      2  C   UNL     1       8.810  -1.677  23.338  0.00  0.00    +0.101 C 
ATOM      3  O   UNL     1       9.461  -0.417  23.119  0.00  0.00    -0.368 OA
ATOM      4  C   UNL     1      10.283  -1.570  22.954  0.00  0.00    +0.196 C 
ATOM      5  C   UNL     1       7.800  -2.026  22.282  0.00  0.00    +0.041 C 
ATOM      6  C   UNL     1       7.417  -3.501  22.348  0.00  0.00    +0.050 C 
ATOM      7  C   UNL     1       6.959  -3.890  23.760  0.00  0.00    +0.207 C 
ATOM      8  C   UNL     1       8.087  -3.566  24.801  0.00  0.00    +0.167 C 
ENDROOT
BRANCH   1   9
ATOM      9  C   UNL     1       7.484  -1.030  25.467  0.00  0.00    +0.101 C 
ATOM     10  C   UNL     1       7.864  -0.206  26.713  0.00  0.00    +0.155 C 
ATOM     11  O   UNL     1       7.057  -1.400  26.777  0.00  0.00    -0.364 OA
ATOM     12  C   UNL     1       6.410  -0.434  24.589  0.00  0.00    +0.045 C 
BRANCH  10  13
ATOM     13  C   UNL     1       7.115   1.016  27.210  0.00  0.00    +0.061 C 
BRANCH  13  14
ATOM     14  C   UNL     1       6.271   0.802  28.443  0.00  0.00    -0.026 C 
ATOM     15  C   UNL     1       4.962   0.483  28.542  0.00  0.00    -0.080 C 
ATOM     16  C   UNL     1       4.341   0.239  29.897  0.00  0.00    +0.038 C 
ATOM     17  C   UNL     1       3.996   0.317  27.400  0.00  0.00    +0.038 C 
ENDBRANCH  13  14
ENDBRANCH  10  13
ENDBRANCH   1   9
BRANCH   8  18
ATOM     18  O   UNL     1       9.242  -4.345  24.380  0.00  0.00    -0.376 OA
ATOM     19  C   UNL     1       9.814  -5.205  25.351  0.00  0.00    +0.194 C 
ENDBRANCH   8  18
BRANCH   7  20
ATOM     20  O   UNL     1       6.569  -5.299  23.700  0.00  0.00    -0.444 OA
BRANCH  20  21
ATOM     21  C   UNL     1       5.256  -5.513  23.440  0.00  0.00    +0.401 C 
ATOM     22  N   UNL     1       4.435  -5.627  24.521  0.00  0.00    -0.270 N 
ATOM     23  H   UNL     1       3.487  -5.801  24.218  0.00  0.00    +0.153 HD
ATOM     24  O   UNL     1       4.796  -5.689  22.318  0.00  0.00    -0.226 OA
BRANCH  22  25
ATOM     25  C   UNL     1       4.583  -5.359  25.961  0.00  0.00    +0.164 C 
BRANCH  25  26
ATOM     26  C   UNL     1       5.534  -6.286  26.754  0.00  0.00    +0.231 C 
ATOM     27  O   UNL     1       6.735  -6.081  26.889  0.00  0.00    -0.274 OA
ATOM     28  N   UNL     1       4.929  -7.255  27.502  0.00  0.00    -0.328 N 
ATOM     29  H   UNL     1       5.531  -7.886  28.013  0.00  0.00    +0.145 HD
ATOM     30  H   UNL     1       3.996  -7.566  27.274  0.00  0.00    +0.145 HD
ENDBRANCH  25  26
BRANCH  25  31
ATOM     31  C   UNL     1       4.674  -3.877  26.397  0.00  0.00    +0.012 C 
ATOM     32  C   UNL     1       4.391  -3.703  27.893  0.00  0.00    +0.009 C 
ATOM     33  C   UNL     1       3.818  -2.927  25.567  0.00  0.00    +0.009 C 
ENDBRANCH  25  31
ENDBRANCH  22  25
ENDBRANCH  20  21
ENDBRANCH   7  20
TORSDOF 9
ENDMDL
MODEL 6
REMARK VINA RESULT:      -6.3      2.659      8.280
REMARK  Name = 
REMARK  15 active torsions:
REMARK  status: ('A' for Active; 'I' for Inactive)
REMARK    1  A    between atoms: C_2  and  C_26
REMARK    2  A    between atoms: C_3  and  O_5
REMARK    3  A    between atoms: O_5  and  C_6
REMARK    4  A    between atoms: C_7  and  O_14
REMARK    5  A    between atoms: O_14  and  C_15
REMARK    6  A    between atoms: N_17  and  C_18
REMARK    7  A    between atoms: C_18  and  C_20
REMARK    8  A    between atoms: C_18  and  C_23
REMARK    9  A    between atoms: C_20  and  C_21
REMARK   10  A    between atoms: C_20  and  C_22
REMARK   11  A    between atoms: C_26  and  C_27
REMARK   12  A    between atoms: C_29  and  C_31
REMARK   13  A    between atoms: C_31  and  C_32
REMARK   14  A    between atoms: C_33  and  C_34
REMARK   15  A    between atoms: C_33  and  C_35
REMARK                            x       y       z     vdW  Elec       q    Type
REMARK                         _______ _______ _______ _____ _____    ______ ____
ROOT
ATOM      1  C   UNL     1       5.812  -5.936  25.964  0.00  0.00    +0.090 C 
ATOM      2  C   UNL     1       5.663  -5.406  27.396  0.00  0.00    +0.101 C 
ATOM      3  O   UNL     1       4.953  -6.240  28.324  0.00  0.00    -0.368 OA
ATOM      4  C   UNL     1       6.362  -6.156  28.527  0.00  0.00    +0.196 C 
ATOM      5  C   UNL     1       5.374  -3.941  27.557  0.00  0.00    +0.041 C 
ATOM      6  C   UNL     1       6.406  -3.089  26.824  0.00  0.00    +0.050 C 
ATOM      7  C   UNL     1       6.528  -3.513  25.353  0.00  0.00    +0.207 C 
ATOM      8  C   UNL     1       6.901  -5.034  25.261  0.00  0.00    +0.167 C 
ENDROOT
BRANCH   1   9
ATOM      9  C   UNL     1       4.467  -6.179  25.232  0.00  0.00    +0.101 C 
ATOM     10  C   UNL     1       3.544  -7.372  25.548  0.00  0.00    +0.155 C 
ATOM     11  O   UNL     1       4.430  -7.344  24.410  0.00  0.00    -0.364 OA
ATOM     12  C   UNL     1       3.790  -4.963  24.648  0.00  0.00    +0.045 C 
BRANCH  10  13
ATOM     13  C   UNL     1       2.088  -7.480  25.134  0.00  0.00    +0.061 C 
BRANCH  13  14
ATOM     14  C   UNL     1       1.844  -8.088  23.774  0.00  0.00    -0.026 C 
ATOM     15  C   UNL     1       1.337  -7.520  22.659  0.00  0.00    -0.080 C 
ATOM     16  C   UNL     1       1.256  -8.309  21.374  0.00  0.00    +0.038 C 
ATOM     17  C   UNL     1       0.825  -6.110  22.530  0.00  0.00    +0.038 C 
ENDBRANCH  13  14
ENDBRANCH  10  13
ENDBRANCH   1   9
BRANCH   8  18
ATOM     18  O   UNL     1       8.169  -5.168  25.963  0.00  0.00    -0.376 OA
ATOM     19  C   UNL     1       9.292  -5.533  25.179  0.00  0.00    +0.194 C 
ENDBRANCH   8  18
BRANCH   7  20
ATOM     20  O   UNL     1       7.496  -2.606  24.736  0.00  0.00    -0.444 OA
BRANCH  20  21
ATOM     21  C   UNL     1       6.950  -1.544  24.098  0.00  0.00    +0.401 C 
ATOM     22  N   UNL     1       7.814  -0.575  23.686  0.00  0.00    -0.270 N 
ATOM     23  H   UNL     1       7.304   0.176  23.240  0.00  0.00    +0.153 HD
ATOM     24  O   UNL     1       5.745  -1.372  23.952  0.00  0.00    -0.226 OA
BRANCH  22  25
ATOM     25  C   UNL     1       9.278  -0.482  23.567  0.00  0.00    +0.164 C 
BRANCH  25  26
ATOM     26  C   UNL     1       9.942  -1.276  22.418  0.00  0.00    +0.231 C 
ATOM     27  O   UNL     1      10.904  -2.021  22.567  0.00  0.00    -0.274 OA
ATOM     28  N   UNL     1       9.263  -1.285  21.233  0.00  0.00    -0.328 N 
ATOM     29  H   UNL     1       9.687  -1.780  20.462  0.00  0.00    +0.145 HD
ATOM     30  H   UNL     1       8.597  -0.554  21.023  0.00  0.00    +0.145 HD
ENDBRANCH  25  26
BRANCH  25  31
ATOM     31  C   UNL     1       9.918   0.908  23.794  0.00  0.00    +0.012 C 
ATOM     32  C   UNL     1      10.083   1.683  22.483  0.00  0.00    +0.009 C 
ATOM     33  C   UNL     1      11.226   0.874  24.576  0.00  0.00    +0.009 C 
ENDBRANCH  25  31
ENDBRANCH  22  25
ENDBRANCH  20  21
ENDBRANCH   7  20
TORSDOF 9
ENDMDL
MODEL 7
REMARK VINA RESULT:      -6.3      2.291      3.147
REMARK  Name = 
REMARK  15 active torsions:
REMARK  status: ('A' for Active; 'I' for Inactive)
REMARK    1  A    between atoms: C_2  and  C_26
REMARK    2  A    between atoms: C_3  and  O_5
REMARK    3  A    between atoms: O_5  and  C_6
REMARK    4  A    between atoms: C_7  and  O_14
REMARK    5  A    between atoms: O_14  and  C_15
REMARK    6  A    between atoms: N_17  and  C_18
REMARK    7  A    between atoms: C_18  and  C_20
REMARK    8  A    between atoms: C_18  and  C_23
REMARK    9  A    between atoms: C_20  and  C_21
REMARK   10  A    between atoms: C_20  and  C_22
REMARK   11  A    between atoms: C_26  and  C_27
REMARK   12  A    between atoms: C_29  and  C_31
REMARK   13  A    between atoms: C_31  and  C_32
REMARK   14  A    between atoms: C_33  and  C_34
REMARK   15  A    between atoms: C_33  and  C_35
REMARK                            x       y       z     vdW  Elec       q    Type
REMARK                         _______ _______ _______ _____ _____    ______ ____
ROOT
ATOM      1  C   UNL     1       6.814  -0.464  25.097  0.00  0.00    +0.090 C 
ATOM      2  C   UNL     1       7.513  -0.070  26.404  0.00  0.00    +0.101 C 
ATOM      3  O   UNL     1       7.581   1.332  26.705  0.00  0.00    -0.368 OA
ATOM      4  C   UNL     1       6.682   0.574  27.510  0.00  0.00    +0.196 C 
ATOM      5  C   UNL     1       8.759  -0.826  26.769  0.00  0.00    +0.041 C 
ATOM      6  C   UNL     1       8.508  -2.331  26.782  0.00  0.00    +0.050 C 
ATOM      7  C   UNL     1       7.896  -2.800  25.455  0.00  0.00    +0.207 C 
ATOM      8  C   UNL     1       6.563  -2.022  25.173  0.00  0.00    +0.167 C 
ENDROOT
BRANCH   1   9
ATOM      9  C   UNL     1       7.473   0.119  23.821  0.00  0.00    +0.101 C 
ATOM     10  C   UNL     1       6.781   1.159  22.919  0.00  0.00    +0.155 C 
ATOM     11  O   UNL     1       6.841  -0.246  22.596  0.00  0.00    -0.364 OA
ATOM     12  C   UNL     1       8.983   0.122  23.786  0.00  0.00    +0.045 C 
BRANCH  10  13
ATOM     13  C   UNL     1       7.481   2.014  21.879  0.00  0.00    +0.061 C 
BRANCH  13  14
ATOM     14  C   UNL     1       7.373   3.505  22.086  0.00  0.00    -0.026 C 
ATOM     15  C   UNL     1       8.022   4.298  22.965  0.00  0.00    -0.080 C 
ATOM     16  C   UNL     1       7.809   5.793  22.938  0.00  0.00    +0.038 C 
ATOM     17  C   UNL     1       8.997   3.850  24.020  0.00  0.00    +0.038 C 
ENDBRANCH  13  14
ENDBRANCH  10  13
ENDBRANCH   1   9
BRANCH   8  18
ATOM     18  O   UNL     1       5.691  -2.318  26.300  0.00  0.00    -0.376 OA
ATOM     19  C   UNL     1       4.298  -2.179  26.076  0.00  0.00    +0.194 C 
ENDBRANCH   8  18
BRANCH   7  20
ATOM     20  O   UNL     1       7.747  -4.252  25.554  0.00  0.00    -0.444 OA
BRANCH  20  21
ATOM     21  C   UNL     1       8.326  -4.951  24.549  0.00  0.00    +0.401 C 
ATOM     22  N   UNL     1       7.526  -5.270  23.493  0.00  0.00    -0.270 N 
ATOM     23  H   UNL     1       8.050  -5.803  22.812  0.00  0.00    +0.153 HD
ATOM     24  O   UNL     1       9.476  -5.373  24.576  0.00  0.00    -0.226 OA
BRANCH  22  25
ATOM     25  C   UNL     1       6.186  -4.852  23.052  0.00  0.00    +0.164 C 
BRANCH  25  26
ATOM     26  C   UNL     1       5.866  -4.993  21.545  0.00  0.00    +0.231 C 
ATOM     27  O   UNL     1       5.708  -4.042  20.787  0.00  0.00    -0.274 OA
ATOM     28  N   UNL     1       5.981  -6.252  21.030  0.00  0.00    -0.328 N 
ATOM     29  H   UNL     1       5.758  -6.372  20.052  0.00  0.00    +0.145 HD
ATOM     30  H   UNL     1       5.920  -7.058  21.636  0.00  0.00    +0.145 HD
ENDBRANCH  25  26
BRANCH  25  31
ATOM     31  C   UNL     1       4.994  -5.225  23.964  0.00  0.00    +0.012 C 
ATOM     32  C   UNL     1       4.974  -6.721  24.295  0.00  0.00    +0.009 C 
ATOM     33  C   UNL     1       3.638  -4.765  23.442  0.00  0.00    +0.009 C 
ENDBRANCH  25  31
ENDBRANCH  22  25
ENDBRANCH  20  21
ENDBRANCH   7  20
TORSDOF 9
ENDMDL
MODEL 8
REMARK VINA RESULT:      -6.3      2.203      3.912
REMARK  Name = 
REMARK  15 active torsions:
REMARK  status: ('A' for Active; 'I' for Inactive)
REMARK    1  A    between atoms: C_2  and  C_26
REMARK    2  A    between atoms: C_3  and  O_5
REMARK    3  A    between atoms: O_5  and  C_6
REMARK    4  A    between atoms: C_7  and  O_14
REMARK    5  A    between atoms: O_14  and  C_15
REMARK    6  A    between atoms: N_17  and  C_18
REMARK    7  A    between atoms: C_18  and  C_20
REMARK    8  A    between atoms: C_18  and  C_23
REMARK    9  A    between atoms: C_20  and  C_21
REMARK   10  A    between atoms: C_20  and  C_22
REMARK   11  A    between atoms: C_26  and  C_27
REMARK   12  A    between atoms: C_29  and  C_31
REMARK   13  A    between atoms: C_31  and  C_32
REMARK   14  A    between atoms: C_33  and  C_34
REMARK   15  A    between atoms: C_33  and  C_35
REMARK                            x       y       z     vdW  Elec       q    Type
REMARK                         _______ _______ _______ _____ _____    ______ ____
ROOT
ATOM      1  C   UNL     1       8.510  -0.772  24.253  0.00  0.00    +0.090 C 
ATOM      2  C   UNL     1       9.233  -1.450  23.082  0.00  0.00    +0.101 C 
ATOM      3  O   UNL     1      10.528  -0.936  22.735  0.00  0.00    -0.368 OA
ATOM      4  C   UNL     1      10.523  -2.214  23.366  0.00  0.00    +0.196 C 
ATOM      5  C   UNL     1       8.399  -1.836  21.894  0.00  0.00    +0.041 C 
ATOM      6  C   UNL     1       7.215  -2.705  22.308  0.00  0.00    +0.050 C 
ATOM      7  C   UNL     1       6.394  -2.028  23.415  0.00  0.00    +0.207 C 
ATOM      8  C   UNL     1       7.311  -1.719  24.651  0.00  0.00    +0.167 C 
ENDROOT
BRANCH   1   9
ATOM      9  C   UNL     1       8.222   0.736  24.036  0.00  0.00    +0.101 C 
ATOM     10  C   UNL     1       9.249   1.840  24.357  0.00  0.00    +0.155 C 
ATOM     11  O   UNL     1       8.148   1.513  25.229  0.00  0.00    -0.364 OA
ATOM     12  C   UNL     1       7.197   1.081  22.983  0.00  0.00    +0.045 C 
BRANCH  10  13
ATOM     13  C   UNL     1       9.173   3.271  23.856  0.00  0.00    +0.061 C 
BRANCH  13  14
ATOM     14  C   UNL     1      10.496   3.988  23.741  0.00  0.00    -0.026 C 
ATOM     15  C   UNL     1      10.755   5.314  23.729  0.00  0.00    -0.080 C 
ATOM     16  C   UNL     1      12.181   5.808  23.684  0.00  0.00    +0.038 C 
ATOM     17  C   UNL     1       9.737   6.422  23.774  0.00  0.00    +0.038 C 
ENDBRANCH  13  14
ENDBRANCH  10  13
ENDBRANCH   1   9
BRANCH   8  18
ATOM     18  O   UNL     1       7.833  -3.007  25.083  0.00  0.00    -0.376 OA
ATOM     19  C   UNL     1       8.437  -3.048  26.364  0.00  0.00    +0.194 C 
ENDBRANCH   8  18
BRANCH   7  20
ATOM     20  O   UNL     1       5.265  -2.913  23.698  0.00  0.00    -0.444 OA
BRANCH  20  21
ATOM     21  C   UNL     1       4.796  -2.847  24.967  0.00  0.00    +0.401 C 
ATOM     22  N   UNL     1       4.814  -4.006  25.682  0.00  0.00    -0.270 N 
ATOM     23  H   UNL     1       4.429  -3.850  26.603  0.00  0.00    +0.153 HD
ATOM     24  O   UNL     1       4.292  -1.846  25.464  0.00  0.00    -0.226 OA
BRANCH  22  25
ATOM     25  C   UNL     1       5.432  -5.328  25.487  0.00  0.00    +0.164 C 
BRANCH  25  26
ATOM     26  C   UNL     1       5.806  -6.123  26.760  0.00  0.00    +0.231 C 
ATOM     27  O   UNL     1       5.130  -7.036  27.220  0.00  0.00    -0.274 OA
ATOM     28  N   UNL     1       7.064  -5.907  27.247  0.00  0.00    -0.328 N 
ATOM     29  H   UNL     1       7.323  -6.400  28.089  0.00  0.00    +0.145 HD
ATOM     30  H   UNL     1       7.557  -5.055  27.020  0.00  0.00    +0.145 HD
ENDBRANCH  25  26
BRANCH  25  31
ATOM     31  C   UNL     1       4.855  -6.218  24.361  0.00  0.00    +0.012 C 
ATOM     32  C   UNL     1       5.664  -6.098  23.066  0.00  0.00    +0.009 C 
ATOM     33  C   UNL     1       3.369  -6.007  24.097  0.00  0.00    +0.009 C 
ENDBRANCH  25  31
ENDBRANCH  22  25
ENDBRANCH  20  21
ENDBRANCH   7  20
TORSDOF 9
ENDMDL
MODEL 9
REMARK VINA RESULT:      -6.2      2.367      3.828
REMARK  Name = 
REMARK  15 active torsions:
REMARK  status: ('A' for Active; 'I' for Inactive)
REMARK    1  A    between atoms: C_2  and  C_26
REMARK    2  A    between atoms: C_3  and  O_5
REMARK    3  A    between atoms: O_5  and  C_6
REMARK    4  A    between atoms: C_7  and  O_14
REMARK    5  A    between atoms: O_14  and  C_15
REMARK    6  A    between atoms: N_17  and  C_18
REMARK    7  A    between atoms: C_18  and  C_20
REMARK    8  A    between atoms: C_18  and  C_23
REMARK    9  A    between atoms: C_20  and  C_21
REMARK   10  A    between atoms: C_20  and  C_22
REMARK   11  A    between atoms: C_26  and  C_27
REMARK   12  A    between atoms: C_29  and  C_31
REMARK   13  A    between atoms: C_31  and  C_32
REMARK   14  A    between atoms: C_33  and  C_34
REMARK   15  A    between atoms: C_33  and  C_35
REMARK                            x       y       z     vdW  Elec       q    Type
REMARK                         _______ _______ _______ _____ _____    ______ ____
ROOT
ATOM      1  C   UNL     1       8.611  -1.941  24.557  0.00  0.00    +0.090 C 
ATOM      2  C   UNL     1       9.024  -1.768  23.090  0.00  0.00    +0.101 C 
ATOM      3  O   UNL     1       9.791  -0.599  22.766  0.00  0.00    -0.368 OA
ATOM      4  C   UNL     1      10.508  -1.830  22.738  0.00  0.00    +0.196 C 
ATOM      5  C   UNL     1       8.008  -2.132  22.045  0.00  0.00    +0.041 C 
ATOM      6  C   UNL     1       7.494  -3.555  22.246  0.00  0.00    +0.050 C 
ATOM      7  C   UNL     1       6.975  -3.758  23.676  0.00  0.00    +0.207 C 
ATOM      8  C   UNL     1       8.108  -3.430  24.711  0.00  0.00    +0.167 C 
ENDROOT
BRANCH   1   9
ATOM      9  C   UNL     1       7.721  -0.797  25.107  0.00  0.00    +0.101 C 
ATOM     10  C   UNL     1       8.297   0.517  25.671  0.00  0.00    +0.155 C 
ATOM     11  O   UNL     1       7.837  -0.563  26.509  0.00  0.00    -0.364 OA
ATOM     12  C   UNL     1       6.317  -0.715  24.558  0.00  0.00    +0.045 C 
BRANCH  10  13
ATOM     13  C   UNL     1       7.502   1.790  25.895  0.00  0.00    +0.061 C 
BRANCH  13  14
ATOM     14  C   UNL     1       7.189   2.587  24.652  0.00  0.00    -0.026 C 
ATOM     15  C   UNL     1       8.027   3.245  23.822  0.00  0.00    -0.080 C 
ATOM     16  C   UNL     1       7.492   3.916  22.579  0.00  0.00    +0.038 C 
ATOM     17  C   UNL     1       9.516   3.386  23.986  0.00  0.00    +0.038 C 
ENDBRANCH  13  14
ENDBRANCH  10  13
ENDBRANCH   1   9
BRANCH   8  18
ATOM     18  O   UNL     1       9.196  -4.345  24.402  0.00  0.00    -0.376 OA
ATOM     19  C   UNL     1       9.833  -4.967  25.505  0.00  0.00    +0.194 C 
ENDBRANCH   8  18
BRANCH   7  20
ATOM     20  O   UNL     1       6.461  -5.126  23.744  0.00  0.00    -0.444 OA
BRANCH  20  21
ATOM     21  C   UNL     1       5.126  -5.240  23.549  0.00  0.00    +0.401 C 
ATOM     22  N   UNL     1       4.360  -5.382  24.666  0.00  0.00    -0.270 N 
ATOM     23  H   UNL     1       3.386  -5.476  24.409  0.00  0.00    +0.153 HD
ATOM     24  O   UNL     1       4.594  -5.307  22.447  0.00  0.00    -0.226 OA
BRANCH  22  25
ATOM     25  C   UNL     1       4.604  -5.227  26.110  0.00  0.00    +0.164 C 
BRANCH  25  26
ATOM     26  C   UNL     1       5.590  -6.221  26.766  0.00  0.00    +0.231 C 
ATOM     27  O   UNL     1       6.805  -6.059  26.800  0.00  0.00    -0.274 OA
ATOM     28  N   UNL     1       5.023  -7.211  27.518  0.00  0.00    -0.328 N 
ATOM     29  H   UNL     1       5.646  -7.884  27.939  0.00  0.00    +0.145 HD
ATOM     30  H   UNL     1       4.062  -7.482  27.360  0.00  0.00    +0.145 HD
ENDBRANCH  25  26
BRANCH  25  31
ATOM     31  C   UNL     1       4.743  -3.785  26.652  0.00  0.00    +0.012 C 
ATOM     32  C   UNL     1       4.665  -3.738  28.181  0.00  0.00    +0.009 C 
ATOM     33  C   UNL     1       3.777  -2.785  26.026  0.00  0.00    +0.009 C 
ENDBRANCH  25  31
ENDBRANCH  22  25
ENDBRANCH  20  21
ENDBRANCH   7  20
TORSDOF 9
ENDMDL
