MODEL 1
REMARK VINA RESULT:      -5.2      0.000      0.000
REMARK  Name = 
REMARK  4 active torsions:
REMARK  status: ('A' for Active; 'I' for Inactive)
REMARK    1  A    between atoms: C_2  and  C_3
REMARK    2  A    between atoms: C_3  and  N_4
REMARK    3  A    between atoms: N_4  and  N_5
REMARK    4  A    between atoms: N_9  and  C_10
REMARK                            x       y       z     vdW  Elec       q    Type
REMARK                         _______ _______ _______ _____ _____    ______ ____
ROOT
ATOM      1  N   UNL     1       7.952  -3.025  23.458  0.00  0.00    -0.140 N 
ATOM      2  C   UNL     1       9.200  -2.369  23.450  0.00  0.00    +0.324 C 
ATOM      3  N   UNL     1       9.131  -1.056  23.049  0.00  0.00    -0.295 N 
ATOM      4  H   UNL     1       8.243  -0.628  23.263  0.00  0.00    +0.151 HD
ATOM      5  O   UNL     1      10.254  -2.924  23.760  0.00  0.00    -0.251 OA
ENDROOT
BRANCH   3   6
ATOM      6  C   UNL     1      10.219  -0.090  22.904  0.00  0.00    +0.074 C 
ATOM      7  C   UNL     1      10.446   0.540  24.292  0.00  0.00    +0.022 C 
ATOM      8  C   UNL     1       9.222   1.349  24.729  0.00  0.00    +0.002 C 
ATOM      9  C   UNL     1       8.919   2.464  23.735  0.00  0.00    +0.000 C 
ATOM     10  C   UNL     1       8.800   1.954  22.299  0.00  0.00    +0.002 C 
ATOM     11  C   UNL     1       9.949   1.032  21.889  0.00  0.00    +0.022 C 
ENDBRANCH   3   6
BRANCH   1  12
ATOM     12  N   UNL     1       6.823  -2.347  22.966  0.00  0.00    +0.053 NA
ATOM     13  O   UNL     1       6.277  -1.590  23.777  0.00  0.00    -0.126 OA
ENDBRANCH   1  12
BRANCH   1  14
ATOM     14  C   UNL     1       7.857  -4.424  23.865  0.00  0.00    +0.155 C 
BRANCH  14  16
ATOM     15 CL   UNL     1       7.174  -5.750  21.545  0.00  0.00    -0.124 Cl
ATOM     16  C   UNL     1       6.729  -5.191  23.177  0.00  0.00    +0.130 C 
ENDBRANCH  14  16
ENDBRANCH   1  14
TORSDOF 4
ENDMDL
MODEL 2
REMARK VINA RESULT:      -5.2      1.681      2.775
REMARK  Name = 
REMARK  4 active torsions:
REMARK  status: ('A' for Active; 'I' for Inactive)
REMARK    1  A    between atoms: C_2  and  C_3
REMARK    2  A    between atoms: C_3  and  N_4
REMARK    3  A    between atoms: N_4  and  N_5
REMARK    4  A    between atoms: N_9  and  C_10
REMARK                            x       y       z     vdW  Elec       q    Type
REMARK                         _______ _______ _______ _____ _____    ______ ____
ROOT
ATOM      1  N   UNL     1       8.513  -2.810  23.281  0.00  0.00    -0.140 N 
ATOM      2  C   UNL     1       7.680  -1.704  23.013  0.00  0.00    +0.324 C 
ATOM      3  N   UNL     1       8.356  -0.509  22.943  0.00  0.00    -0.295 N 
ATOM      4  H   UNL     1       9.309  -0.617  22.632  0.00  0.00    +0.151 HD
ATOM      5  O   UNL     1       6.461  -1.799  22.869  0.00  0.00    -0.251 OA
ENDROOT
BRANCH   3   6
ATOM      6  C   UNL     1       7.816   0.829  22.703  0.00  0.00    +0.074 C 
ATOM      7  C   UNL     1       8.676   1.467  21.595  0.00  0.00    +0.022 C 
ATOM      8  C   UNL     1      10.115   1.674  22.075  0.00  0.00    +0.002 C 
ATOM      9  C   UNL     1      10.158   2.578  23.302  0.00  0.00    +0.000 C 
ATOM     10  C   UNL     1       9.233   2.095  24.419  0.00  0.00    +0.002 C 
ATOM     11  C   UNL     1       7.825   1.753  23.931  0.00  0.00    +0.022 C 
ENDBRANCH   3   6
BRANCH   1  12
ATOM     12  N   UNL     1       9.873  -2.588  23.558  0.00  0.00    +0.053 NA
ATOM     13  O   UNL     1      10.549  -2.232  22.586  0.00  0.00    -0.126 OA
ENDBRANCH   1  12
BRANCH   1  14
ATOM     14  C   UNL     1       7.946  -4.152  23.382  0.00  0.00    +0.155 C 
BRANCH  14  16
ATOM     15 CL   UNL     1       9.394  -5.539  25.275  0.00  0.00    -0.124 Cl
ATOM     16  C   UNL     1       7.896  -4.694  24.809  0.00  0.00    +0.130 C 
ENDBRANCH  14  16
ENDBRANCH   1  14
TORSDOF 4
ENDMDL
MODEL 3
REMARK VINA RESULT:      -5.1      2.531      5.670
REMARK  Name = 
REMARK  4 active torsions:
REMARK  status: ('A' for Active; 'I' for Inactive)
REMARK    1  A    between atoms: C_2  and  C_3
REMARK    2  A    between atoms: C_3  and  N_4
REMARK    3  A    between atoms: N_4  and  N_5
REMARK    4  A    between atoms: N_9  and  C_10
REMARK                            x       y       z     vdW  Elec       q    Type
REMARK                         _______ _______ _______ _____ _____    ______ ____
ROOT
ATOM      1  N   UNL     1       9.361  -0.659  22.276  0.00  0.00    -0.140 N 
ATOM      2  C   UNL     1       8.044  -0.916  22.709  0.00  0.00    +0.324 C 
ATOM      3  N   UNL     1       7.788  -2.249  22.932  0.00  0.00    -0.295 N 
ATOM      4  H   UNL     1       8.610  -2.764  23.209  0.00  0.00    +0.151 HD
ATOM      5  O   UNL     1       7.201  -0.033  22.860  0.00  0.00    -0.251 OA
ENDROOT
BRANCH   3   6
ATOM      6  C   UNL     1       6.539  -2.875  23.365  0.00  0.00    +0.074 C 
ATOM      7  C   UNL     1       6.923  -4.053  24.282  0.00  0.00    +0.022 C 
ATOM      8  C   UNL     1       7.681  -5.127  23.498  0.00  0.00    +0.002 C 
ATOM      9  C   UNL     1       6.838  -5.663  22.347  0.00  0.00    +0.000 C 
ATOM     10  C   UNL     1       6.301  -4.553  21.445  0.00  0.00    +0.002 C 
ATOM     11  C   UNL     1       5.658  -3.403  22.222  0.00  0.00    +0.022 C 
ENDBRANCH   3   6
BRANCH   1  12
ATOM     12  N   UNL     1      10.215  -1.742  22.009  0.00  0.00    +0.053 NA
ATOM     13  O   UNL     1      10.585  -2.371  23.007  0.00  0.00    -0.126 OA
ENDBRANCH   1  12
BRANCH   1  14
ATOM     14  C   UNL     1       9.791   0.709  21.999  0.00  0.00    +0.155 C 
BRANCH  14  16
ATOM     15 CL   UNL     1      11.026   0.647  24.465  0.00  0.00    -0.124 Cl
ATOM     16  C   UNL     1      10.065   1.535  23.255  0.00  0.00    +0.130 C 
ENDBRANCH  14  16
ENDBRANCH   1  14
TORSDOF 4
ENDMDL
MODEL 4
REMARK VINA RESULT:      -5.1      1.675      1.795
REMARK  Name = 
REMARK  4 active torsions:
REMARK  status: ('A' for Active; 'I' for Inactive)
REMARK    1  A    between atoms: C_2  and  C_3
REMARK    2  A    between atoms: C_3  and  N_4
REMARK    3  A    between atoms: N_4  and  N_5
REMARK    4  A    between atoms: N_9  and  C_10
REMARK                            x       y       z     vdW  Elec       q    Type
REMARK                         _______ _______ _______ _____ _____    ______ ____
ROOT
ATOM      1  N   UNL     1       8.503  -2.726  24.155  0.00  0.00    -0.140 N 
ATOM      2  C   UNL     1       9.582  -2.020  23.585  0.00  0.00    +0.324 C 
ATOM      3  N   UNL     1       9.431  -0.654  23.627  0.00  0.00    -0.295 N 
ATOM      4  H   UNL     1       8.873  -0.346  24.409  0.00  0.00    +0.151 HD
ATOM      5  O   UNL     1      10.561  -2.574  23.087  0.00  0.00    -0.251 OA
ENDROOT
BRANCH   3   6
ATOM      6  C   UNL     1      10.334   0.378  23.118  0.00  0.00    +0.074 C 
ATOM      7  C   UNL     1      10.484   1.431  24.233  0.00  0.00    +0.022 C 
ATOM      8  C   UNL     1       9.150   2.135  24.498  0.00  0.00    +0.002 C 
ATOM      9  C   UNL     1       8.637   2.829  23.242  0.00  0.00    +0.000 C 
ATOM     10  C   UNL     1       8.572   1.889  22.038  0.00  0.00    +0.002 C 
ATOM     11  C   UNL     1       9.851   1.076  21.837  0.00  0.00    +0.022 C 
ENDBRANCH   3   6
BRANCH   1  12
ATOM     12  N   UNL     1       7.371  -2.012  24.584  0.00  0.00    +0.053 NA
ATOM     13  O   UNL     1       6.595  -1.676  23.682  0.00  0.00    -0.126 OA
ENDBRANCH   1  12
BRANCH   1  14
ATOM     14  C   UNL     1       8.515  -4.186  24.191  0.00  0.00    +0.155 C 
BRANCH  14  16
ATOM     15 CL   UNL     1       8.133  -5.148  26.748  0.00  0.00    -0.124 Cl
ATOM     16  C   UNL     1       9.240  -4.767  25.404  0.00  0.00    +0.130 C 
ENDBRANCH  14  16
ENDBRANCH   1  14
TORSDOF 4
ENDMDL
MODEL 5
REMARK VINA RESULT:      -5.0      2.548      5.577
REMARK  Name = 
REMARK  4 active torsions:
REMARK  status: ('A' for Active; 'I' for Inactive)
REMARK    1  A    between atoms: C_2  and  C_3
REMARK    2  A    between atoms: C_3  and  N_4
REMARK    3  A    between atoms: N_4  and  N_5
REMARK    4  A    between atoms: N_9  and  C_10
REMARK                            x       y       z     vdW  Elec       q    Type
REMARK                         _______ _______ _______ _____ _____    ______ ____
ROOT
ATOM      1  N   UNL     1       9.629  -0.852  24.432  0.00  0.00    -0.140 N 
ATOM      2  C   UNL     1       9.708  -2.177  23.953  0.00  0.00    +0.324 C 
ATOM      3  N   UNL     1       8.774  -3.020  24.509  0.00  0.00    -0.295 N 
ATOM      4  H   UNL     1       7.929  -2.542  24.782  0.00  0.00    +0.151 HD
ATOM      5  O   UNL     1      10.541  -2.545  23.127  0.00  0.00    -0.251 OA
ENDROOT
BRANCH   3   6
ATOM      6  C   UNL     1       8.578  -4.448  24.264  0.00  0.00    +0.074 C 
ATOM      7  C   UNL     1       7.083  -4.648  23.952  0.00  0.00    +0.022 C 
ATOM      8  C   UNL     1       6.223  -4.310  25.173  0.00  0.00    +0.002 C 
ATOM      9  C   UNL     1       6.592  -5.189  26.363  0.00  0.00    +0.000 C 
ATOM     10  C   UNL     1       8.087  -5.157  26.675  0.00  0.00    +0.002 C 
ATOM     11  C   UNL     1       8.966  -5.359  25.440  0.00  0.00    +0.022 C 
ENDBRANCH   3   6
BRANCH   1  12
ATOM     12  N   UNL     1       8.728  -0.554  25.469  0.00  0.00    +0.053 NA
ATOM     13  O   UNL     1       9.082  -0.935  26.590  0.00  0.00    -0.126 OA
ENDBRANCH   1  12
BRANCH   1  14
ATOM     14  C   UNL     1      10.549   0.166  23.935  0.00  0.00    +0.155 C 
BRANCH  14  16
ATOM     15 CL   UNL     1       9.473   0.458  21.413  0.00  0.00    -0.124 Cl
ATOM     16  C   UNL     1       9.902   1.174  22.987  0.00  0.00    +0.130 C 
ENDBRANCH  14  16
ENDBRANCH   1  14
TORSDOF 4
ENDMDL
MODEL 6
REMARK VINA RESULT:      -4.9      2.610      5.736
REMARK  Name = 
REMARK  4 active torsions:
REMARK  status: ('A' for Active; 'I' for Inactive)
REMARK    1  A    between atoms: C_2  and  C_3
REMARK    2  A    between atoms: C_3  and  N_4
REMARK    3  A    between atoms: N_4  and  N_5
REMARK    4  A    between atoms: N_9  and  C_10
REMARK                            x       y       z     vdW  Elec       q    Type
REMARK                         _______ _______ _______ _____ _____    ______ ____
ROOT
ATOM      1  N   UNL     1       9.042  -1.578  23.158  0.00  0.00    -0.140 N 
ATOM      2  C   UNL     1       9.134  -2.919  23.585  0.00  0.00    +0.324 C 
ATOM      3  N   UNL     1       7.986  -3.646  23.373  0.00  0.00    -0.295 N 
ATOM      4  H   UNL     1       7.455  -3.315  22.581  0.00  0.00    +0.151 HD
ATOM      5  O   UNL     1      10.142  -3.390  24.109  0.00  0.00    -0.251 OA
ENDROOT
BRANCH   3   6
ATOM      6  C   UNL     1       7.720  -5.045  23.704  0.00  0.00    +0.074 C 
ATOM      7  C   UNL     1       7.461  -5.779  22.374  0.00  0.00    +0.022 C 
ATOM      8  C   UNL     1       6.187  -5.257  21.705  0.00  0.00    +0.002 C 
ATOM      9  C   UNL     1       4.975  -5.450  22.609  0.00  0.00    +0.000 C 
ATOM     10  C   UNL     1       5.184  -4.862  24.004  0.00  0.00    +0.002 C 
ATOM     11  C   UNL     1       6.517  -5.265  24.635  0.00  0.00    +0.022 C 
ENDBRANCH   3   6
BRANCH   1  12
ATOM     12  N   UNL     1       7.808  -1.096  22.688  0.00  0.00    +0.053 NA
ATOM     13  O   UNL     1       6.917  -1.027  23.542  0.00  0.00    -0.126 OA
ENDBRANCH   1  12
BRANCH   1  14
ATOM     14  C   UNL     1      10.180  -0.677  23.311  0.00  0.00    +0.155 C 
BRANCH  14  16
ATOM     15 CL   UNL     1       9.446   1.709  24.484  0.00  0.00    -0.124 Cl
ATOM     16  C   UNL     1      10.184   0.094  24.630  0.00  0.00    +0.130 C 
ENDBRANCH  14  16
ENDBRANCH   1  14
TORSDOF 4
ENDMDL
MODEL 7
REMARK VINA RESULT:      -4.9      2.667      5.437
REMARK  Name = 
REMARK  4 active torsions:
REMARK  status: ('A' for Active; 'I' for Inactive)
REMARK    1  A    between atoms: C_2  and  C_3
REMARK    2  A    between atoms: C_3  and  N_4
REMARK    3  A    between atoms: N_4  and  N_5
REMARK    4  A    between atoms: N_9  and  C_10
REMARK                            x       y       z     vdW  Elec       q    Type
REMARK                         _______ _______ _______ _____ _____    ______ ____
ROOT
ATOM      1  N   UNL     1      10.051  -1.044  23.737  0.00  0.00    -0.140 N 
ATOM      2  C   UNL     1       9.082  -1.697  24.526  0.00  0.00    +0.324 C 
ATOM      3  N   UNL     1       8.597  -2.853  23.961  0.00  0.00    -0.295 N 
ATOM      4  H   UNL     1       9.269  -3.305  23.360  0.00  0.00    +0.151 HD
ATOM      5  O   UNL     1       8.697  -1.266  25.613  0.00  0.00    -0.251 OA
ENDROOT
BRANCH   3   6
ATOM      6  C   UNL     1       7.581  -3.766  24.484  0.00  0.00    +0.074 C 
ATOM      7  C   UNL     1       7.665  -5.057  23.648  0.00  0.00    +0.022 C 
ATOM      8  C   UNL     1       7.277  -4.788  22.192  0.00  0.00    +0.002 C 
ATOM      9  C   UNL     1       5.858  -4.240  22.095  0.00  0.00    +0.000 C 
ATOM     10  C   UNL     1       5.636  -3.023  22.993  0.00  0.00    +0.002 C 
ATOM     11  C   UNL     1       6.143  -3.227  24.421  0.00  0.00    +0.022 C 
ENDBRANCH   3   6
BRANCH   1  12
ATOM     12  N   UNL     1      10.333  -1.543  22.453  0.00  0.00    +0.053 NA
ATOM     13  O   UNL     1       9.402  -1.455  21.645  0.00  0.00    -0.126 OA
ENDBRANCH   1  12
BRANCH   1  14
ATOM     14  C   UNL     1      10.666   0.196  24.201  0.00  0.00    +0.155 C 
BRANCH  14  16
ATOM     15 CL   UNL     1      10.151   1.871  22.072  0.00  0.00    -0.124 Cl
ATOM     16  C   UNL     1       9.905   1.454  23.787  0.00  0.00    +0.130 C 
ENDBRANCH  14  16
ENDBRANCH   1  14
TORSDOF 4
ENDMDL
MODEL 8
REMARK VINA RESULT:      -4.9      2.834      5.922
REMARK  Name = 
REMARK  4 active torsions:
REMARK  status: ('A' for Active; 'I' for Inactive)
REMARK    1  A    between atoms: C_2  and  C_3
REMARK    2  A    between atoms: C_3  and  N_4
REMARK    3  A    between atoms: N_4  and  N_5
REMARK    4  A    between atoms: N_9  and  C_10
REMARK                            x       y       z     vdW  Elec       q    Type
REMARK                         _______ _______ _______ _____ _____    ______ ____
ROOT
ATOM      1  N   UNL     1       9.035  -2.060  23.910  0.00  0.00    -0.140 N 
ATOM      2  C   UNL     1       7.835  -2.073  23.170  0.00  0.00    +0.324 C 
ATOM      3  N   UNL     1       7.483  -3.321  22.711  0.00  0.00    -0.295 N 
ATOM      4  H   UNL     1       7.816  -4.064  23.307  0.00  0.00    +0.151 HD
ATOM      5  O   UNL     1       7.172  -1.061  22.945  0.00  0.00    -0.251 OA
ENDROOT
BRANCH   3   6
ATOM      6  C   UNL     1       6.324  -3.700  21.904  0.00  0.00    +0.074 C 
ATOM      7  C   UNL     1       5.104  -3.700  22.844  0.00  0.00    +0.022 C 
ATOM      8  C   UNL     1       5.243  -4.786  23.915  0.00  0.00    +0.002 C 
ATOM      9  C   UNL     1       5.367  -6.167  23.282  0.00  0.00    +0.000 C 
ATOM     10  C   UNL     1       6.478  -6.235  22.234  0.00  0.00    +0.002 C 
ATOM     11  C   UNL     1       6.435  -5.079  21.234  0.00  0.00    +0.022 C 
ENDBRANCH   3   6
BRANCH   1  12
ATOM     12  N   UNL     1       9.790  -3.242  24.006  0.00  0.00    +0.053 NA
ATOM     13  O   UNL     1       9.419  -4.025  24.888  0.00  0.00    -0.126 OA
ENDBRANCH   1  12
BRANCH   1  14
ATOM     14  C   UNL     1       9.542  -0.810  24.469  0.00  0.00    +0.155 C 
BRANCH  14  16
ATOM     15 CL   UNL     1      10.779   1.621  24.064  0.00  0.00    -0.124 Cl
ATOM     16  C   UNL     1      10.488  -0.055  23.536  0.00  0.00    +0.130 C 
ENDBRANCH  14  16
ENDBRANCH   1  14
TORSDOF 4
ENDMDL
MODEL 9
REMARK VINA RESULT:      -4.9      2.179      2.809
REMARK  Name = 
REMARK  4 active torsions:
REMARK  status: ('A' for Active; 'I' for Inactive)
REMARK    1  A    between atoms: C_2  and  C_3
REMARK    2  A    between atoms: C_3  and  N_4
REMARK    3  A    between atoms: N_4  and  N_5
REMARK    4  A    between atoms: N_9  and  C_10
REMARK                            x       y       z     vdW  Elec       q    Type
REMARK                         _______ _______ _______ _____ _____    ______ ____
ROOT
ATOM      1  N   UNL     1       8.775  -2.617  25.384  0.00  0.00    -0.140 N 
ATOM      2  C   UNL     1       8.845  -1.239  25.676  0.00  0.00    +0.324 C 
ATOM      3  N   UNL     1       9.103  -0.454  24.576  0.00  0.00    -0.295 N 
ATOM      4  H   UNL     1       8.757  -0.858  23.719  0.00  0.00    +0.151 HD
ATOM      5  O   UNL     1       8.701  -0.783  26.810  0.00  0.00    -0.251 OA
ENDROOT
BRANCH   3   6
ATOM      6  C   UNL     1       9.259   0.998  24.511  0.00  0.00    +0.074 C 
ATOM      7  C   UNL     1       7.886   1.579  24.120  0.00  0.00    +0.022 C 
ATOM      8  C   UNL     1       7.491   1.136  22.709  0.00  0.00    +0.002 C 
ATOM      9  C   UNL     1       8.521   1.592  21.682  0.00  0.00    +0.000 C 
ATOM     10  C   UNL     1       9.943   1.170  22.050  0.00  0.00    +0.002 C 
ATOM     11  C   UNL     1      10.310   1.484  23.501  0.00  0.00    +0.022 C 
ENDBRANCH   3   6
BRANCH   1  12
ATOM     12  N   UNL     1       9.079  -3.054  24.084  0.00  0.00    +0.053 NA
ATOM     13  O   UNL     1      10.277  -2.995  23.782  0.00  0.00    -0.126 OA
ENDBRANCH   1  12
BRANCH   1  14
ATOM     14  C   UNL     1       8.504  -3.582  26.446  0.00  0.00    +0.155 C 
BRANCH  14  16
ATOM     15 CL   UNL     1       6.638  -5.379  25.499  0.00  0.00    -0.124 Cl
ATOM     16  C   UNL     1       8.324  -5.014  25.946  0.00  0.00    +0.130 C 
ENDBRANCH  14  16
ENDBRANCH   1  14
TORSDOF 4
ENDMDL
