MODEL 1
REMARK VINA RESULT:      -5.6      0.000      0.000
REMARK  Name = 
REMARK  10 active torsions:
REMARK  status: ('A' for Active; 'I' for Inactive)
REMARK    1  A    between atoms: C_1  and  C_2
REMARK    2  A    between atoms: C_2  and  C_3
REMARK    3  A    between atoms: C_3  and  C_4
REMARK    4  A    between atoms: C_4  and  C_5
REMARK    5  A    between atoms: C_5  and  C_6
REMARK    6  A    between atoms: C_6  and  C_7
REMARK    7  A    between atoms: C_7  and  O_8
REMARK    8  A    between atoms: O_8  and  C_9
REMARK    9  A    between atoms: C_13  and  C_15
REMARK   10  A    between atoms: C_15  and  O_16
REMARK                            x       y       z     vdW  Elec       q    Type
REMARK                         _______ _______ _______ _____ _____    ______ ____
ROOT
ATOM      1  C   UNL     1       9.300  -2.325  23.419  0.00  0.00    +0.121 A 
ATOM      2  C   UNL     1       9.459  -3.273  24.433  0.00  0.00    +0.060 A 
ATOM      3  C   UNL     1       8.594  -4.374  24.510  0.00  0.00    +0.062 A 
ATOM      4  C   UNL     1       7.600  -4.554  23.540  0.00  0.00    +0.015 A 
ATOM      5  C   UNL     1       7.451  -3.617  22.520  0.00  0.00    +0.004 A 
ATOM      6  C   UNL     1       8.298  -2.509  22.462  0.00  0.00    +0.046 A 
ENDROOT
BRANCH   3   7
ATOM      7  C   UNL     1       8.795  -5.356  25.603  0.00  0.00    +0.337 C 
ATOM      8  O   UNL     1       7.892  -5.761  26.310  0.00  0.00    -0.245 OA
BRANCH   7   9
ATOM      9  O   UNL     1      10.072  -5.793  25.711  0.00  0.00    -0.477 OA
ATOM     10  H   UNL     1      10.754  -5.099  25.659  0.00  0.00    +0.295 HD
ENDBRANCH   7   9
ENDBRANCH   3   7
BRANCH   1  11
ATOM     11  O   UNL     1      10.191  -1.279  23.426  0.00  0.00    -0.492 OA
BRANCH  11  12
ATOM     12  C   UNL     1      10.098  -0.422  24.566  0.00  0.00    +0.229 C 
BRANCH  12  13
ATOM     13  C   UNL     1      10.940   0.831  24.354  0.00  0.00    +0.041 C 
BRANCH  13  14
ATOM     14  C   UNL     1      10.076   1.934  23.742  0.00  0.00    +0.003 C 
BRANCH  14  15
ATOM     15  C   UNL     1      10.208   1.987  22.223  0.00  0.00    +0.000 C 
BRANCH  15  16
ATOM     16  C   UNL     1       9.042   1.268  21.545  0.00  0.00    -0.000 C 
BRANCH  16  18
ATOM     17  C   UNL     1       6.843   0.919  22.724  0.00  0.00    +0.004 C 
ATOM     18  C   UNL     1       7.706   1.893  21.940  0.00  0.00    -0.003 C 
ENDBRANCH  16  18
ENDBRANCH  15  16
ENDBRANCH  14  15
ENDBRANCH  13  14
ENDBRANCH  12  13
ENDBRANCH  11  12
ENDBRANCH   1  11
TORSDOF 9
ENDMDL
MODEL 2
REMARK VINA RESULT:      -5.5      0.932      2.260
REMARK  Name = 
REMARK  10 active torsions:
REMARK  status: ('A' for Active; 'I' for Inactive)
REMARK    1  A    between atoms: C_1  and  C_2
REMARK    2  A    between atoms: C_2  and  C_3
REMARK    3  A    between atoms: C_3  and  C_4
REMARK    4  A    between atoms: C_4  and  C_5
REMARK    5  A    between atoms: C_5  and  C_6
REMARK    6  A    between atoms: C_6  and  C_7
REMARK    7  A    between atoms: C_7  and  O_8
REMARK    8  A    between atoms: O_8  and  C_9
REMARK    9  A    between atoms: C_13  and  C_15
REMARK   10  A    between atoms: C_15  and  O_16
REMARK                            x       y       z     vdW  Elec       q    Type
REMARK                         _______ _______ _______ _____ _____    ______ ____
ROOT
ATOM      1  C   UNL     1       8.113  -2.537  22.810  0.00  0.00    +0.121 A 
ATOM      2  C   UNL     1       8.797  -3.035  23.922  0.00  0.00    +0.060 A 
ATOM      3  C   UNL     1       8.520  -4.324  24.399  0.00  0.00    +0.062 A 
ATOM      4  C   UNL     1       7.594  -5.135  23.731  0.00  0.00    +0.015 A 
ATOM      5  C   UNL     1       6.924  -4.644  22.614  0.00  0.00    +0.004 A 
ATOM      6  C   UNL     1       7.183  -3.351  22.157  0.00  0.00    +0.046 A 
ENDROOT
BRANCH   3   7
ATOM      7  C   UNL     1       9.267  -4.815  25.582  0.00  0.00    +0.337 C 
ATOM      8  O   UNL     1       9.113  -4.364  26.702  0.00  0.00    -0.245 OA
BRANCH   7   9
ATOM      9  O   UNL     1      10.106  -5.841  25.308  0.00  0.00    -0.477 OA
ATOM     10  H   UNL     1      10.946  -5.834  25.802  0.00  0.00    +0.295 HD
ENDBRANCH   7   9
ENDBRANCH   3   7
BRANCH   1  11
ATOM     11  O   UNL     1       8.448  -1.263  22.417  0.00  0.00    -0.492 OA
BRANCH  11  12
ATOM     12  C   UNL     1       7.459  -0.271  22.701  0.00  0.00    +0.229 C 
BRANCH  12  13
ATOM     13  C   UNL     1       7.903   1.086  22.163  0.00  0.00    +0.041 C 
BRANCH  13  14
ATOM     14  C   UNL     1       9.329   0.981  21.619  0.00  0.00    +0.003 C 
BRANCH  14  15
ATOM     15  C   UNL     1      10.242   2.056  22.201  0.00  0.00    +0.000 C 
BRANCH  15  16
ATOM     16  C   UNL     1      10.186   2.056  23.729  0.00  0.00    -0.000 C 
BRANCH  16  18
ATOM     17  C   UNL     1      10.077   0.086  25.297  0.00  0.00    +0.004 C 
ATOM     18  C   UNL     1      10.934   0.855  24.306  0.00  0.00    -0.003 C 
ENDBRANCH  16  18
ENDBRANCH  15  16
ENDBRANCH  14  15
ENDBRANCH  13  14
ENDBRANCH  12  13
ENDBRANCH  11  12
ENDBRANCH   1  11
TORSDOF 9
ENDMDL
MODEL 3
REMARK VINA RESULT:      -5.5      1.381      2.042
REMARK  Name = 
REMARK  10 active torsions:
REMARK  status: ('A' for Active; 'I' for Inactive)
REMARK    1  A    between atoms: C_1  and  C_2
REMARK    2  A    between atoms: C_2  and  C_3
REMARK    3  A    between atoms: C_3  and  C_4
REMARK    4  A    between atoms: C_4  and  C_5
REMARK    5  A    between atoms: C_5  and  C_6
REMARK    6  A    between atoms: C_6  and  C_7
REMARK    7  A    between atoms: C_7  and  O_8
REMARK    8  A    between atoms: O_8  and  C_9
REMARK    9  A    between atoms: C_13  and  C_15
REMARK   10  A    between atoms: C_15  and  O_16
REMARK                            x       y       z     vdW  Elec       q    Type
REMARK                         _______ _______ _______ _____ _____    ______ ____
ROOT
ATOM      1  C   UNL     1       9.339  -2.098  22.994  0.00  0.00    +0.121 A 
ATOM      2  C   UNL     1       9.777  -2.879  24.067  0.00  0.00    +0.060 A 
ATOM      3  C   UNL     1       8.948  -3.878  24.595  0.00  0.00    +0.062 A 
ATOM      4  C   UNL     1       7.698  -4.131  24.017  0.00  0.00    +0.015 A 
ATOM      5  C   UNL     1       7.267  -3.363  22.939  0.00  0.00    +0.004 A 
ATOM      6  C   UNL     1       8.085  -2.352  22.431  0.00  0.00    +0.046 A 
ENDROOT
BRANCH   3   7
ATOM      7  C   UNL     1       9.451  -4.685  25.735  0.00  0.00    +0.337 C 
ATOM      8  O   UNL     1       9.004  -4.596  26.863  0.00  0.00    -0.245 OA
BRANCH   7   9
ATOM      9  O   UNL     1      10.424  -5.560  25.392  0.00  0.00    -0.477 OA
ATOM     10  H   UNL     1      10.212  -6.144  24.641  0.00  0.00    +0.295 HD
ENDBRANCH   7   9
ENDBRANCH   3   7
BRANCH   1  11
ATOM     11  O   UNL     1      10.217  -1.142  22.547  0.00  0.00    -0.492 OA
BRANCH  11  12
ATOM     12  C   UNL     1       9.698  -0.282  21.530  0.00  0.00    +0.229 C 
BRANCH  12  13
ATOM     13  C   UNL     1       9.567   1.143  22.060  0.00  0.00    +0.041 C 
BRANCH  13  14
ATOM     14  C   UNL     1      10.362   1.283  23.359  0.00  0.00    +0.003 C 
BRANCH  14  15
ATOM     15  C   UNL     1       9.514   1.864  24.487  0.00  0.00    +0.000 C 
BRANCH  15  16
ATOM     16  C   UNL     1       8.201   1.095  24.640  0.00  0.00    -0.000 C 
BRANCH  16  18
ATOM     17  C   UNL     1       7.072  -0.829  25.811  0.00  0.00    +0.004 C 
ATOM     18  C   UNL     1       8.288   0.080  25.778  0.00  0.00    -0.003 C 
ENDBRANCH  16  18
ENDBRANCH  15  16
ENDBRANCH  14  15
ENDBRANCH  13  14
ENDBRANCH  12  13
ENDBRANCH  11  12
ENDBRANCH   1  11
TORSDOF 9
ENDMDL
MODEL 4
REMARK VINA RESULT:      -5.4      3.164      5.565
REMARK  Name = 
REMARK  10 active torsions:
REMARK  status: ('A' for Active; 'I' for Inactive)
REMARK    1  A    between atoms: C_1  and  C_2
REMARK    2  A    between atoms: C_2  and  C_3
REMARK    3  A    between atoms: C_3  and  C_4
REMARK    4  A    between atoms: C_4  and  C_5
REMARK    5  A    between atoms: C_5  and  C_6
REMARK    6  A    between atoms: C_6  and  C_7
REMARK    7  A    between atoms: C_7  and  O_8
REMARK    8  A    between atoms: O_8  and  C_9
REMARK    9  A    between atoms: C_13  and  C_15
REMARK   10  A    between atoms: C_15  and  O_16
REMARK                            x       y       z     vdW  Elec       q    Type
REMARK                         _______ _______ _______ _____ _____    ______ ____
ROOT
ATOM      1  C   UNL     1       8.317  -3.595  23.667  0.00  0.00    +0.121 A 
ATOM      2  C   UNL     1       7.825  -4.665  22.916  0.00  0.00    +0.060 A 
ATOM      3  C   UNL     1       6.618  -4.536  22.213  0.00  0.00    +0.062 A 
ATOM      4  C   UNL     1       5.929  -3.317  22.221  0.00  0.00    +0.015 A 
ATOM      5  C   UNL     1       6.427  -2.246  22.958  0.00  0.00    +0.004 A 
ATOM      6  C   UNL     1       7.616  -2.386  23.677  0.00  0.00    +0.046 A 
ENDROOT
BRANCH   3   7
ATOM      7  C   UNL     1       6.129  -5.696  21.428  0.00  0.00    +0.337 C 
ATOM      8  O   UNL     1       5.920  -5.650  20.231  0.00  0.00    -0.245 OA
BRANCH   7   9
ATOM      9  O   UNL     1       5.979  -6.824  22.162  0.00  0.00    -0.477 OA
ATOM     10  H   UNL     1       5.382  -7.492  21.779  0.00  0.00    +0.295 HD
ENDBRANCH   7   9
ENDBRANCH   3   7
BRANCH   1  11
ATOM     11  O   UNL     1       9.503  -3.816  24.325  0.00  0.00    -0.492 OA
BRANCH  11  12
ATOM     12  C   UNL     1       9.465  -4.870  25.289  0.00  0.00    +0.229 C 
BRANCH  12  13
ATOM     13  C   UNL     1       8.803  -4.386  26.575  0.00  0.00    +0.041 C 
BRANCH  13  14
ATOM     14  C   UNL     1       7.655  -5.327  26.947  0.00  0.00    +0.003 C 
BRANCH  14  15
ATOM     15  C   UNL     1       6.304  -4.790  26.483  0.00  0.00    +0.000 C 
BRANCH  15  16
ATOM     16  C   UNL     1       5.586  -5.806  25.593  0.00  0.00    -0.000 C 
BRANCH  16  18
ATOM     17  C   UNL     1       4.099  -3.777  25.451  0.00  0.00    +0.004 C 
ATOM     18  C   UNL     1       4.292  -5.224  25.029  0.00  0.00    -0.003 C 
ENDBRANCH  16  18
ENDBRANCH  15  16
ENDBRANCH  14  15
ENDBRANCH  13  14
ENDBRANCH  12  13
ENDBRANCH  11  12
ENDBRANCH   1  11
TORSDOF 9
ENDMDL
MODEL 5
REMARK VINA RESULT:      -5.4      1.302      2.155
REMARK  Name = 
REMARK  10 active torsions:
REMARK  status: ('A' for Active; 'I' for Inactive)
REMARK    1  A    between atoms: C_1  and  C_2
REMARK    2  A    between atoms: C_2  and  C_3
REMARK    3  A    between atoms: C_3  and  C_4
REMARK    4  A    between atoms: C_4  and  C_5
REMARK    5  A    between atoms: C_5  and  C_6
REMARK    6  A    between atoms: C_6  and  C_7
REMARK    7  A    between atoms: C_7  and  O_8
REMARK    8  A    between atoms: O_8  and  C_9
REMARK    9  A    between atoms: C_13  and  C_15
REMARK   10  A    between atoms: C_15  and  O_16
REMARK                            x       y       z     vdW  Elec       q    Type
REMARK                         _______ _______ _______ _____ _____    ______ ____
ROOT
ATOM      1  C   UNL     1       8.685  -3.831  24.119  0.00  0.00    +0.121 A 
ATOM      2  C   UNL     1       8.362  -4.492  25.307  0.00  0.00    +0.060 A 
ATOM      3  C   UNL     1       7.133  -5.155  25.431  0.00  0.00    +0.062 A 
ATOM      4  C   UNL     1       6.248  -5.202  24.346  0.00  0.00    +0.015 A 
ATOM      5  C   UNL     1       6.577  -4.557  23.157  0.00  0.00    +0.004 A 
ATOM      6  C   UNL     1       7.790  -3.875  23.046  0.00  0.00    +0.046 A 
ENDROOT
BRANCH   3   7
ATOM      7  C   UNL     1       6.827  -5.843  26.709  0.00  0.00    +0.337 C 
ATOM      8  O   UNL     1       5.779  -6.425  26.919  0.00  0.00    -0.245 OA
BRANCH   7   9
ATOM      9  O   UNL     1       7.841  -5.801  27.604  0.00  0.00    -0.477 OA
ATOM     10  H   UNL     1       8.370  -6.617  27.672  0.00  0.00    +0.295 HD
ENDBRANCH   7   9
ENDBRANCH   3   7
BRANCH   1  11
ATOM     11  O   UNL     1       9.908  -3.206  24.091  0.00  0.00    -0.492 OA
BRANCH  11  12
ATOM     12  C   UNL     1       9.899  -1.899  23.511  0.00  0.00    +0.229 C 
BRANCH  12  13
ATOM     13  C   UNL     1       9.146  -0.927  24.412  0.00  0.00    +0.041 C 
BRANCH  13  14
ATOM     14  C   UNL     1      10.145  -0.066  25.188  0.00  0.00    +0.003 C 
BRANCH  14  15
ATOM     15  C   UNL     1      10.909   0.887  24.274  0.00  0.00    +0.000 C 
BRANCH  15  16
ATOM     16  C   UNL     1       9.960   1.878  23.599  0.00  0.00    -0.000 C 
BRANCH  16  18
ATOM     17  C   UNL     1       8.727   1.339  21.468  0.00  0.00    +0.004 C 
ATOM     18  C   UNL     1      10.049   1.775  22.078  0.00  0.00    -0.003 C 
ENDBRANCH  16  18
ENDBRANCH  15  16
ENDBRANCH  14  15
ENDBRANCH  13  14
ENDBRANCH  12  13
ENDBRANCH  11  12
ENDBRANCH   1  11
TORSDOF 9
ENDMDL
MODEL 6
REMARK VINA RESULT:      -5.4      2.060      3.108
REMARK  Name = 
REMARK  10 active torsions:
REMARK  status: ('A' for Active; 'I' for Inactive)
REMARK    1  A    between atoms: C_1  and  C_2
REMARK    2  A    between atoms: C_2  and  C_3
REMARK    3  A    between atoms: C_3  and  C_4
REMARK    4  A    between atoms: C_4  and  C_5
REMARK    5  A    between atoms: C_5  and  C_6
REMARK    6  A    between atoms: C_6  and  C_7
REMARK    7  A    between atoms: C_7  and  O_8
REMARK    8  A    between atoms: O_8  and  C_9
REMARK    9  A    between atoms: C_13  and  C_15
REMARK   10  A    between atoms: C_15  and  O_16
REMARK                            x       y       z     vdW  Elec       q    Type
REMARK                         _______ _______ _______ _____ _____    ______ ____
ROOT
ATOM      1  C   UNL     1       8.823  -4.009  24.436  0.00  0.00    +0.121 A 
ATOM      2  C   UNL     1       7.874  -4.212  23.430  0.00  0.00    +0.060 A 
ATOM      3  C   UNL     1       6.695  -4.918  23.707  0.00  0.00    +0.062 A 
ATOM      4  C   UNL     1       6.441  -5.378  25.006  0.00  0.00    +0.015 A 
ATOM      5  C   UNL     1       7.380  -5.164  26.011  0.00  0.00    +0.004 A 
ATOM      6  C   UNL     1       8.565  -4.482  25.725  0.00  0.00    +0.046 A 
ENDROOT
BRANCH   3   7
ATOM      7  C   UNL     1       5.714  -5.112  22.612  0.00  0.00    +0.337 C 
ATOM      8  O   UNL     1       4.957  -4.238  22.232  0.00  0.00    -0.245 OA
BRANCH   7   9
ATOM      9  O   UNL     1       5.769  -6.340  22.045  0.00  0.00    -0.477 OA
ATOM     10  H   UNL     1       4.953  -6.867  22.117  0.00  0.00    +0.295 HD
ENDBRANCH   7   9
ENDBRANCH   3   7
BRANCH   1  11
ATOM     11  O   UNL     1       9.948  -3.311  24.071  0.00  0.00    -0.492 OA
BRANCH  11  12
ATOM     12  C   UNL     1       9.701  -1.990  23.584  0.00  0.00    +0.229 C 
BRANCH  12  13
ATOM     13  C   UNL     1       9.364  -1.056  24.742  0.00  0.00    +0.041 C 
BRANCH  13  14
ATOM     14  C   UNL     1      10.351   0.112  24.765  0.00  0.00    +0.003 C 
BRANCH  14  15
ATOM     15  C   UNL     1       9.667   1.444  24.470  0.00  0.00    +0.000 C 
BRANCH  15  16
ATOM     16  C   UNL     1      10.352   2.168  23.310  0.00  0.00    -0.000 C 
BRANCH  16  18
ATOM     17  C   UNL     1       8.492   1.509  21.743  0.00  0.00    +0.004 C 
ATOM     18  C   UNL     1       9.994   1.524  21.973  0.00  0.00    -0.003 C 
ENDBRANCH  16  18
ENDBRANCH  15  16
ENDBRANCH  14  15
ENDBRANCH  13  14
ENDBRANCH  12  13
ENDBRANCH  11  12
ENDBRANCH   1  11
TORSDOF 9
ENDMDL
MODEL 7
REMARK VINA RESULT:      -5.3      3.647      7.813
REMARK  Name = 
REMARK  10 active torsions:
REMARK  status: ('A' for Active; 'I' for Inactive)
REMARK    1  A    between atoms: C_1  and  C_2
REMARK    2  A    between atoms: C_2  and  C_3
REMARK    3  A    between atoms: C_3  and  C_4
REMARK    4  A    between atoms: C_4  and  C_5
REMARK    5  A    between atoms: C_5  and  C_6
REMARK    6  A    between atoms: C_6  and  C_7
REMARK    7  A    between atoms: C_7  and  O_8
REMARK    8  A    between atoms: O_8  and  C_9
REMARK    9  A    between atoms: C_13  and  C_15
REMARK   10  A    between atoms: C_15  and  O_16
REMARK                            x       y       z     vdW  Elec       q    Type
REMARK                         _______ _______ _______ _____ _____    ______ ____
ROOT
ATOM      1  C   UNL     1       9.970   3.625  23.723  0.00  0.00    +0.121 A 
ATOM      2  C   UNL     1      11.227   3.852  23.156  0.00  0.00    +0.060 A 
ATOM      3  C   UNL     1      11.842   5.105  23.285  0.00  0.00    +0.062 A 
ATOM      4  C   UNL     1      11.221   6.118  24.027  0.00  0.00    +0.015 A 
ATOM      5  C   UNL     1       9.975   5.887  24.604  0.00  0.00    +0.004 A 
ATOM      6  C   UNL     1       9.354   4.646  24.452  0.00  0.00    +0.046 A 
ENDROOT
BRANCH   3   7
ATOM      7  C   UNL     1      13.176   5.305  22.668  0.00  0.00    +0.337 C 
ATOM      8  O   UNL     1      13.339   5.859  21.598  0.00  0.00    -0.245 OA
BRANCH   7   9
ATOM      9  O   UNL     1      14.200   4.852  23.429  0.00  0.00    -0.477 OA
ATOM     10  H   UNL     1      14.385   5.375  24.230  0.00  0.00    +0.295 HD
ENDBRANCH   7   9
ENDBRANCH   3   7
BRANCH   1  11
ATOM     11  O   UNL     1       9.445   2.369  23.540  0.00  0.00    -0.492 OA
BRANCH  11  12
ATOM     12  C   UNL     1       9.654   1.469  24.631  0.00  0.00    +0.229 C 
BRANCH  12  13
ATOM     13  C   UNL     1      10.559   0.319  24.200  0.00  0.00    +0.041 C 
BRANCH  13  14
ATOM     14  C   UNL     1      10.172  -0.140  22.793  0.00  0.00    +0.003 C 
BRANCH  14  15
ATOM     15  C   UNL     1      10.380  -1.640  22.604  0.00  0.00    +0.000 C 
BRANCH  15  16
ATOM     16  C   UNL     1       9.840  -2.424  23.801  0.00  0.00    -0.000 C 
BRANCH  16  18
ATOM     17  C   UNL     1       7.769  -3.118  22.546  0.00  0.00    +0.004 C 
ATOM     18  C   UNL     1       8.313  -2.450  23.797  0.00  0.00    -0.003 C 
ENDBRANCH  16  18
ENDBRANCH  15  16
ENDBRANCH  14  15
ENDBRANCH  13  14
ENDBRANCH  12  13
ENDBRANCH  11  12
ENDBRANCH   1  11
TORSDOF 9
ENDMDL
MODEL 8
REMARK VINA RESULT:      -5.1      3.109      6.368
REMARK  Name = 
REMARK  10 active torsions:
REMARK  status: ('A' for Active; 'I' for Inactive)
REMARK    1  A    between atoms: C_1  and  C_2
REMARK    2  A    between atoms: C_2  and  C_3
REMARK    3  A    between atoms: C_3  and  C_4
REMARK    4  A    between atoms: C_4  and  C_5
REMARK    5  A    between atoms: C_5  and  C_6
REMARK    6  A    between atoms: C_6  and  C_7
REMARK    7  A    between atoms: C_7  and  O_8
REMARK    8  A    between atoms: O_8  and  C_9
REMARK    9  A    between atoms: C_13  and  C_15
REMARK   10  A    between atoms: C_15  and  O_16
REMARK                            x       y       z     vdW  Elec       q    Type
REMARK                         _______ _______ _______ _____ _____    ______ ____
ROOT
ATOM      1  C   UNL     1       9.329   1.004  21.851  0.00  0.00    +0.121 A 
ATOM      2  C   UNL     1       8.131   1.706  21.692  0.00  0.00    +0.060 A 
ATOM      3  C   UNL     1       7.926   2.913  22.374  0.00  0.00    +0.062 A 
ATOM      4  C   UNL     1       8.943   3.446  23.177  0.00  0.00    +0.015 A 
ATOM      5  C   UNL     1      10.142   2.754  23.324  0.00  0.00    +0.004 A 
ATOM      6  C   UNL     1      10.332   1.539  22.663  0.00  0.00    +0.046 A 
ENDROOT
BRANCH   3   7
ATOM      7  C   UNL     1       6.641   3.627  22.179  0.00  0.00    +0.337 C 
ATOM      8  O   UNL     1       5.556   3.108  22.365  0.00  0.00    -0.245 OA
BRANCH   7   9
ATOM      9  O   UNL     1       6.788   4.922  21.815  0.00  0.00    -0.477 OA
ATOM     10  H   UNL     1       6.418   5.573  22.438  0.00  0.00    +0.295 HD
ENDBRANCH   7   9
ENDBRANCH   3   7
BRANCH   1  11
ATOM     11  O   UNL     1       9.437  -0.171  21.147  0.00  0.00    -0.492 OA
BRANCH  11  12
ATOM     12  C   UNL     1      10.037  -1.248  21.870  0.00  0.00    +0.229 C 
BRANCH  12  13
ATOM     13  C   UNL     1       8.980  -1.994  22.678  0.00  0.00    +0.041 C 
BRANCH  13  14
ATOM     14  C   UNL     1       9.535  -2.327  24.064  0.00  0.00    +0.003 C 
BRANCH  14  15
ATOM     15  C   UNL     1       8.700  -1.703  25.179  0.00  0.00    +0.000 C 
BRANCH  15  16
ATOM     16  C   UNL     1       9.215  -0.308  25.536  0.00  0.00    -0.000 C 
BRANCH  16  18
ATOM     17  C   UNL     1       6.857   0.226  24.828  0.00  0.00    +0.004 C 
ATOM     18  C   UNL     1       8.069   0.698  25.612  0.00  0.00    -0.003 C 
ENDBRANCH  16  18
ENDBRANCH  15  16
ENDBRANCH  14  15
ENDBRANCH  13  14
ENDBRANCH  12  13
ENDBRANCH  11  12
ENDBRANCH   1  11
TORSDOF 9
ENDMDL
MODEL 9
REMARK VINA RESULT:      -5.1      2.238      3.277
REMARK  Name = 
REMARK  10 active torsions:
REMARK  status: ('A' for Active; 'I' for Inactive)
REMARK    1  A    between atoms: C_1  and  C_2
REMARK    2  A    between atoms: C_2  and  C_3
REMARK    3  A    between atoms: C_3  and  C_4
REMARK    4  A    between atoms: C_4  and  C_5
REMARK    5  A    between atoms: C_5  and  C_6
REMARK    6  A    between atoms: C_6  and  C_7
REMARK    7  A    between atoms: C_7  and  O_8
REMARK    8  A    between atoms: O_8  and  C_9
REMARK    9  A    between atoms: C_13  and  C_15
REMARK   10  A    between atoms: C_15  and  O_16
REMARK                            x       y       z     vdW  Elec       q    Type
REMARK                         _______ _______ _______ _____ _____    ______ ____
ROOT
ATOM      1  C   UNL     1       7.263  -4.004  23.783  0.00  0.00    +0.121 A 
ATOM      2  C   UNL     1       6.415  -4.857  24.494  0.00  0.00    +0.060 A 
ATOM      3  C   UNL     1       5.714  -5.871  23.826  0.00  0.00    +0.062 A 
ATOM      4  C   UNL     1       5.903  -6.065  22.452  0.00  0.00    +0.015 A 
ATOM      5  C   UNL     1       6.759  -5.225  21.746  0.00  0.00    +0.004 A 
ATOM      6  C   UNL     1       7.435  -4.200  22.410  0.00  0.00    +0.046 A 
ENDROOT
BRANCH   3   7
ATOM      7  C   UNL     1       4.823  -6.755  24.617  0.00  0.00    +0.337 C 
ATOM      8  O   UNL     1       4.830  -6.791  25.833  0.00  0.00    -0.245 OA
BRANCH   7   9
ATOM      9  O   UNL     1       3.971  -7.485  23.861  0.00  0.00    -0.477 OA
ATOM     10  H   UNL     1       3.072  -7.119  23.778  0.00  0.00    +0.295 HD
ENDBRANCH   7   9
ENDBRANCH   3   7
BRANCH   1  11
ATOM     11  O   UNL     1       7.903  -3.038  24.521  0.00  0.00    -0.492 OA
BRANCH  11  12
ATOM     12  C   UNL     1       9.293  -2.883  24.226  0.00  0.00    +0.229 C 
BRANCH  12  13
ATOM     13  C   UNL     1       9.579  -1.457  23.768  0.00  0.00    +0.041 C 
BRANCH  13  14
ATOM     14  C   UNL     1      10.240  -1.483  22.389  0.00  0.00    +0.003 C 
BRANCH  14  15
ATOM     15  C   UNL     1       9.653  -0.430  21.454  0.00  0.00    +0.000 C 
BRANCH  15  16
ATOM     16  C   UNL     1       9.054   0.734  22.245  0.00  0.00    -0.000 C 
BRANCH  16  18
ATOM     17  C   UNL     1      10.529   2.292  23.566  0.00  0.00    +0.004 C 
ATOM     18  C   UNL     1       9.965   1.958  22.195  0.00  0.00    -0.003 C 
ENDBRANCH  16  18
ENDBRANCH  15  16
ENDBRANCH  14  15
ENDBRANCH  13  14
ENDBRANCH  12  13
ENDBRANCH  11  12
ENDBRANCH   1  11
TORSDOF 9
ENDMDL
