MODEL 1
REMARK VINA RESULT:      -8.7      0.000      0.000
REMARK  Name = 
REMARK  6 active torsions:
REMARK  status: ('A' for Active; 'I' for Inactive)
REMARK    1  A    between atoms: C_1  and  N_2
REMARK    2  A    between atoms: N_8  and  C_9
REMARK    3  A    between atoms: C_9  and  C_10
REMARK    4  A    between atoms: C_10  and  C_11
REMARK    5  A    between atoms: N_18  and  C_19
REMARK    6  A    between atoms: C_23  and  C_25
REMARK                            x       y       z     vdW  Elec       q    Type
REMARK                         _______ _______ _______ _____ _____    ______ ____
ROOT
ATOM      1  C   UNL     1       8.948  -2.723  25.777  0.00  0.00    +0.013 A 
ATOM      2  S   UNL     1       9.431  -2.734  24.121  0.00  0.00    -0.057 S 
ATOM      3  C   UNL     1       9.212  -1.051  24.069  0.00  0.00    +0.166 A 
ATOM      4  N   UNL     1       9.523  -0.455  22.884  0.00  0.00    -0.248 N 
ATOM      5  H   UNL     1       9.799  -1.035  22.108  0.00  0.00    +0.158 HD
ATOM      6  C   UNL     1       9.598   0.893  22.676  0.00  0.00    +0.310 C 
ATOM      7  N   UNL     1       9.357   1.701  23.757  0.00  0.00    -0.269 N 
ATOM      8  H   UNL     1       8.947   1.233  24.564  0.00  0.00    +0.156 HD
ATOM      9  O   UNL     1       9.915   1.269  21.549  0.00  0.00    -0.252 OA
ATOM     10  N   UNL     1       8.782  -0.470  25.159  0.00  0.00    -0.233 NA
ATOM     11  C   UNL     1       8.638  -1.425  26.141  0.00  0.00    +0.124 A 
ENDROOT
BRANCH   7  12
ATOM     12  C   UNL     1       9.626   3.078  23.889  0.00  0.00    +0.035 A 
ATOM     13  C   UNL     1      10.887   3.543  23.502  0.00  0.00    +0.035 A 
ATOM     14  C   UNL     1      11.200   4.915  23.566  0.00  0.00    +0.057 A 
ATOM     15  C   UNL     1      10.234   5.811  24.042  0.00  0.00    +0.012 A 
ATOM     16  C   UNL     1       8.978   5.351  24.425  0.00  0.00    +0.002 A 
ATOM     17  C   UNL     1       8.675   3.992  24.345  0.00  0.00    +0.023 A 
BRANCH  14  18
ATOM     18  C   UNL     1      12.553   5.410  23.120  0.00  0.00    +0.417 C 
ATOM     19  F   UNL     1      13.558   4.556  23.460  0.00  0.00    -0.166 F 
ATOM     20  F   UNL     1      12.881   6.611  23.672  0.00  0.00    -0.166 F 
ATOM     21  F   UNL     1      12.654   5.581  21.770  0.00  0.00    -0.166 F 
ENDBRANCH  14  18
ENDBRANCH   7  12
BRANCH   1  22
ATOM     22  C   UNL     1       8.899  -4.013  26.549  0.00  0.00    +0.062 C 
BRANCH  22  23
ATOM     23  C   UNL     1       8.451  -5.229  25.726  0.00  0.00    +0.108 C 
BRANCH  23  31
ATOM     24  C   UNL     1       3.997  -6.082  26.463  0.00  0.00    +0.173 C 
ATOM     25  N   UNL     1       3.995  -5.960  25.025  0.00  0.00    -0.262 N 
ATOM     26  C   UNL     1       5.062  -5.698  24.203  0.00  0.00    +0.126 A 
ATOM     27  C   UNL     1       6.412  -5.415  24.391  0.00  0.00    +0.148 A 
ATOM     28  N   UNL     1       7.153  -5.241  23.274  0.00  0.00    -0.219 NA
ATOM     29  C   UNL     1       6.559  -5.315  22.068  0.00  0.00    +0.224 A 
ATOM     30  N   UNL     1       5.271  -5.556  21.804  0.00  0.00    -0.232 NA
ATOM     31  N   UNL     1       6.999  -5.276  25.628  0.00  0.00    -0.327 N 
ATOM     32  H   UNL     1       6.474  -5.516  26.450  0.00  0.00    +0.148 HD
ATOM     33  C   UNL     1       4.538  -5.749  22.919  0.00  0.00    +0.114 A 
ATOM     34  C   UNL     1       3.167  -6.018  23.085  0.00  0.00    +0.162 A 
ATOM     35  N   UNL     1       2.828  -6.155  24.370  0.00  0.00    -0.177 NA
ENDBRANCH  23  31
ENDBRANCH  22  23
ENDBRANCH   1  22
TORSDOF 5
ENDMDL
MODEL 2
REMARK VINA RESULT:      -8.5      1.647      2.893
REMARK  Name = 
REMARK  6 active torsions:
REMARK  status: ('A' for Active; 'I' for Inactive)
REMARK    1  A    between atoms: C_1  and  N_2
REMARK    2  A    between atoms: N_8  and  C_9
REMARK    3  A    between atoms: C_9  and  C_10
REMARK    4  A    between atoms: C_10  and  C_11
REMARK    5  A    between atoms: N_18  and  C_19
REMARK    6  A    between atoms: C_23  and  C_25
REMARK                            x       y       z     vdW  Elec       q    Type
REMARK                         _______ _______ _______ _____ _____    ______ ____
ROOT
ATOM      1  C   UNL     1       6.866  -2.455  23.121  0.00  0.00    +0.013 A 
ATOM      2  S   UNL     1       8.358  -2.770  23.926  0.00  0.00    -0.057 S 
ATOM      3  C   UNL     1       8.830  -1.165  23.636  0.00  0.00    +0.166 A 
ATOM      4  N   UNL     1      10.041  -0.807  24.146  0.00  0.00    -0.248 N 
ATOM      5  H   UNL     1      10.601  -1.510  24.601  0.00  0.00    +0.158 HD
ATOM      6  C   UNL     1      10.531   0.467  24.192  0.00  0.00    +0.310 C 
ATOM      7  N   UNL     1       9.724   1.459  23.698  0.00  0.00    -0.269 N 
ATOM      8  H   UNL     1       8.922   1.136  23.159  0.00  0.00    +0.156 HD
ATOM      9  O   UNL     1      11.636   0.624  24.708  0.00  0.00    -0.252 OA
ATOM     10  N   UNL     1       7.997  -0.410  22.966  0.00  0.00    -0.233 NA
ATOM     11  C   UNL     1       6.868  -1.144  22.678  0.00  0.00    +0.124 A 
ENDROOT
BRANCH   7  12
ATOM     12  C   UNL     1       9.860   2.852  23.864  0.00  0.00    +0.035 A 
ATOM     13  C   UNL     1      11.070   3.445  23.491  0.00  0.00    +0.035 A 
ATOM     14  C   UNL     1      11.252   4.838  23.589  0.00  0.00    +0.057 A 
ATOM     15  C   UNL     1      10.204   5.626  24.084  0.00  0.00    +0.012 A 
ATOM     16  C   UNL     1       8.997   5.040  24.452  0.00  0.00    +0.002 A 
ATOM     17  C   UNL     1       8.825   3.660  24.339  0.00  0.00    +0.023 A 
BRANCH  14  18
ATOM     18  C   UNL     1      12.551   5.472  23.158  0.00  0.00    +0.417 C 
ATOM     19  F   UNL     1      12.826   6.614  23.847  0.00  0.00    -0.166 F 
ATOM     20  F   UNL     1      12.554   5.820  21.842  0.00  0.00    -0.166 F 
ATOM     21  F   UNL     1      13.636   4.664  23.332  0.00  0.00    -0.166 F 
ENDBRANCH  14  18
ENDBRANCH   7  12
BRANCH   1  22
ATOM     22  C   UNL     1       5.844  -3.549  22.986  0.00  0.00    +0.062 C 
BRANCH  22  23
ATOM     23  C   UNL     1       6.382  -4.958  23.274  0.00  0.00    +0.108 C 
BRANCH  23  31
ATOM     24  C   UNL     1       2.810  -6.547  25.687  0.00  0.00    +0.173 C 
ATOM     25  N   UNL     1       3.814  -6.506  26.723  0.00  0.00    -0.262 N 
ATOM     26  C   UNL     1       5.122  -6.109  26.607  0.00  0.00    +0.126 A 
ATOM     27  C   UNL     1       5.944  -5.690  25.565  0.00  0.00    +0.148 A 
ATOM     28  N   UNL     1       7.211  -5.351  25.892  0.00  0.00    -0.219 NA
ATOM     29  C   UNL     1       7.615  -5.464  27.172  0.00  0.00    +0.224 A 
ATOM     30  N   UNL     1       6.901  -5.880  28.222  0.00  0.00    -0.232 NA
ATOM     31  N   UNL     1       5.542  -5.640  24.249  0.00  0.00    -0.327 N 
ATOM     32  H   UNL     1       4.573  -5.783  24.025  0.00  0.00    +0.148 HD
ATOM     33  C   UNL     1       5.632  -6.198  27.895  0.00  0.00    +0.114 A 
ATOM     34  C   UNL     1       4.570  -6.675  28.685  0.00  0.00    +0.162 A 
ATOM     35  N   UNL     1       3.452  -6.860  27.976  0.00  0.00    -0.177 NA
ENDBRANCH  23  31
ENDBRANCH  22  23
ENDBRANCH   1  22
TORSDOF 5
ENDMDL
MODEL 3
REMARK VINA RESULT:      -8.4      1.992      3.177
REMARK  Name = 
REMARK  6 active torsions:
REMARK  status: ('A' for Active; 'I' for Inactive)
REMARK    1  A    between atoms: C_1  and  N_2
REMARK    2  A    between atoms: N_8  and  C_9
REMARK    3  A    between atoms: C_9  and  C_10
REMARK    4  A    between atoms: C_10  and  C_11
REMARK    5  A    between atoms: N_18  and  C_19
REMARK    6  A    between atoms: C_23  and  C_25
REMARK                            x       y       z     vdW  Elec       q    Type
REMARK                         _______ _______ _______ _____ _____    ______ ____
ROOT
ATOM      1  C   UNL     1       6.834  -1.997  22.653  0.00  0.00    +0.013 A 
ATOM      2  S   UNL     1       6.171  -1.534  24.176  0.00  0.00    -0.057 S 
ATOM      3  C   UNL     1       7.176  -0.164  24.173  0.00  0.00    +0.166 A 
ATOM      4  N   UNL     1       7.027   0.676  25.234  0.00  0.00    -0.248 N 
ATOM      5  H   UNL     1       6.392   0.416  25.971  0.00  0.00    +0.158 HD
ATOM      6  C   UNL     1       7.592   1.915  25.344  0.00  0.00    +0.310 C 
ATOM      7  N   UNL     1       8.353   2.344  24.287  0.00  0.00    -0.269 N 
ATOM      8  H   UNL     1       8.595   1.624  23.608  0.00  0.00    +0.156 HD
ATOM      9  O   UNL     1       7.338   2.558  26.360  0.00  0.00    -0.252 OA
ATOM     10  N   UNL     1       7.990  -0.024  23.158  0.00  0.00    -0.233 NA
ATOM     11  C   UNL     1       7.790  -1.067  22.283  0.00  0.00    +0.124 A 
ENDROOT
BRANCH   7  12
ATOM     12  C   UNL     1       8.816   3.648  24.024  0.00  0.00    +0.035 A 
ATOM     13  C   UNL     1      10.197   3.855  23.942  0.00  0.00    +0.035 A 
ATOM     14  C   UNL     1      10.719   5.126  23.637  0.00  0.00    +0.057 A 
ATOM     15  C   UNL     1       9.834   6.193  23.430  0.00  0.00    +0.012 A 
ATOM     16  C   UNL     1       8.460   5.990  23.507  0.00  0.00    +0.002 A 
ATOM     17  C   UNL     1       7.954   4.723  23.799  0.00  0.00    +0.023 A 
BRANCH  14  18
ATOM     18  C   UNL     1      12.209   5.332  23.523  0.00  0.00    +0.417 C 
ATOM     19  F   UNL     1      12.894   4.156  23.472  0.00  0.00    -0.166 F 
ATOM     20  F   UNL     1      12.726   6.020  24.578  0.00  0.00    -0.166 F 
ATOM     21  F   UNL     1      12.581   6.025  22.409  0.00  0.00    -0.166 F 
ENDBRANCH  14  18
ENDBRANCH   7  12
BRANCH   1  22
ATOM     22  C   UNL     1       6.358  -3.256  21.983  0.00  0.00    +0.062 C 
BRANCH  22  23
ATOM     23  C   UNL     1       7.241  -4.485  22.242  0.00  0.00    +0.108 C 
BRANCH  23  31
ATOM     24  C   UNL     1       4.545  -6.670  25.254  0.00  0.00    +0.173 C 
ATOM     25  N   UNL     1       5.614  -6.253  26.130  0.00  0.00    -0.262 N 
ATOM     26  C   UNL     1       6.740  -5.544  25.799  0.00  0.00    +0.126 A 
ATOM     27  C   UNL     1       7.289  -5.045  24.621  0.00  0.00    +0.148 A 
ATOM     28  N   UNL     1       8.444  -4.353  24.739  0.00  0.00    -0.219 NA
ATOM     29  C   UNL     1       9.010  -4.212  25.952  0.00  0.00    +0.224 A 
ATOM     30  N   UNL     1       8.564  -4.680  27.122  0.00  0.00    -0.232 NA
ATOM     31  N   UNL     1       6.738  -5.249  23.376  0.00  0.00    -0.327 N 
ATOM     32  H   UNL     1       5.826  -5.663  23.304  0.00  0.00    +0.148 HD
ATOM     33  C   UNL     1       7.401  -5.352  27.005  0.00  0.00    +0.114 A 
ATOM     34  C   UNL     1       6.610  -5.998  27.972  0.00  0.00    +0.162 A 
ATOM     35  N   UNL     1       5.511  -6.547  27.446  0.00  0.00    -0.177 NA
ENDBRANCH  23  31
ENDBRANCH  22  23
ENDBRANCH   1  22
TORSDOF 5
ENDMDL
MODEL 4
REMARK VINA RESULT:      -8.4      1.507      2.538
REMARK  Name = 
REMARK  6 active torsions:
REMARK  status: ('A' for Active; 'I' for Inactive)
REMARK    1  A    between atoms: C_1  and  N_2
REMARK    2  A    between atoms: N_8  and  C_9
REMARK    3  A    between atoms: C_9  and  C_10
REMARK    4  A    between atoms: C_10  and  C_11
REMARK    5  A    between atoms: N_18  and  C_19
REMARK    6  A    between atoms: C_23  and  C_25
REMARK                            x       y       z     vdW  Elec       q    Type
REMARK                         _______ _______ _______ _____ _____    ______ ____
ROOT
ATOM      1  C   UNL     1       9.282  -2.371  24.231  0.00  0.00    +0.013 A 
ATOM      2  S   UNL     1       8.371  -1.988  22.818  0.00  0.00    -0.057 S 
ATOM      3  C   UNL     1       8.384  -0.353  23.278  0.00  0.00    +0.166 A 
ATOM      4  N   UNL     1       7.780   0.506  22.412  0.00  0.00    -0.248 N 
ATOM      5  H   UNL     1       7.319   0.129  21.600  0.00  0.00    +0.158 HD
ATOM      6  C   UNL     1       7.832   1.869  22.488  0.00  0.00    +0.310 C 
ATOM      7  N   UNL     1       8.570   2.404  23.513  0.00  0.00    -0.269 N 
ATOM      8  H   UNL     1       8.843   1.744  24.239  0.00  0.00    +0.156 HD
ATOM      9  O   UNL     1       7.249   2.501  21.610  0.00  0.00    -0.252 OA
ATOM     10  N   UNL     1       8.977  -0.055  24.406  0.00  0.00    -0.233 NA
ATOM     11  C   UNL     1       9.500  -1.208  24.949  0.00  0.00    +0.124 A 
ENDROOT
BRANCH   7  12
ATOM     12  C   UNL     1       9.006   3.735  23.665  0.00  0.00    +0.035 A 
ATOM     13  C   UNL     1      10.368   4.005  23.501  0.00  0.00    +0.035 A 
ATOM     14  C   UNL     1      10.858   5.323  23.596  0.00  0.00    +0.057 A 
ATOM     15  C   UNL     1       9.961   6.362  23.874  0.00  0.00    +0.012 A 
ATOM     16  C   UNL     1       8.605   6.097  24.034  0.00  0.00    +0.002 A 
ATOM     17  C   UNL     1       8.130   4.790  23.927  0.00  0.00    +0.023 A 
BRANCH  14  18
ATOM     18  C   UNL     1      12.325   5.608  23.389  0.00  0.00    +0.417 C 
ATOM     19  F   UNL     1      12.764   6.648  24.151  0.00  0.00    -0.166 F 
ATOM     20  F   UNL     1      12.619   5.938  22.101  0.00  0.00    -0.166 F 
ATOM     21  F   UNL     1      13.134   4.555  23.697  0.00  0.00    -0.166 F 
ENDBRANCH  14  18
ENDBRANCH   7  12
BRANCH   1  22
ATOM     22  C   UNL     1       9.673  -3.797  24.505  0.00  0.00    +0.062 C 
BRANCH  22  23
ATOM     23  C   UNL     1       8.973  -4.424  25.719  0.00  0.00    +0.108 C 
BRANCH  23  31
ATOM     24  C   UNL     1       5.265  -5.936  23.466  0.00  0.00    +0.173 C 
ATOM     25  N   UNL     1       4.909  -6.309  24.815  0.00  0.00    -0.262 N 
ATOM     26  C   UNL     1       5.641  -6.116  25.959  0.00  0.00    +0.126 A 
ATOM     27  C   UNL     1       6.899  -5.601  26.257  0.00  0.00    +0.148 A 
ATOM     28  N   UNL     1       7.242  -5.562  27.564  0.00  0.00    -0.219 NA
ATOM     29  C   UNL     1       6.386  -6.043  28.486  0.00  0.00    +0.224 A 
ATOM     30  N   UNL     1       5.177  -6.575  28.282  0.00  0.00    -0.232 NA
ATOM     31  N   UNL     1       7.794  -5.172  25.303  0.00  0.00    -0.327 N 
ATOM     32  H   UNL     1       7.495  -5.096  24.347  0.00  0.00    +0.148 HD
ATOM     33  C   UNL     1       4.830  -6.592  26.979  0.00  0.00    +0.114 A 
ATOM     34  C   UNL     1       3.667  -7.064  26.343  0.00  0.00    +0.162 A 
ATOM     35  N   UNL     1       3.705  -6.888  25.019  0.00  0.00    -0.177 NA
ENDBRANCH  23  31
ENDBRANCH  22  23
ENDBRANCH   1  22
TORSDOF 5
ENDMDL
MODEL 5
REMARK VINA RESULT:      -8.4      5.368     10.812
REMARK  Name = 
REMARK  6 active torsions:
REMARK  status: ('A' for Active; 'I' for Inactive)
REMARK    1  A    between atoms: C_1  and  N_2
REMARK    2  A    between atoms: N_8  and  C_9
REMARK    3  A    between atoms: C_9  and  C_10
REMARK    4  A    between atoms: C_10  and  C_11
REMARK    5  A    between atoms: N_18  and  C_19
REMARK    6  A    between atoms: C_23  and  C_25
REMARK                            x       y       z     vdW  Elec       q    Type
REMARK                         _______ _______ _______ _____ _____    ______ ____
ROOT
ATOM      1  C   UNL     1       8.988  -0.126  22.600  0.00  0.00    +0.013 A 
ATOM      2  S   UNL     1      10.200  -1.352  22.602  0.00  0.00    -0.057 S 
ATOM      3  C   UNL     1       9.333  -2.177  23.808  0.00  0.00    +0.166 A 
ATOM      4  N   UNL     1       9.866  -3.366  24.204  0.00  0.00    -0.248 N 
ATOM      5  H   UNL     1      10.750  -3.654  23.817  0.00  0.00    +0.158 HD
ATOM      6  C   UNL     1       9.249  -4.274  25.017  0.00  0.00    +0.310 C 
ATOM      7  N   UNL     1       7.985  -3.961  25.448  0.00  0.00    -0.269 N 
ATOM      8  H   UNL     1       7.701  -2.995  25.291  0.00  0.00    +0.156 HD
ATOM      9  O   UNL     1       9.859  -5.313  25.261  0.00  0.00    -0.252 OA
ATOM     10  N   UNL     1       8.234  -1.617  24.241  0.00  0.00    -0.233 NA
ATOM     11  C   UNL     1       8.029  -0.447  23.545  0.00  0.00    +0.124 A 
ENDROOT
BRANCH   7  12
ATOM     12  C   UNL     1       7.039  -4.811  26.054  0.00  0.00    +0.035 A 
ATOM     13  C   UNL     1       6.047  -5.376  25.246  0.00  0.00    +0.035 A 
ATOM     14  C   UNL     1       5.101  -6.270  25.785  0.00  0.00    +0.057 A 
ATOM     15  C   UNL     1       5.156  -6.575  27.151  0.00  0.00    +0.012 A 
ATOM     16  C   UNL     1       6.144  -6.018  27.956  0.00  0.00    +0.002 A 
ATOM     17  C   UNL     1       7.083  -5.143  27.409  0.00  0.00    +0.023 A 
BRANCH  14  18
ATOM     18  C   UNL     1       4.052  -6.896  24.899  0.00  0.00    +0.417 C 
ATOM     19  F   UNL     1       3.521  -8.027  25.442  0.00  0.00    -0.166 F 
ATOM     20  F   UNL     1       4.542  -7.260  23.683  0.00  0.00    -0.166 F 
ATOM     21  F   UNL     1       2.993  -6.075  24.644  0.00  0.00    -0.166 F 
ENDBRANCH  14  18
ENDBRANCH   7  12
BRANCH   1  22
ATOM     22  C   UNL     1       9.118   1.052  21.675  0.00  0.00    +0.062 C 
BRANCH  22  23
ATOM     23  C   UNL     1      10.193   2.067  22.089  0.00  0.00    +0.108 C 
BRANCH  23  31
ATOM     24  C   UNL     1       7.436   4.901  24.429  0.00  0.00    +0.173 C 
ATOM     25  N   UNL     1       8.701   5.571  24.616  0.00  0.00    -0.262 N 
ATOM     26  C   UNL     1       9.929   5.190  24.140  0.00  0.00    +0.126 A 
ATOM     27  C   UNL     1      10.422   4.104  23.422  0.00  0.00    +0.148 A 
ATOM     28  N   UNL     1      11.740   4.126  23.121  0.00  0.00    -0.219 NA
ATOM     29  C   UNL     1      12.498   5.153  23.550  0.00  0.00    +0.224 A 
ATOM     30  N   UNL     1      12.110   6.215  24.263  0.00  0.00    -0.232 NA
ATOM     31  N   UNL     1       9.653   3.026  23.044  0.00  0.00    -0.327 N 
ATOM     32  H   UNL     1       8.658   3.065  23.168  0.00  0.00    +0.148 HD
ATOM     33  C   UNL     1      10.792   6.200  24.543  0.00  0.00    +0.114 A 
ATOM     34  C   UNL     1       9.993   7.108  25.262  0.00  0.00    +0.162 A 
ATOM     35  N   UNL     1       8.711   6.733  25.306  0.00  0.00    -0.177 NA
ENDBRANCH  23  31
ENDBRANCH  22  23
ENDBRANCH   1  22
TORSDOF 5
ENDMDL
MODEL 6
REMARK VINA RESULT:      -8.3      5.238     10.824
REMARK  Name = 
REMARK  6 active torsions:
REMARK  status: ('A' for Active; 'I' for Inactive)
REMARK    1  A    between atoms: C_1  and  N_2
REMARK    2  A    between atoms: N_8  and  C_9
REMARK    3  A    between atoms: C_9  and  C_10
REMARK    4  A    between atoms: C_10  and  C_11
REMARK    5  A    between atoms: N_18  and  C_19
REMARK    6  A    between atoms: C_23  and  C_25
REMARK                            x       y       z     vdW  Elec       q    Type
REMARK                         _______ _______ _______ _____ _____    ______ ____
ROOT
ATOM      1  C   UNL     1       8.878  -0.145  22.459  0.00  0.00    +0.013 A 
ATOM      2  S   UNL     1      10.138  -1.312  22.622  0.00  0.00    -0.057 S 
ATOM      3  C   UNL     1       9.133  -2.223  23.645  0.00  0.00    +0.166 A 
ATOM      4  N   UNL     1       9.657  -3.399  24.086  0.00  0.00    -0.248 N 
ATOM      5  H   UNL     1      10.606  -3.630  23.839  0.00  0.00    +0.158 HD
ATOM      6  C   UNL     1       8.965  -4.366  24.760  0.00  0.00    +0.310 C 
ATOM      7  N   UNL     1       7.634  -4.129  24.989  0.00  0.00    -0.269 N 
ATOM      8  H   UNL     1       7.329  -3.173  24.817  0.00  0.00    +0.156 HD
ATOM      9  O   UNL     1       9.582  -5.383  25.069  0.00  0.00    -0.252 OA
ATOM     10  N   UNL     1       7.950  -1.732  23.910  0.00  0.00    -0.233 NA
ATOM     11  C   UNL     1       7.798  -0.547  23.226  0.00  0.00    +0.124 A 
ENDROOT
BRANCH   7  12
ATOM     12  C   UNL     1       6.649  -5.046  25.407  0.00  0.00    +0.035 A 
ATOM     13  C   UNL     1       6.543  -5.323  26.773  0.00  0.00    +0.035 A 
ATOM     14  C   UNL     1       5.549  -6.195  27.258  0.00  0.00    +0.057 A 
ATOM     15  C   UNL     1       4.673  -6.799  26.347  0.00  0.00    +0.012 A 
ATOM     16  C   UNL     1       4.772  -6.523  24.988  0.00  0.00    +0.002 A 
ATOM     17  C   UNL     1       5.754  -5.648  24.520  0.00  0.00    +0.023 A 
BRANCH  14  18
ATOM     18  C   UNL     1       5.426  -6.465  28.737  0.00  0.00    +0.417 C 
ATOM     19  F   UNL     1       5.166  -5.335  29.452  0.00  0.00    -0.166 F 
ATOM     20  F   UNL     1       6.562  -6.991  29.271  0.00  0.00    -0.166 F 
ATOM     21  F   UNL     1       4.427  -7.339  29.051  0.00  0.00    -0.166 F 
ENDBRANCH  14  18
ENDBRANCH   7  12
BRANCH   1  22
ATOM     22  C   UNL     1       9.094   1.072  21.604  0.00  0.00    +0.062 C 
BRANCH  22  23
ATOM     23  C   UNL     1      10.191   2.018  22.113  0.00  0.00    +0.108 C 
BRANCH  23  31
ATOM     24  C   UNL     1       7.403   4.873  24.389  0.00  0.00    +0.173 C 
ATOM     25  N   UNL     1       8.663   5.552  24.574  0.00  0.00    -0.262 N 
ATOM     26  C   UNL     1       9.897   5.171  24.112  0.00  0.00    +0.126 A 
ATOM     27  C   UNL     1      10.400   4.077  23.415  0.00  0.00    +0.148 A 
ATOM     28  N   UNL     1      11.720   4.102  23.122  0.00  0.00    -0.219 NA
ATOM     29  C   UNL     1      12.469   5.140  23.539  0.00  0.00    +0.224 A 
ATOM     30  N   UNL     1      12.071   6.211  24.233  0.00  0.00    -0.232 NA
ATOM     31  N   UNL     1       9.640   2.989  23.049  0.00  0.00    -0.327 N 
ATOM     32  H   UNL     1       8.643   3.024  23.166  0.00  0.00    +0.148 HD
ATOM     33  C   UNL     1      10.750   6.192  24.504  0.00  0.00    +0.114 A 
ATOM     34  C   UNL     1       9.942   7.107  25.204  0.00  0.00    +0.162 A 
ATOM     35  N   UNL     1       8.662   6.726  25.246  0.00  0.00    -0.177 NA
ENDBRANCH  23  31
ENDBRANCH  22  23
ENDBRANCH   1  22
TORSDOF 5
ENDMDL
MODEL 7
REMARK VINA RESULT:      -8.1      5.337     10.869
REMARK  Name = 
REMARK  6 active torsions:
REMARK  status: ('A' for Active; 'I' for Inactive)
REMARK    1  A    between atoms: C_1  and  N_2
REMARK    2  A    between atoms: N_8  and  C_9
REMARK    3  A    between atoms: C_9  and  C_10
REMARK    4  A    between atoms: C_10  and  C_11
REMARK    5  A    between atoms: N_18  and  C_19
REMARK    6  A    between atoms: C_23  and  C_25
REMARK                            x       y       z     vdW  Elec       q    Type
REMARK                         _______ _______ _______ _____ _____    ______ ____
ROOT
ATOM      1  C   UNL     1       8.947   0.216  22.696  0.00  0.00    +0.013 A 
ATOM      2  S   UNL     1      10.144  -1.020  22.570  0.00  0.00    -0.057 S 
ATOM      3  C   UNL     1       9.331  -1.900  23.774  0.00  0.00    +0.166 A 
ATOM      4  N   UNL     1       9.870  -3.113  24.079  0.00  0.00    -0.248 N 
ATOM      5  H   UNL     1      10.729  -3.388  23.631  0.00  0.00    +0.158 HD
ATOM      6  C   UNL     1       9.285  -4.057  24.876  0.00  0.00    +0.310 C 
ATOM      7  N   UNL     1       8.049  -3.755  25.388  0.00  0.00    -0.269 N 
ATOM      8  H   UNL     1       7.770  -2.780  25.297  0.00  0.00    +0.156 HD
ATOM      9  O   UNL     1       9.895  -5.112  25.032  0.00  0.00    -0.252 OA
ATOM     10  N   UNL     1       8.263  -1.353  24.295  0.00  0.00    -0.233 NA
ATOM     11  C   UNL     1       8.036  -0.146  23.673  0.00  0.00    +0.124 A 
ENDROOT
BRANCH   7  12
ATOM     12  C   UNL     1       7.126  -4.627  25.998  0.00  0.00    +0.035 A 
ATOM     13  C   UNL     1       6.163  -5.239  25.190  0.00  0.00    +0.035 A 
ATOM     14  C   UNL     1       5.242  -6.156  25.732  0.00  0.00    +0.057 A 
ATOM     15  C   UNL     1       5.292  -6.437  27.104  0.00  0.00    +0.012 A 
ATOM     16  C   UNL     1       6.252  -5.834  27.910  0.00  0.00    +0.002 A 
ATOM     17  C   UNL     1       7.166  -4.936  27.359  0.00  0.00    +0.023 A 
BRANCH  14  18
ATOM     18  C   UNL     1       4.225  -6.831  24.847  0.00  0.00    +0.417 C 
ATOM     19  F   UNL     1       4.754  -7.225  23.655  0.00  0.00    -0.166 F 
ATOM     20  F   UNL     1       3.176  -6.020  24.539  0.00  0.00    -0.166 F 
ATOM     21  F   UNL     1       3.680  -7.953  25.398  0.00  0.00    -0.166 F 
ENDBRANCH  14  18
ENDBRANCH   7  12
BRANCH   1  22
ATOM     22  C   UNL     1       9.044   1.440  21.829  0.00  0.00    +0.062 C 
BRANCH  22  23
ATOM     23  C   UNL     1       8.277   2.658  22.363  0.00  0.00    +0.108 C 
BRANCH  23  31
ATOM     24  C   UNL     1      12.044   5.123  23.281  0.00  0.00    +0.173 C 
ATOM     25  N   UNL     1      11.110   5.744  24.189  0.00  0.00    -0.262 N 
ATOM     26  C   UNL     1       9.787   5.433  24.375  0.00  0.00    +0.126 A 
ATOM     27  C   UNL     1       8.887   4.543  23.796  0.00  0.00    +0.148 A 
ATOM     28  N   UNL     1       7.636   4.530  24.308  0.00  0.00    -0.219 NA
ATOM     29  C   UNL     1       7.321   5.380  25.303  0.00  0.00    +0.224 A 
ATOM     30  N   UNL     1       8.115   6.279  25.894  0.00  0.00    -0.232 NA
ATOM     31  N   UNL     1       9.199   3.723  22.735  0.00  0.00    -0.327 N 
ATOM     32  H   UNL     1      10.154   3.653  22.432  0.00  0.00    +0.148 HD
ATOM     33  C   UNL     1       9.367   6.274  25.395  0.00  0.00    +0.114 A 
ATOM     34  C   UNL     1      10.492   7.053  25.724  0.00  0.00    +0.162 A 
ATOM     35  N   UNL     1      11.564   6.730  24.995  0.00  0.00    -0.177 NA
ENDBRANCH  23  31
ENDBRANCH  22  23
ENDBRANCH   1  22
TORSDOF 5
ENDMDL
MODEL 8
REMARK VINA RESULT:      -8.1      1.859      3.228
REMARK  Name = 
REMARK  6 active torsions:
REMARK  status: ('A' for Active; 'I' for Inactive)
REMARK    1  A    between atoms: C_1  and  N_2
REMARK    2  A    between atoms: N_8  and  C_9
REMARK    3  A    between atoms: C_9  and  C_10
REMARK    4  A    between atoms: C_10  and  C_11
REMARK    5  A    between atoms: N_18  and  C_19
REMARK    6  A    between atoms: C_23  and  C_25
REMARK                            x       y       z     vdW  Elec       q    Type
REMARK                         _______ _______ _______ _____ _____    ______ ____
ROOT
ATOM      1  C   UNL     1       6.962  -2.064  22.562  0.00  0.00    +0.013 A 
ATOM      2  S   UNL     1       6.265  -1.596  24.068  0.00  0.00    -0.057 S 
ATOM      3  C   UNL     1       7.267  -0.224  24.080  0.00  0.00    +0.166 A 
ATOM      4  N   UNL     1       7.094   0.620  25.134  0.00  0.00    -0.248 N 
ATOM      5  H   UNL     1       6.443   0.362  25.859  0.00  0.00    +0.158 HD
ATOM      6  C   UNL     1       7.654   1.861  25.251  0.00  0.00    +0.310 C 
ATOM      7  N   UNL     1       8.437   2.287  24.208  0.00  0.00    -0.269 N 
ATOM      8  H   UNL     1       8.695   1.565  23.538  0.00  0.00    +0.156 HD
ATOM      9  O   UNL     1       7.377   2.508  26.259  0.00  0.00    -0.252 OA
ATOM     10  N   UNL     1       8.102  -0.086  23.083  0.00  0.00    -0.233 NA
ATOM     11  C   UNL     1       7.923  -1.134  22.208  0.00  0.00    +0.124 A 
ENDROOT
BRANCH   7  12
ATOM     12  C   UNL     1       8.902   3.591  23.949  0.00  0.00    +0.035 A 
ATOM     13  C   UNL     1      10.281   3.787  23.825  0.00  0.00    +0.035 A 
ATOM     14  C   UNL     1      10.805   5.058  23.521  0.00  0.00    +0.057 A 
ATOM     15  C   UNL     1       9.923   6.135  23.360  0.00  0.00    +0.012 A 
ATOM     16  C   UNL     1       8.551   5.943  23.480  0.00  0.00    +0.002 A 
ATOM     17  C   UNL     1       8.043   4.676  23.769  0.00  0.00    +0.023 A 
BRANCH  14  18
ATOM     18  C   UNL     1      12.292   5.253  23.360  0.00  0.00    +0.417 C 
ATOM     19  F   UNL     1      12.630   5.671  22.108  0.00  0.00    -0.166 F 
ATOM     20  F   UNL     1      12.998   4.108  23.574  0.00  0.00    -0.166 F 
ATOM     21  F   UNL     1      12.817   6.179  24.213  0.00  0.00    -0.166 F 
ENDBRANCH  14  18
ENDBRANCH   7  12
BRANCH   1  22
ATOM     22  C   UNL     1       6.502  -3.327  21.887  0.00  0.00    +0.062 C 
BRANCH  22  23
ATOM     23  C   UNL     1       7.195  -4.602  22.389  0.00  0.00    +0.108 C 
BRANCH  23  31
ATOM     24  C   UNL     1       8.684  -4.634  26.735  0.00  0.00    +0.173 C 
ATOM     25  N   UNL     1       7.426  -5.323  26.896  0.00  0.00    -0.262 N 
ATOM     26  C   UNL     1       6.504  -5.622  25.926  0.00  0.00    +0.126 A 
ATOM     27  C   UNL     1       6.379  -5.366  24.563  0.00  0.00    +0.148 A 
ATOM     28  N   UNL     1       5.290  -5.881  23.949  0.00  0.00    -0.219 NA
ATOM     29  C   UNL     1       4.387  -6.569  24.672  0.00  0.00    +0.224 A 
ATOM     30  N   UNL     1       4.419  -6.835  25.982  0.00  0.00    -0.232 NA
ATOM     31  N   UNL     1       7.274  -4.606  23.843  0.00  0.00    -0.327 N 
ATOM     32  H   UNL     1       8.135  -4.322  24.274  0.00  0.00    +0.148 HD
ATOM     33  C   UNL     1       5.516  -6.338  26.587  0.00  0.00    +0.114 A 
ATOM     34  C   UNL     1       5.928  -6.386  27.932  0.00  0.00    +0.162 A 
ATOM     35  N   UNL     1       7.099  -5.773  28.128  0.00  0.00    -0.177 NA
ENDBRANCH  23  31
ENDBRANCH  22  23
ENDBRANCH   1  22
TORSDOF 5
ENDMDL
MODEL 9
REMARK VINA RESULT:      -8.0      5.181     10.670
REMARK  Name = 
REMARK  6 active torsions:
REMARK  status: ('A' for Active; 'I' for Inactive)
REMARK    1  A    between atoms: C_1  and  N_2
REMARK    2  A    between atoms: N_8  and  C_9
REMARK    3  A    between atoms: C_9  and  C_10
REMARK    4  A    between atoms: C_10  and  C_11
REMARK    5  A    between atoms: N_18  and  C_19
REMARK    6  A    between atoms: C_23  and  C_25
REMARK                            x       y       z     vdW  Elec       q    Type
REMARK                         _______ _______ _______ _____ _____    ______ ____
ROOT
ATOM      1  C   UNL     1       8.986   0.184  22.622  0.00  0.00    +0.013 A 
ATOM      2  S   UNL     1      10.255  -0.982  22.689  0.00  0.00    -0.057 S 
ATOM      3  C   UNL     1       9.303  -1.926  23.731  0.00  0.00    +0.166 A 
ATOM      4  N   UNL     1       9.850  -3.114  24.112  0.00  0.00    -0.248 N 
ATOM      5  H   UNL     1      10.787  -3.333  23.813  0.00  0.00    +0.158 HD
ATOM      6  C   UNL     1       9.194  -4.103  24.789  0.00  0.00    +0.310 C 
ATOM      7  N   UNL     1       7.875  -3.878  25.089  0.00  0.00    -0.269 N 
ATOM      8  H   UNL     1       7.560  -2.918  24.961  0.00  0.00    +0.156 HD
ATOM      9  O   UNL     1       9.828  -5.126  25.037  0.00  0.00    -0.252 OA
ATOM     10  N   UNL     1       8.133  -1.448  24.068  0.00  0.00    -0.233 NA
ATOM     11  C   UNL     1       7.946  -0.244  23.428  0.00  0.00    +0.124 A 
ENDROOT
BRANCH   7  12
ATOM     12  C   UNL     1       6.914  -4.810  25.527  0.00  0.00    +0.035 A 
ATOM     13  C   UNL     1       6.838  -5.086  26.895  0.00  0.00    +0.035 A 
ATOM     14  C   UNL     1       5.868  -5.974  27.400  0.00  0.00    +0.057 A 
ATOM     15  C   UNL     1       4.985  -6.594  26.506  0.00  0.00    +0.012 A 
ATOM     16  C   UNL     1       5.055  -6.319  25.145  0.00  0.00    +0.002 A 
ATOM     17  C   UNL     1       6.013  -5.429  24.658  0.00  0.00    +0.023 A 
BRANCH  14  18
ATOM     18  C   UNL     1       5.776  -6.243  28.881  0.00  0.00    +0.417 C 
ATOM     19  F   UNL     1       4.668  -6.963  29.211  0.00  0.00    -0.166 F 
ATOM     20  F   UNL     1       5.711  -5.100  29.619  0.00  0.00    -0.166 F 
ATOM     21  F   UNL     1       6.835  -6.946  29.375  0.00  0.00    -0.166 F 
ENDBRANCH  14  18
ENDBRANCH   7  12
BRANCH   1  22
ATOM     22  C   UNL     1       9.158   1.428  21.794  0.00  0.00    +0.062 C 
BRANCH  22  23
ATOM     23  C   UNL     1       8.171   2.555  22.132  0.00  0.00    +0.108 C 
BRANCH  23  31
ATOM     24  C   UNL     1      11.405   5.578  23.360  0.00  0.00    +0.173 C 
ATOM     25  N   UNL     1      10.420   5.835  24.383  0.00  0.00    -0.262 N 
ATOM     26  C   UNL     1       9.201   5.226  24.545  0.00  0.00    +0.126 A 
ATOM     27  C   UNL     1       8.469   4.271  23.847  0.00  0.00    +0.148 A 
ATOM     28  N   UNL     1       7.279   3.914  24.380  0.00  0.00    -0.219 NA
ATOM     29  C   UNL     1       6.856   4.508  25.512  0.00  0.00    +0.224 A 
ATOM     30  N   UNL     1       7.484   5.447  26.226  0.00  0.00    -0.232 NA
ATOM     31  N   UNL     1       8.878   3.716  22.655  0.00  0.00    -0.327 N 
ATOM     32  H   UNL     1       9.807   3.898  22.321  0.00  0.00    +0.148 HD
ATOM     33  C   UNL     1       8.680   5.786  25.703  0.00  0.00    +0.114 A 
ATOM     34  C   UNL     1       9.640   6.721  26.132  0.00  0.00    +0.162 A 
ATOM     35  N   UNL     1      10.711   6.752  25.333  0.00  0.00    -0.177 NA
ENDBRANCH  23  31
ENDBRANCH  22  23
ENDBRANCH   1  22
TORSDOF 5
ENDMDL
