MODEL 1
REMARK VINA RESULT:      -6.8      0.000      0.000
REMARK  Name = 
REMARK  6 active torsions:
REMARK  status: ('A' for Active; 'I' for Inactive)
REMARK    1  A    between atoms: C_15  and  N_20
REMARK    2  A    between atoms: N_18  and  C_19
REMARK    3  A    between atoms: N_23  and  C_24
REMARK    4  A    between atoms: N_23  and  C_26
REMARK    5  A    between atoms: C_24  and  C_25
REMARK    6  A    between atoms: C_26  and  C_27
REMARK                            x       y       z     vdW  Elec       q    Type
REMARK                         _______ _______ _______ _____ _____    ______ ____
ROOT
ATOM      1  C   UNL     1       7.820  -4.308  25.531  0.00  0.00    +0.091 C 
ATOM      2  N   UNL     1       9.107  -4.371  24.854  0.00  0.00    -0.296 NA
ATOM      3  C   UNL     1      10.154  -5.245  25.270  0.00  0.00    +0.105 C 
ATOM      4  C   UNL     1       9.371  -3.106  24.185  0.00  0.00    +0.111 C 
ATOM      5  C   UNL     1       8.007  -2.509  23.643  0.00  0.00    +0.112 C 
ATOM      6  C   UNL     1       6.956  -3.615  23.335  0.00  0.00    +0.002 C 
ATOM      7  C   UNL     1       6.796  -4.519  24.365  0.00  0.00    -0.024 C 
ATOM      8  C   UNL     1       5.702  -5.483  24.688  0.00  0.00    -0.011 A 
ATOM      9  C   UNL     1       5.364  -5.437  26.055  0.00  0.00    +0.010 A 
ATOM     10  C   UNL     1       4.229  -6.010  26.594  0.00  0.00    +0.047 A 
ATOM     11  C   UNL     1       3.468  -6.907  25.858  0.00  0.00    +0.026 A 
ATOM     12  C   UNL     1       3.928  -7.165  24.552  0.00  0.00    +0.003 A 
ATOM     13  N   UNL     1       4.128  -5.503  27.876  0.00  0.00    -0.360 N 
ATOM     14  H   UNL     1       3.333  -5.621  28.486  0.00  0.00    +0.165 HD
ATOM     15  C   UNL     1       5.318  -4.904  28.237  0.00  0.00    +0.087 A 
ATOM     16  C   UNL     1       6.153  -5.036  27.158  0.00  0.00    -0.020 A 
ATOM     17  C   UNL     1       4.985  -6.429  23.952  0.00  0.00    +0.009 A 
ATOM     18  C   UNL     1       7.611  -4.891  26.941  0.00  0.00    +0.061 C 
ENDROOT
BRANCH   5  19
ATOM     19  N   UNL     1       8.192  -1.332  22.799  0.00  0.00    -0.292 N 
ATOM     20  H   UNL     1       9.122  -1.174  22.447  0.00  0.00    +0.151 HD
ATOM     21  C   UNL     1       7.500  -0.206  23.252  0.00  0.00    +0.303 C 
ATOM     22  N   UNL     1       7.664   0.990  22.579  0.00  0.00    -0.286 N 
ATOM     23  O   UNL     1       6.734  -0.262  24.217  0.00  0.00    -0.253 OA
BRANCH  22  24
ATOM     24  C   UNL     1       6.961   2.156  23.131  0.00  0.00    +0.106 C 
ATOM     25  C   UNL     1       6.558   3.187  22.078  0.00  0.00    +0.024 C 
ENDBRANCH  22  24
BRANCH  22  26
ATOM     26  C   UNL     1       8.661   1.224  21.523  0.00  0.00    +0.106 C 
ATOM     27  C   UNL     1      10.007   1.724  22.034  0.00  0.00    +0.024 C 
ENDBRANCH  22  26
ENDBRANCH   5  19
TORSDOF 3
ENDMDL
MODEL 2
REMARK VINA RESULT:      -6.4      2.512      7.622
REMARK  Name = 
REMARK  6 active torsions:
REMARK  status: ('A' for Active; 'I' for Inactive)
REMARK    1  A    between atoms: C_15  and  N_20
REMARK    2  A    between atoms: N_18  and  C_19
REMARK    3  A    between atoms: N_23  and  C_24
REMARK    4  A    between atoms: N_23  and  C_26
REMARK    5  A    between atoms: C_24  and  C_25
REMARK    6  A    between atoms: C_26  and  C_27
REMARK                            x       y       z     vdW  Elec       q    Type
REMARK                         _______ _______ _______ _____ _____    ______ ____
ROOT
ATOM      1  C   UNL     1       8.294  -0.376  24.952  0.00  0.00    +0.091 C 
ATOM      2  N   UNL     1       7.945  -0.956  26.240  0.00  0.00    -0.296 NA
ATOM      3  C   UNL     1       8.526  -0.516  27.466  0.00  0.00    +0.105 C 
ATOM      4  C   UNL     1       7.470  -2.319  26.051  0.00  0.00    +0.111 C 
ATOM      5  C   UNL     1       6.668  -2.406  24.688  0.00  0.00    +0.112 C 
ATOM      6  C   UNL     1       6.021  -1.046  24.293  0.00  0.00    +0.002 C 
ATOM      7  C   UNL     1       6.900   0.015  24.352  0.00  0.00    -0.024 C 
ATOM      8  C   UNL     1       6.866   1.377  23.742  0.00  0.00    -0.011 A 
ATOM      9  C   UNL     1       8.109   1.717  23.172  0.00  0.00    +0.010 A 
ATOM     10  C   UNL     1       8.307   2.784  22.318  0.00  0.00    +0.047 A 
ATOM     11  C   UNL     1       7.335   3.762  22.167  0.00  0.00    +0.026 A 
ATOM     12  C   UNL     1       6.161   3.575  22.924  0.00  0.00    +0.003 A 
ATOM     13  N   UNL     1       9.565   2.599  21.775  0.00  0.00    -0.360 N 
ATOM     14  H   UNL     1       9.952   3.134  21.012  0.00  0.00    +0.165 HD
ATOM     15  C   UNL     1      10.252   1.649  22.502  0.00  0.00    +0.087 A 
ATOM     16  C   UNL     1       9.400   1.239  23.494  0.00  0.00    -0.020 A 
ATOM     17  C   UNL     1       5.900   2.382  23.650  0.00  0.00    +0.009 A 
ATOM     18  C   UNL     1       9.555   0.486  24.761  0.00  0.00    +0.061 C 
ENDROOT
BRANCH   5  19
ATOM     19  N   UNL     1       5.997  -3.689  24.499  0.00  0.00    -0.292 N 
ATOM     20  H   UNL     1       5.772  -4.205  25.334  0.00  0.00    +0.151 HD
ATOM     21  C   UNL     1       6.503  -4.431  23.428  0.00  0.00    +0.303 C 
ATOM     22  N   UNL     1       6.002  -5.699  23.202  0.00  0.00    -0.286 N 
ATOM     23  O   UNL     1       7.363  -3.972  22.673  0.00  0.00    -0.253 OA
BRANCH  22  24
ATOM     24  C   UNL     1       6.609  -6.459  22.101  0.00  0.00    +0.106 C 
ATOM     25  C   UNL     1       6.098  -6.055  20.719  0.00  0.00    +0.024 C 
ENDBRANCH  22  24
BRANCH  22  26
ATOM     26  C   UNL     1       5.098  -6.414  24.117  0.00  0.00    +0.106 C 
ATOM     27  C   UNL     1       3.631  -6.371  23.705  0.00  0.00    +0.024 C 
ENDBRANCH  22  26
ENDBRANCH   5  19
TORSDOF 3
ENDMDL
MODEL 3
REMARK VINA RESULT:      -6.2      2.353      7.456
REMARK  Name = 
REMARK  6 active torsions:
REMARK  status: ('A' for Active; 'I' for Inactive)
REMARK    1  A    between atoms: C_15  and  N_20
REMARK    2  A    between atoms: N_18  and  C_19
REMARK    3  A    between atoms: N_23  and  C_24
REMARK    4  A    between atoms: N_23  and  C_26
REMARK    5  A    between atoms: C_24  and  C_25
REMARK    6  A    between atoms: C_26  and  C_27
REMARK                            x       y       z     vdW  Elec       q    Type
REMARK                         _______ _______ _______ _____ _____    ______ ____
ROOT
ATOM      1  C   UNL     1       8.066  -2.474  23.835  0.00  0.00    +0.091 C 
ATOM      2  N   UNL     1       8.178  -3.558  24.799  0.00  0.00    -0.296 NA
ATOM      3  C   UNL     1       9.413  -4.213  25.082  0.00  0.00    +0.105 C 
ATOM      4  C   UNL     1       6.894  -4.232  24.930  0.00  0.00    +0.111 C 
ATOM      5  C   UNL     1       5.731  -3.166  24.784  0.00  0.00    +0.112 C 
ATOM      6  C   UNL     1       6.174  -1.741  25.224  0.00  0.00    +0.002 C 
ATOM      7  C   UNL     1       7.366  -1.340  24.659  0.00  0.00    -0.024 C 
ATOM      8  C   UNL     1       7.985   0.007  24.480  0.00  0.00    -0.011 A 
ATOM      9  C   UNL     1       8.507   0.164  23.180  0.00  0.00    +0.010 A 
ATOM     10  C   UNL     1       8.897   1.374  22.640  0.00  0.00    +0.047 A 
ATOM     11  C   UNL     1       9.049   2.494  23.444  0.00  0.00    +0.026 A 
ATOM     12  C   UNL     1       8.767   2.304  24.811  0.00  0.00    +0.003 A 
ATOM     13  N   UNL     1       9.070   1.140  21.289  0.00  0.00    -0.360 N 
ATOM     14  H   UNL     1       9.223   1.854  20.591  0.00  0.00    +0.165 HD
ATOM     15  C   UNL     1       9.112  -0.218  21.050  0.00  0.00    +0.087 A 
ATOM     16  C   UNL     1       8.949  -0.823  22.269  0.00  0.00    -0.020 A 
ATOM     17  C   UNL     1       8.190   1.107  25.316  0.00  0.00    +0.009 A 
ATOM     18  C   UNL     1       9.165  -2.192  22.794  0.00  0.00    +0.061 C 
ENDROOT
BRANCH   5  19
ATOM     19  N   UNL     1       4.411  -3.715  25.083  0.00  0.00    -0.292 N 
ATOM     20  H   UNL     1       4.308  -4.181  25.970  0.00  0.00    +0.151 HD
ATOM     21  C   UNL     1       3.800  -4.328  23.985  0.00  0.00    +0.303 C 
ATOM     22  N   UNL     1       2.583  -4.956  24.167  0.00  0.00    -0.286 N 
ATOM     23  O   UNL     1       4.309  -4.300  22.863  0.00  0.00    -0.253 OA
BRANCH  22  24
ATOM     24  C   UNL     1       2.012  -5.635  22.996  0.00  0.00    +0.106 C 
ATOM     25  C   UNL     1       0.517  -5.384  22.807  0.00  0.00    +0.024 C 
ENDBRANCH  22  24
BRANCH  22  26
ATOM     26  C   UNL     1       1.954  -5.195  25.476  0.00  0.00    +0.106 C 
ATOM     27  C   UNL     1       2.259  -6.563  26.075  0.00  0.00    +0.024 C 
ENDBRANCH  22  26
ENDBRANCH   5  19
TORSDOF 3
ENDMDL
MODEL 4
REMARK VINA RESULT:      -6.1      1.215      1.675
REMARK  Name = 
REMARK  6 active torsions:
REMARK  status: ('A' for Active; 'I' for Inactive)
REMARK    1  A    between atoms: C_15  and  N_20
REMARK    2  A    between atoms: N_18  and  C_19
REMARK    3  A    between atoms: N_23  and  C_24
REMARK    4  A    between atoms: N_23  and  C_26
REMARK    5  A    between atoms: C_24  and  C_25
REMARK    6  A    between atoms: C_26  and  C_27
REMARK                            x       y       z     vdW  Elec       q    Type
REMARK                         _______ _______ _______ _____ _____    ______ ____
ROOT
ATOM      1  C   UNL     1       7.408  -4.498  26.172  0.00  0.00    +0.091 C 
ATOM      2  N   UNL     1       8.663  -4.138  25.529  0.00  0.00    -0.296 NA
ATOM      3  C   UNL     1       9.802  -4.997  25.528  0.00  0.00    +0.105 C 
ATOM      4  C   UNL     1       8.783  -2.689  25.466  0.00  0.00    +0.111 C 
ATOM      5  C   UNL     1       7.348  -2.058  25.236  0.00  0.00    +0.112 C 
ATOM      6  C   UNL     1       6.388  -3.027  24.487  0.00  0.00    +0.002 C 
ATOM      7  C   UNL     1       6.355  -4.294  25.030  0.00  0.00    -0.024 C 
ATOM      8  C   UNL     1       5.368  -5.408  24.912  0.00  0.00    -0.011 A 
ATOM      9  C   UNL     1       5.089  -5.982  26.169  0.00  0.00    +0.010 A 
ATOM     10  C   UNL     1       4.035  -6.841  26.414  0.00  0.00    +0.047 A 
ATOM     11  C   UNL     1       3.325  -7.410  25.367  0.00  0.00    +0.026 A 
ATOM     12  C   UNL     1       3.746  -7.040  24.074  0.00  0.00    +0.003 A 
ATOM     13  N   UNL     1       3.948  -6.940  27.790  0.00  0.00    -0.360 N 
ATOM     14  H   UNL     1       3.195  -7.386  28.292  0.00  0.00    +0.165 HD
ATOM     15  C   UNL     1       5.095  -6.437  28.369  0.00  0.00    +0.087 A 
ATOM     16  C   UNL     1       5.888  -6.012  27.335  0.00  0.00    -0.020 A 
ATOM     17  C   UNL     1       4.705  -6.016  23.844  0.00  0.00    +0.009 A 
ATOM     18  C   UNL     1       7.316  -5.644  27.196  0.00  0.00    +0.061 C 
ENDROOT
BRANCH   5  19
ATOM     19  N   UNL     1       7.389  -0.622  24.977  0.00  0.00    -0.292 N 
ATOM     20  H   UNL     1       6.596  -0.085  25.291  0.00  0.00    +0.151 HD
ATOM     21  C   UNL     1       7.897  -0.296  23.716  0.00  0.00    +0.303 C 
ATOM     22  N   UNL     1       7.908   1.029  23.326  0.00  0.00    -0.286 N 
ATOM     23  O   UNL     1       8.354  -1.158  22.961  0.00  0.00    -0.253 OA
BRANCH  22  24
ATOM     24  C   UNL     1       8.397   1.311  21.969  0.00  0.00    +0.106 C 
ATOM     25  C   UNL     1       9.872   1.707  21.917  0.00  0.00    +0.024 C 
ENDBRANCH  22  24
BRANCH  22  26
ATOM     26  C   UNL     1       7.253   2.121  24.062  0.00  0.00    +0.106 C 
ATOM     27  C   UNL     1       8.184   2.900  24.985  0.00  0.00    +0.024 C 
ENDBRANCH  22  26
ENDBRANCH   5  19
TORSDOF 3
ENDMDL
MODEL 5
REMARK VINA RESULT:      -6.1      2.598      3.740
REMARK  Name = 
REMARK  6 active torsions:
REMARK  status: ('A' for Active; 'I' for Inactive)
REMARK    1  A    between atoms: C_15  and  N_20
REMARK    2  A    between atoms: N_18  and  C_19
REMARK    3  A    between atoms: N_23  and  C_24
REMARK    4  A    between atoms: N_23  and  C_26
REMARK    5  A    between atoms: C_24  and  C_25
REMARK    6  A    between atoms: C_26  and  C_27
REMARK                            x       y       z     vdW  Elec       q    Type
REMARK                         _______ _______ _______ _____ _____    ______ ____
ROOT
ATOM      1  C   UNL     1       8.612  -2.022  24.242  0.00  0.00    +0.091 C 
ATOM      2  N   UNL     1       9.227  -1.125  23.275  0.00  0.00    -0.296 NA
ATOM      3  C   UNL     1      10.290  -1.530  22.416  0.00  0.00    +0.105 C 
ATOM      4  C   UNL     1       9.067   0.254  23.715  0.00  0.00    +0.111 C 
ATOM      5  C   UNL     1       7.668   0.407  24.444  0.00  0.00    +0.112 C 
ATOM      6  C   UNL     1       6.617  -0.619  23.932  0.00  0.00    +0.002 C 
ATOM      7  C   UNL     1       7.087  -1.915  23.903  0.00  0.00    -0.024 C 
ATOM      8  C   UNL     1       6.385  -3.233  23.852  0.00  0.00    -0.011 A 
ATOM      9  C   UNL     1       6.942  -4.146  24.769  0.00  0.00    +0.010 A 
ATOM     10  C   UNL     1       6.348  -5.338  25.136  0.00  0.00    +0.047 A 
ATOM     11  C   UNL     1       5.274  -5.847  24.419  0.00  0.00    +0.026 A 
ATOM     12  C   UNL     1       4.846  -5.063  23.329  0.00  0.00    +0.003 A 
ATOM     13  N   UNL     1       7.055  -5.783  26.237  0.00  0.00    -0.360 N 
ATOM     14  H   UNL     1       6.785  -6.560  26.824  0.00  0.00    +0.165 HD
ATOM     15  C   UNL     1       8.236  -5.080  26.351  0.00  0.00    +0.087 A 
ATOM     16  C   UNL     1       8.246  -4.184  25.313  0.00  0.00    -0.020 A 
ATOM     17  C   UNL     1       5.345  -3.756  23.081  0.00  0.00    +0.009 A 
ATOM     18  C   UNL     1       9.281  -3.341  24.671  0.00  0.00    +0.061 C 
ENDROOT
BRANCH   5  19
ATOM     19  N   UNL     1       7.337   1.794  24.759  0.00  0.00    -0.292 N 
ATOM     20  H   UNL     1       7.808   2.503  24.221  0.00  0.00    +0.151 HD
ATOM     21  C   UNL     1       7.208   2.040  26.129  0.00  0.00    +0.303 C 
ATOM     22  N   UNL     1       6.977   3.334  26.554  0.00  0.00    -0.286 N 
ATOM     23  O   UNL     1       7.274   1.129  26.958  0.00  0.00    -0.253 OA
BRANCH  22  24
ATOM     24  C   UNL     1       6.909   3.547  28.006  0.00  0.00    +0.106 C 
ATOM     25  C   UNL     1       5.520   3.943  28.506  0.00  0.00    +0.024 C 
ENDBRANCH  22  24
BRANCH  22  26
ATOM     26  C   UNL     1       7.037   4.520  25.686  0.00  0.00    +0.106 C 
ATOM     27  C   UNL     1       8.383   5.235  25.697  0.00  0.00    +0.024 C 
ENDBRANCH  22  26
ENDBRANCH   5  19
TORSDOF 3
ENDMDL
MODEL 6
REMARK VINA RESULT:      -6.0      3.422      5.048
REMARK  Name = 
REMARK  6 active torsions:
REMARK  status: ('A' for Active; 'I' for Inactive)
REMARK    1  A    between atoms: C_15  and  N_20
REMARK    2  A    between atoms: N_18  and  C_19
REMARK    3  A    between atoms: N_23  and  C_24
REMARK    4  A    between atoms: N_23  and  C_26
REMARK    5  A    between atoms: C_24  and  C_25
REMARK    6  A    between atoms: C_26  and  C_27
REMARK                            x       y       z     vdW  Elec       q    Type
REMARK                         _______ _______ _______ _____ _____    ______ ____
ROOT
ATOM      1  C   UNL     1       7.420  -0.321  24.552  0.00  0.00    +0.091 C 
ATOM      2  N   UNL     1       7.559   0.629  25.645  0.00  0.00    -0.296 NA
ATOM      3  C   UNL     1       6.600   0.741  26.695  0.00  0.00    +0.105 C 
ATOM      4  C   UNL     1       8.373   1.756  25.214  0.00  0.00    +0.111 C 
ATOM      5  C   UNL     1       9.491   1.239  24.218  0.00  0.00    +0.112 C 
ATOM      6  C   UNL     1       9.877  -0.246  24.479  0.00  0.00    +0.002 C 
ATOM      7  C   UNL     1       8.788  -1.086  24.573  0.00  0.00    -0.024 C 
ATOM      8  C   UNL     1       8.653  -2.568  24.448  0.00  0.00    -0.011 A 
ATOM      9  C   UNL     1       7.550  -2.917  23.643  0.00  0.00    +0.010 A 
ATOM     10  C   UNL     1       7.329  -4.182  23.134  0.00  0.00    +0.047 A 
ATOM     11  C   UNL     1       8.049  -5.272  23.603  0.00  0.00    +0.026 A 
ATOM     12  C   UNL     1       9.002  -4.987  24.600  0.00  0.00    +0.003 A 
ATOM     13  N   UNL     1       6.330  -4.035  22.191  0.00  0.00    -0.360 N 
ATOM     14  H   UNL     1       6.034  -4.751  21.543  0.00  0.00    +0.165 HD
ATOM     15  C   UNL     1       5.724  -2.804  22.339  0.00  0.00    +0.087 A 
ATOM     16  C   UNL     1       6.370  -2.185  23.377  0.00  0.00    -0.020 A 
ATOM     17  C   UNL     1       9.346  -3.659  24.976  0.00  0.00    +0.009 A 
ATOM     18  C   UNL     1       6.082  -1.015  24.238  0.00  0.00    +0.061 C 
ENDROOT
BRANCH   5  19
ATOM     19  N   UNL     1      10.471   2.265  23.874  0.00  0.00    -0.292 N 
ATOM     20  H   UNL     1      11.362   2.211  24.342  0.00  0.00    +0.151 HD
ATOM     21  C   UNL     1       9.918   3.542  23.738  0.00  0.00    +0.303 C 
ATOM     22  N   UNL     1      10.761   4.609  23.495  0.00  0.00    -0.286 N 
ATOM     23  O   UNL     1       8.702   3.730  23.808  0.00  0.00    -0.253 OA
BRANCH  22  24
ATOM     24  C   UNL     1      10.137   5.936  23.420  0.00  0.00    +0.106 C 
ATOM     25  C   UNL     1      10.196   6.720  24.731  0.00  0.00    +0.024 C 
ENDBRANCH  22  24
BRANCH  22  26
ATOM     26  C   UNL     1      12.230   4.541  23.548  0.00  0.00    +0.106 C 
ATOM     27  C   UNL     1      12.933   5.398  22.502  0.00  0.00    +0.024 C 
ENDBRANCH  22  26
ENDBRANCH   5  19
TORSDOF 3
ENDMDL
MODEL 7
REMARK VINA RESULT:      -6.0      2.384      3.730
REMARK  Name = 
REMARK  6 active torsions:
REMARK  status: ('A' for Active; 'I' for Inactive)
REMARK    1  A    between atoms: C_15  and  N_20
REMARK    2  A    between atoms: N_18  and  C_19
REMARK    3  A    between atoms: N_23  and  C_24
REMARK    4  A    between atoms: N_23  and  C_26
REMARK    5  A    between atoms: C_24  and  C_25
REMARK    6  A    between atoms: C_26  and  C_27
REMARK                            x       y       z     vdW  Elec       q    Type
REMARK                         _______ _______ _______ _____ _____    ______ ____
ROOT
ATOM      1  C   UNL     1       9.024  -1.939  24.258  0.00  0.00    +0.091 C 
ATOM      2  N   UNL     1       9.677  -1.048  23.310  0.00  0.00    -0.296 NA
ATOM      3  C   UNL     1      10.566  -1.517  22.299  0.00  0.00    +0.105 C 
ATOM      4  C   UNL     1       9.790   0.284  23.887  0.00  0.00    +0.111 C 
ATOM      5  C   UNL     1       8.517   0.571  24.786  0.00  0.00    +0.112 C 
ATOM      6  C   UNL     1       7.265  -0.221  24.310  0.00  0.00    +0.002 C 
ATOM      7  C   UNL     1       7.510  -1.564  24.110  0.00  0.00    -0.024 C 
ATOM      8  C   UNL     1       6.601  -2.745  24.024  0.00  0.00    -0.011 A 
ATOM      9  C   UNL     1       7.090  -3.826  24.784  0.00  0.00    +0.010 A 
ATOM     10  C   UNL     1       6.349  -4.945  25.110  0.00  0.00    +0.047 A 
ATOM     11  C   UNL     1       5.139  -5.203  24.481  0.00  0.00    +0.026 A 
ATOM     12  C   UNL     1       4.737  -4.252  23.523  0.00  0.00    +0.003 A 
ATOM     13  N   UNL     1       7.081  -5.609  26.077  0.00  0.00    -0.360 N 
ATOM     14  H   UNL     1       6.749  -6.393  26.619  0.00  0.00    +0.165 HD
ATOM     15  C   UNL     1       8.367  -5.111  26.114  0.00  0.00    +0.087 A 
ATOM     16  C   UNL     1       8.419  -4.121  25.167  0.00  0.00    -0.020 A 
ATOM     17  C   UNL     1       5.416  -3.017  23.337  0.00  0.00    +0.009 A 
ATOM     18  C   UNL     1       9.507  -3.383  24.485  0.00  0.00    +0.061 C 
ENDROOT
BRANCH   5  19
ATOM     19  N   UNL     1       8.451   1.950  25.261  0.00  0.00    -0.292 N 
ATOM     20  H   UNL     1       7.896   2.116  26.085  0.00  0.00    +0.151 HD
ATOM     21  C   UNL     1       8.331   2.889  24.233  0.00  0.00    +0.303 C 
ATOM     22  N   UNL     1       8.177   4.222  24.565  0.00  0.00    -0.286 N 
ATOM     23  O   UNL     1       8.382   2.559  23.046  0.00  0.00    -0.253 OA
BRANCH  22  24
ATOM     24  C   UNL     1       7.996   5.161  23.449  0.00  0.00    +0.106 C 
ATOM     25  C   UNL     1       9.077   6.238  23.369  0.00  0.00    +0.024 C 
ENDBRANCH  22  24
BRANCH  22  26
ATOM     26  C   UNL     1       7.943   4.721  25.929  0.00  0.00    +0.106 C 
ATOM     27  C   UNL     1       6.610   5.437  26.112  0.00  0.00    +0.024 C 
ENDBRANCH  22  26
ENDBRANCH   5  19
TORSDOF 3
ENDMDL
MODEL 8
REMARK VINA RESULT:      -5.9      2.575      8.001
REMARK  Name = 
REMARK  6 active torsions:
REMARK  status: ('A' for Active; 'I' for Inactive)
REMARK    1  A    between atoms: C_15  and  N_20
REMARK    2  A    between atoms: N_18  and  C_19
REMARK    3  A    between atoms: N_23  and  C_24
REMARK    4  A    between atoms: N_23  and  C_26
REMARK    5  A    between atoms: C_24  and  C_25
REMARK    6  A    between atoms: C_26  and  C_27
REMARK                            x       y       z     vdW  Elec       q    Type
REMARK                         _______ _______ _______ _____ _____    ______ ____
ROOT
ATOM      1  C   UNL     1       9.027   1.248  24.004  0.00  0.00    +0.091 C 
ATOM      2  N   UNL     1      10.077   0.366  24.488  0.00  0.00    -0.296 NA
ATOM      3  C   UNL     1      11.455   0.734  24.485  0.00  0.00    +0.105 C 
ATOM      4  C   UNL     1       9.643  -1.019  24.378  0.00  0.00    +0.111 C 
ATOM      5  C   UNL     1       8.087  -1.100  24.662  0.00  0.00    +0.112 C 
ATOM      6  C   UNL     1       7.594   0.042  25.597  0.00  0.00    +0.002 C 
ATOM      7  C   UNL     1       8.021   1.293  25.204  0.00  0.00    -0.024 C 
ATOM      8  C   UNL     1       7.533   2.665  25.533  0.00  0.00    -0.011 A 
ATOM      9  C   UNL     1       7.442   3.468  24.378  0.00  0.00    +0.010 A 
ATOM     10  C   UNL     1       6.781   4.680  24.326  0.00  0.00    +0.047 A 
ATOM     11  C   UNL     1       6.381   5.322  25.488  0.00  0.00    +0.026 A 
ATOM     12  C   UNL     1       6.683   4.649  26.689  0.00  0.00    +0.003 A 
ATOM     13  N   UNL     1       6.683   4.993  22.982  0.00  0.00    -0.360 N 
ATOM     14  H   UNL     1       6.135   5.750  22.602  0.00  0.00    +0.165 HD
ATOM     15  C   UNL     1       7.531   4.186  22.252  0.00  0.00    +0.087 A 
ATOM     16  C   UNL     1       8.145   3.361  23.157  0.00  0.00    -0.020 A 
ATOM     17  C   UNL     1       7.192   3.323  26.717  0.00  0.00    +0.009 A 
ATOM     18  C   UNL     1       9.333   2.476  23.126  0.00  0.00    +0.061 C 
ENDROOT
BRANCH   5  19
ATOM     19  N   UNL     1       7.593  -2.471  24.754  0.00  0.00    -0.292 N 
ATOM     20  H   UNL     1       8.186  -3.132  25.228  0.00  0.00    +0.151 HD
ATOM     21  C   UNL     1       6.974  -2.922  23.584  0.00  0.00    +0.303 C 
ATOM     22  N   UNL     1       6.539  -4.232  23.525  0.00  0.00    -0.286 N 
ATOM     23  O   UNL     1       6.789  -2.174  22.622  0.00  0.00    -0.253 OA
BRANCH  22  24
ATOM     24  C   UNL     1       5.950  -4.672  22.253  0.00  0.00    +0.106 C 
ATOM     25  C   UNL     1       6.816  -5.669  21.485  0.00  0.00    +0.024 C 
ENDBRANCH  22  24
BRANCH  22  26
ATOM     26  C   UNL     1       6.841  -5.258  24.534  0.00  0.00    +0.106 C 
ATOM     27  C   UNL     1       5.646  -5.661  25.392  0.00  0.00    +0.024 C 
ENDBRANCH  22  26
ENDBRANCH   5  19
TORSDOF 3
ENDMDL
MODEL 9
REMARK VINA RESULT:      -5.9      1.547      2.316
REMARK  Name = 
REMARK  6 active torsions:
REMARK  status: ('A' for Active; 'I' for Inactive)
REMARK    1  A    between atoms: C_15  and  N_20
REMARK    2  A    between atoms: N_18  and  C_19
REMARK    3  A    between atoms: N_23  and  C_24
REMARK    4  A    between atoms: N_23  and  C_26
REMARK    5  A    between atoms: C_24  and  C_25
REMARK    6  A    between atoms: C_26  and  C_27
REMARK                            x       y       z     vdW  Elec       q    Type
REMARK                         _______ _______ _______ _____ _____    ______ ____
ROOT
ATOM      1  C   UNL     1       7.847  -2.693  24.690  0.00  0.00    +0.091 C 
ATOM      2  N   UNL     1       8.840  -2.103  23.805  0.00  0.00    -0.296 NA
ATOM      3  C   UNL     1      10.184  -2.574  23.732  0.00  0.00    +0.105 C 
ATOM      4  C   UNL     1       8.487  -0.718  23.526  0.00  0.00    +0.111 C 
ATOM      5  C   UNL     1       6.910  -0.589  23.453  0.00  0.00    +0.112 C 
ATOM      6  C   UNL     1       6.225  -1.915  23.012  0.00  0.00    +0.002 C 
ATOM      7  C   UNL     1       6.659  -3.015  23.721  0.00  0.00    -0.024 C 
ATOM      8  C   UNL     1       6.068  -4.372  23.921  0.00  0.00    -0.011 A 
ATOM      9  C   UNL     1       6.132  -4.766  25.273  0.00  0.00    +0.010 A 
ATOM     10  C   UNL     1       5.440  -5.837  25.803  0.00  0.00    +0.047 A 
ATOM     11  C   UNL     1       4.830  -6.769  24.976  0.00  0.00    +0.026 A 
ATOM     12  C   UNL     1       4.960  -6.532  23.593  0.00  0.00    +0.003 A 
ATOM     13  N   UNL     1       5.548  -5.708  27.175  0.00  0.00    -0.360 N 
ATOM     14  H   UNL     1       5.038  -6.257  27.852  0.00  0.00    +0.165 HD
ATOM     15  C   UNL     1       6.535  -4.795  27.482  0.00  0.00    +0.087 A 
ATOM     16  C   UNL     1       7.028  -4.350  26.284  0.00  0.00    -0.020 A 
ATOM     17  C   UNL     1       5.513  -5.331  23.071  0.00  0.00    +0.009 A 
ATOM     18  C   UNL     1       8.241  -3.610  25.861  0.00  0.00    +0.061 C 
ENDROOT
BRANCH   5  19
ATOM     19  N   UNL     1       6.464   0.725  22.997  0.00  0.00    -0.292 N 
ATOM     20  H   UNL     1       7.039   1.180  22.307  0.00  0.00    +0.151 HD
ATOM     21  C   UNL     1       5.970   1.534  24.024  0.00  0.00    +0.303 C 
ATOM     22  N   UNL     1       5.594   2.830  23.727  0.00  0.00    -0.286 N 
ATOM     23  O   UNL     1       5.841   1.111  25.175  0.00  0.00    -0.253 OA
BRANCH  22  24
ATOM     24  C   UNL     1       5.137   3.657  24.852  0.00  0.00    +0.106 C 
ATOM     25  C   UNL     1       6.245   4.497  25.488  0.00  0.00    +0.024 C 
ENDBRANCH  22  24
BRANCH  22  26
ATOM     26  C   UNL     1       5.845   3.498  22.440  0.00  0.00    +0.106 C 
ATOM     27  C   UNL     1       7.289   3.944  22.239  0.00  0.00    +0.024 C 
ENDBRANCH  22  26
ENDBRANCH   5  19
TORSDOF 3
ENDMDL
