MODEL 1
REMARK VINA RESULT:      -7.2      0.000      0.000
REMARK  Name = 
REMARK  7 active torsions:
REMARK  status: ('A' for Active; 'I' for Inactive)
REMARK    1  A    between atoms: C_1  and  O_2
REMARK    2  A    between atoms: O_2  and  C_3
REMARK    3  A    between atoms: C_4  and  N_5
REMARK    4  A    between atoms: N_5  and  C_6
REMARK    5  A    between atoms: C_22  and  N_23
REMARK    6  A    between atoms: N_23  and  S_24
REMARK    7  A    between atoms: S_24  and  C_25
REMARK                            x       y       z     vdW  Elec       q    Type
REMARK                         _______ _______ _______ _____ _____    ______ ____
ROOT
ATOM      1  N   UNL     1       8.437  -4.283  25.561  0.00  0.00    -0.311 N 
ATOM      2  H   UNL     1       9.218  -4.784  25.973  0.00  0.00    +0.152 HD
ENDROOT
BRANCH   1   3
ATOM      3  C   UNL     1       7.289  -5.077  25.269  0.00  0.00    +0.050 A 
ATOM      4  C   UNL     1       6.525  -5.609  26.349  0.00  0.00    +0.022 A 
ATOM      5  C   UNL     1       5.316  -6.256  26.022  0.00  0.00    +0.073 A 
ATOM      6  C   UNL     1       4.523  -6.765  27.043  0.00  0.00    +0.028 A 
ATOM      7  C   UNL     1       4.882  -6.659  28.389  0.00  0.00    +0.002 A 
ATOM      8  C   UNL     1       6.072  -6.034  28.727  0.00  0.00    +0.001 A 
ATOM      9  N   UNL     1       4.879  -6.396  24.767  0.00  0.00    -0.247 NA
ATOM     10  C   UNL     1       5.611  -5.932  23.751  0.00  0.00    +0.073 A 
ATOM     11  C   UNL     1       5.112  -6.095  22.462  0.00  0.00    +0.028 A 
ATOM     12  C   UNL     1       5.796  -5.639  21.333  0.00  0.00    +0.002 A 
ATOM     13  C   UNL     1       7.038  -5.048  21.485  0.00  0.00    +0.001 A 
ATOM     14  C   UNL     1       7.569  -4.909  22.764  0.00  0.00    +0.012 A 
ATOM     15  C   UNL     1       6.884  -5.512  27.719  0.00  0.00    +0.012 A 
ATOM     16  C   UNL     1       6.846  -5.286  23.929  0.00  0.00    +0.022 A 
ENDBRANCH   1   3
BRANCH   1  22
ATOM     17  C   UNL     1       8.195  -1.880  25.958  0.00  0.00    +0.143 A 
ATOM     18  C   UNL     1       8.589  -0.562  25.694  0.00  0.00    +0.072 A 
ATOM     19  C   UNL     1       9.478  -0.291  24.656  0.00  0.00    +0.051 A 
ATOM     20  C   UNL     1      10.030  -1.329  23.914  0.00  0.00    +0.026 A 
ATOM     21  C   UNL     1       9.653  -2.646  24.186  0.00  0.00    +0.029 A 
ATOM     22  C   UNL     1       8.743  -2.947  25.214  0.00  0.00    +0.074 A 
BRANCH  17  24
ATOM     23  C   UNL     1       5.953  -1.821  26.707  0.00  0.00    +0.277 C 
ATOM     24  O   UNL     1       7.299  -2.223  26.946  0.00  0.00    -0.493 OA
ENDBRANCH  17  24
BRANCH  19  25
ATOM     25  N   UNL     1       9.774   1.066  24.336  0.00  0.00    -0.221 N 
ATOM     26  H   UNL     1       9.595   1.729  25.092  0.00  0.00    +0.173 HD
BRANCH  25  27
ATOM     27  S   UNL     1       9.186   1.710  22.894  0.00  0.00    +0.040 S 
ATOM     28  O   UNL     1       7.878   1.114  22.716  0.00  0.00    -0.155 OA
ATOM     29  O   UNL     1      10.193   1.639  21.861  0.00  0.00    -0.155 OA
ATOM     30  C   UNL     1       8.933   3.414  23.348  0.00  0.00    +0.218 C 
ENDBRANCH  25  27
ENDBRANCH  19  25
ENDBRANCH   1  22
TORSDOF 5
ENDMDL
MODEL 2
REMARK VINA RESULT:      -7.2      1.285      1.938
REMARK  Name = 
REMARK  7 active torsions:
REMARK  status: ('A' for Active; 'I' for Inactive)
REMARK    1  A    between atoms: C_1  and  O_2
REMARK    2  A    between atoms: O_2  and  C_3
REMARK    3  A    between atoms: C_4  and  N_5
REMARK    4  A    between atoms: N_5  and  C_6
REMARK    5  A    between atoms: C_22  and  N_23
REMARK    6  A    between atoms: N_23  and  S_24
REMARK    7  A    between atoms: S_24  and  C_25
REMARK                            x       y       z     vdW  Elec       q    Type
REMARK                         _______ _______ _______ _____ _____    ______ ____
ROOT
ATOM      1  N   UNL     1       8.278  -4.008  25.663  0.00  0.00    -0.311 N 
ATOM      2  H   UNL     1       9.206  -4.418  25.691  0.00  0.00    +0.152 HD
ENDROOT
BRANCH   1   3
ATOM      3  C   UNL     1       7.223  -4.910  25.336  0.00  0.00    +0.050 A 
ATOM      4  C   UNL     1       6.490  -5.526  26.393  0.00  0.00    +0.022 A 
ATOM      5  C   UNL     1       5.359  -6.286  26.033  0.00  0.00    +0.073 A 
ATOM      6  C   UNL     1       4.598  -6.883  27.030  0.00  0.00    +0.028 A 
ATOM      7  C   UNL     1       4.914  -6.756  28.385  0.00  0.00    +0.002 A 
ATOM      8  C   UNL     1       6.027  -6.018  28.756  0.00  0.00    +0.001 A 
ATOM      9  N   UNL     1       4.967  -6.456  24.767  0.00  0.00    -0.247 NA
ATOM     10  C   UNL     1       5.673  -5.911  23.772  0.00  0.00    +0.073 A 
ATOM     11  C   UNL     1       5.223  -6.109  22.470  0.00  0.00    +0.028 A 
ATOM     12  C   UNL     1       5.884  -5.575  21.362  0.00  0.00    +0.002 A 
ATOM     13  C   UNL     1       7.057  -4.866  21.548  0.00  0.00    +0.001 A 
ATOM     14  C   UNL     1       7.541  -4.688  22.840  0.00  0.00    +0.012 A 
ATOM     15  C   UNL     1       6.806  -5.408  27.773  0.00  0.00    +0.012 A 
ATOM     16  C   UNL     1       6.834  -5.148  23.984  0.00  0.00    +0.022 A 
ENDBRANCH   1   3
BRANCH   1  22
ATOM     17  C   UNL     1       9.101  -1.819  24.939  0.00  0.00    +0.143 A 
ATOM     18  C   UNL     1       9.016  -0.421  24.970  0.00  0.00    +0.072 A 
ATOM     19  C   UNL     1       8.166   0.209  25.877  0.00  0.00    +0.051 A 
ATOM     20  C   UNL     1       7.347  -0.543  26.712  0.00  0.00    +0.026 A 
ATOM     21  C   UNL     1       7.415  -1.937  26.671  0.00  0.00    +0.029 A 
ATOM     22  C   UNL     1       8.279  -2.599  25.782  0.00  0.00    +0.074 A 
BRANCH  17  24
ATOM     23  C   UNL     1      10.251  -1.846  22.873  0.00  0.00    +0.277 C 
ATOM     24  O   UNL     1       9.939  -2.512  24.094  0.00  0.00    -0.493 OA
ENDBRANCH  17  24
BRANCH  19  25
ATOM     25  N   UNL     1       8.183   1.631  25.967  0.00  0.00    -0.221 N 
ATOM     26  H   UNL     1       7.383   2.035  26.458  0.00  0.00    +0.173 HD
BRANCH  25  27
ATOM     27  S   UNL     1       8.480   2.533  24.575  0.00  0.00    +0.040 S 
ATOM     28  O   UNL     1       7.421   2.170  23.654  0.00  0.00    -0.155 OA
ATOM     29  O   UNL     1       9.871   2.437  24.199  0.00  0.00    -0.155 OA
ATOM     30  C   UNL     1       8.140   4.184  25.147  0.00  0.00    +0.218 C 
ENDBRANCH  25  27
ENDBRANCH  19  25
ENDBRANCH   1  22
TORSDOF 5
ENDMDL
MODEL 3
REMARK VINA RESULT:      -7.1      0.235      3.437
REMARK  Name = 
REMARK  7 active torsions:
REMARK  status: ('A' for Active; 'I' for Inactive)
REMARK    1  A    between atoms: C_1  and  O_2
REMARK    2  A    between atoms: O_2  and  C_3
REMARK    3  A    between atoms: C_4  and  N_5
REMARK    4  A    between atoms: N_5  and  C_6
REMARK    5  A    between atoms: C_22  and  N_23
REMARK    6  A    between atoms: N_23  and  S_24
REMARK    7  A    between atoms: S_24  and  C_25
REMARK                            x       y       z     vdW  Elec       q    Type
REMARK                         _______ _______ _______ _____ _____    ______ ____
ROOT
ATOM      1  N   UNL     1       8.433  -4.165  25.484  0.00  0.00    -0.311 N 
ATOM      2  H   UNL     1       9.203  -4.729  25.830  0.00  0.00    +0.152 HD
ENDROOT
BRANCH   1   3
ATOM      3  C   UNL     1       7.220  -4.873  25.237  0.00  0.00    +0.050 A 
ATOM      4  C   UNL     1       6.815  -5.097  23.888  0.00  0.00    +0.022 A 
ATOM      5  C   UNL     1       5.697  -5.931  23.684  0.00  0.00    +0.073 A 
ATOM      6  C   UNL     1       5.282  -6.201  22.386  0.00  0.00    +0.028 A 
ATOM      7  C   UNL     1       5.935  -5.673  21.270  0.00  0.00    +0.002 A 
ATOM      8  C   UNL     1       7.030  -4.844  21.453  0.00  0.00    +0.001 A 
ATOM      9  N   UNL     1       5.014  -6.495  24.685  0.00  0.00    -0.247 NA
ATOM     10  C   UNL     1       5.368  -6.256  25.950  0.00  0.00    +0.073 A 
ATOM     11  C   UNL     1       4.632  -6.870  26.959  0.00  0.00    +0.028 A 
ATOM     12  C   UNL     1       4.926  -6.693  28.312  0.00  0.00    +0.002 A 
ATOM     13  C   UNL     1       5.952  -5.839  28.678  0.00  0.00    +0.001 A 
ATOM     14  C   UNL     1       6.676  -5.188  27.684  0.00  0.00    +0.012 A 
ATOM     15  C   UNL     1       7.468  -4.560  22.747  0.00  0.00    +0.012 A 
ATOM     16  C   UNL     1       6.448  -5.427  26.301  0.00  0.00    +0.022 A 
ENDBRANCH   1   3
BRANCH   1  22
ATOM     17  C   UNL     1       8.320  -1.762  25.938  0.00  0.00    +0.143 A 
ATOM     18  C   UNL     1       8.781  -0.460  25.700  0.00  0.00    +0.072 A 
ATOM     19  C   UNL     1       9.671  -0.212  24.657  0.00  0.00    +0.051 A 
ATOM     20  C   UNL     1      10.161  -1.260  23.887  0.00  0.00    +0.026 A 
ATOM     21  C   UNL     1       9.719  -2.561  24.133  0.00  0.00    +0.029 A 
ATOM     22  C   UNL     1       8.804  -2.838  25.163  0.00  0.00    +0.074 A 
BRANCH  17  24
ATOM     23  C   UNL     1       6.104  -1.565  26.736  0.00  0.00    +0.277 C 
ATOM     24  O   UNL     1       7.418  -2.081  26.928  0.00  0.00    -0.493 OA
ENDBRANCH  17  24
BRANCH  19  25
ATOM     25  N   UNL     1      10.035   1.134  24.365  0.00  0.00    -0.221 N 
ATOM     26  H   UNL     1       9.997   1.768  25.166  0.00  0.00    +0.173 HD
BRANCH  25  27
ATOM     27  S   UNL     1       9.337   1.896  23.033  0.00  0.00    +0.040 S 
ATOM     28  O   UNL     1       7.972   1.414  22.992  0.00  0.00    -0.155 OA
ATOM     29  O   UNL     1      10.206   1.799  21.884  0.00  0.00    -0.155 OA
ATOM     30  C   UNL     1       9.284   3.589  23.585  0.00  0.00    +0.218 C 
ENDBRANCH  25  27
ENDBRANCH  19  25
ENDBRANCH   1  22
TORSDOF 5
ENDMDL
MODEL 4
REMARK VINA RESULT:      -6.8      3.458      8.175
REMARK  Name = 
REMARK  7 active torsions:
REMARK  status: ('A' for Active; 'I' for Inactive)
REMARK    1  A    between atoms: C_1  and  O_2
REMARK    2  A    between atoms: O_2  and  C_3
REMARK    3  A    between atoms: C_4  and  N_5
REMARK    4  A    between atoms: N_5  and  C_6
REMARK    5  A    between atoms: C_22  and  N_23
REMARK    6  A    between atoms: N_23  and  S_24
REMARK    7  A    between atoms: S_24  and  C_25
REMARK                            x       y       z     vdW  Elec       q    Type
REMARK                         _______ _______ _______ _____ _____    ______ ____
ROOT
ATOM      1  N   UNL     1       9.771   1.097  24.165  0.00  0.00    -0.311 N 
ATOM      2  H   UNL     1      10.545   1.041  24.819  0.00  0.00    +0.152 HD
ENDROOT
BRANCH   1   3
ATOM      3  C   UNL     1       9.203   2.395  24.003  0.00  0.00    +0.050 A 
ATOM      4  C   UNL     1       7.796   2.557  24.163  0.00  0.00    +0.022 A 
ATOM      5  C   UNL     1       7.295   3.875  24.148  0.00  0.00    +0.073 A 
ATOM      6  C   UNL     1       5.934   4.084  24.327  0.00  0.00    +0.028 A 
ATOM      7  C   UNL     1       5.037   3.032  24.523  0.00  0.00    +0.002 A 
ATOM      8  C   UNL     1       5.511   1.729  24.532  0.00  0.00    +0.001 A 
ATOM      9  N   UNL     1       8.073   4.949  23.981  0.00  0.00    -0.247 NA
ATOM     10  C   UNL     1       9.387   4.798  23.793  0.00  0.00    +0.073 A 
ATOM     11  C   UNL     1      10.157   5.945  23.630  0.00  0.00    +0.028 A 
ATOM     12  C   UNL     1      11.539   5.896  23.437  0.00  0.00    +0.002 A 
ATOM     13  C   UNL     1      12.169   4.667  23.351  0.00  0.00    +0.001 A 
ATOM     14  C   UNL     1      11.409   3.508  23.476  0.00  0.00    +0.012 A 
ATOM     15  C   UNL     1       6.875   1.493  24.356  0.00  0.00    +0.012 A 
ATOM     16  C   UNL     1      10.017   3.542  23.762  0.00  0.00    +0.022 A 
ENDBRANCH   1   3
BRANCH   1  22
ATOM     17  C   UNL     1       8.869  -1.131  24.625  0.00  0.00    +0.143 A 
ATOM     18  C   UNL     1       8.317  -2.334  24.166  0.00  0.00    +0.072 A 
ATOM     19  C   UNL     1       8.274  -2.609  22.801  0.00  0.00    +0.051 A 
ATOM     20  C   UNL     1       8.717  -1.667  21.880  0.00  0.00    +0.026 A 
ATOM     21  C   UNL     1       9.251  -0.459  22.333  0.00  0.00    +0.029 A 
ATOM     22  C   UNL     1       9.327  -0.164  23.705  0.00  0.00    +0.074 A 
BRANCH  17  24
ATOM     23  C   UNL     1       7.903  -1.256  26.780  0.00  0.00    +0.277 C 
ATOM     24  O   UNL     1       8.975  -0.802  25.959  0.00  0.00    -0.493 OA
ENDBRANCH  17  24
BRANCH  19  25
ATOM     25  N   UNL     1       7.812  -3.886  22.367  0.00  0.00    -0.221 N 
ATOM     26  H   UNL     1       8.197  -4.195  21.472  0.00  0.00    +0.173 HD
BRANCH  25  27
ATOM     27  S   UNL     1       6.158  -4.206  22.390  0.00  0.00    +0.040 S 
ATOM     28  O   UNL     1       5.552  -3.128  21.635  0.00  0.00    -0.155 OA
ATOM     29  O   UNL     1       5.723  -4.525  23.729  0.00  0.00    -0.155 OA
ATOM     30  C   UNL     1       6.071  -5.672  21.382  0.00  0.00    +0.218 C 
ENDBRANCH  25  27
ENDBRANCH  19  25
ENDBRANCH   1  22
TORSDOF 5
ENDMDL
MODEL 5
REMARK VINA RESULT:      -6.8      2.322      3.065
REMARK  Name = 
REMARK  7 active torsions:
REMARK  status: ('A' for Active; 'I' for Inactive)
REMARK    1  A    between atoms: C_1  and  O_2
REMARK    2  A    between atoms: O_2  and  C_3
REMARK    3  A    between atoms: C_4  and  N_5
REMARK    4  A    between atoms: N_5  and  C_6
REMARK    5  A    between atoms: C_22  and  N_23
REMARK    6  A    between atoms: N_23  and  S_24
REMARK    7  A    between atoms: S_24  and  C_25
REMARK                            x       y       z     vdW  Elec       q    Type
REMARK                         _______ _______ _______ _____ _____    ______ ____
ROOT
ATOM      1  N   UNL     1       5.449  -3.675  26.009  0.00  0.00    -0.311 N 
ATOM      2  H   UNL     1       5.369  -4.101  26.927  0.00  0.00    +0.152 HD
ENDROOT
BRANCH   1   3
ATOM      3  C   UNL     1       4.827  -4.396  24.947  0.00  0.00    +0.050 A 
ATOM      4  C   UNL     1       3.404  -4.478  24.910  0.00  0.00    +0.022 A 
ATOM      5  C   UNL     1       2.824  -5.063  23.766  0.00  0.00    +0.073 A 
ATOM      6  C   UNL     1       1.440  -5.140  23.672  0.00  0.00    +0.028 A 
ATOM      7  C   UNL     1       0.597  -4.656  24.675  0.00  0.00    +0.002 A 
ATOM      8  C   UNL     1       1.151  -4.085  25.810  0.00  0.00    +0.001 A 
ATOM      9  N   UNL     1       3.544  -5.542  22.747  0.00  0.00    -0.247 NA
ATOM     10  C   UNL     1       4.878  -5.501  22.796  0.00  0.00    +0.073 A 
ATOM     11  C   UNL     1       5.585  -6.006  21.709  0.00  0.00    +0.028 A 
ATOM     12  C   UNL     1       6.981  -6.001  21.659  0.00  0.00    +0.002 A 
ATOM     13  C   UNL     1       7.698  -5.528  22.743  0.00  0.00    +0.001 A 
ATOM     14  C   UNL     1       7.008  -5.051  23.853  0.00  0.00    +0.012 A 
ATOM     15  C   UNL     1       2.539  -3.995  25.927  0.00  0.00    +0.012 A 
ATOM     16  C   UNL     1       5.589  -4.966  23.884  0.00  0.00    +0.022 A 
ENDBRANCH   1   3
BRANCH   1  22
ATOM     17  C   UNL     1       7.624  -2.660  26.487  0.00  0.00    +0.143 A 
ATOM     18  C   UNL     1       8.520  -1.592  26.349  0.00  0.00    +0.072 A 
ATOM     19  C   UNL     1       8.102  -0.398  25.766  0.00  0.00    +0.051 A 
ATOM     20  C   UNL     1       6.814  -0.277  25.257  0.00  0.00    +0.026 A 
ATOM     21  C   UNL     1       5.923  -1.346  25.375  0.00  0.00    +0.029 A 
ATOM     22  C   UNL     1       6.311  -2.555  25.979  0.00  0.00    +0.074 A 
BRANCH  17  24
ATOM     23  C   UNL     1       9.137  -4.475  26.577  0.00  0.00    +0.277 C 
ATOM     24  O   UNL     1       7.954  -3.859  27.079  0.00  0.00    -0.493 OA
ENDBRANCH  17  24
BRANCH  19  25
ATOM     25  N   UNL     1       8.997   0.710  25.741  0.00  0.00    -0.221 N 
ATOM     26  H   UNL     1       8.576   1.603  26.006  0.00  0.00    +0.173 HD
BRANCH  25  27
ATOM     27  S   UNL     1       9.965   0.946  24.382  0.00  0.00    +0.040 S 
ATOM     28  O   UNL     1       9.323   0.195  23.323  0.00  0.00    -0.155 OA
ATOM     29  O   UNL     1      11.357   0.744  24.712  0.00  0.00    -0.155 OA
ATOM     30  C   UNL     1       9.688   2.674  24.049  0.00  0.00    +0.218 C 
ENDBRANCH  25  27
ENDBRANCH  19  25
ENDBRANCH   1  22
TORSDOF 5
ENDMDL
MODEL 6
REMARK VINA RESULT:      -6.7      3.207      7.611
REMARK  Name = 
REMARK  7 active torsions:
REMARK  status: ('A' for Active; 'I' for Inactive)
REMARK    1  A    between atoms: C_1  and  O_2
REMARK    2  A    between atoms: O_2  and  C_3
REMARK    3  A    between atoms: C_4  and  N_5
REMARK    4  A    between atoms: N_5  and  C_6
REMARK    5  A    between atoms: C_22  and  N_23
REMARK    6  A    between atoms: N_23  and  S_24
REMARK    7  A    between atoms: S_24  and  C_25
REMARK                            x       y       z     vdW  Elec       q    Type
REMARK                         _______ _______ _______ _____ _____    ______ ____
ROOT
ATOM      1  N   UNL     1       9.091  -0.665  25.382  0.00  0.00    -0.311 N 
ATOM      2  H   UNL     1       9.805  -0.931  26.053  0.00  0.00    +0.152 HD
ENDROOT
BRANCH   1   3
ATOM      3  C   UNL     1       8.511   0.621  25.588  0.00  0.00    +0.050 A 
ATOM      4  C   UNL     1       9.079   1.748  24.925  0.00  0.00    +0.022 A 
ATOM      5  C   UNL     1       8.386   2.972  25.030  0.00  0.00    +0.073 A 
ATOM      6  C   UNL     1       8.887   4.091  24.378  0.00  0.00    +0.028 A 
ATOM      7  C   UNL     1      10.057   4.049  23.617  0.00  0.00    +0.002 A 
ATOM      8  C   UNL     1      10.755   2.857  23.510  0.00  0.00    +0.001 A 
ATOM      9  N   UNL     1       7.252   3.111  25.723  0.00  0.00    -0.247 NA
ATOM     10  C   UNL     1       6.737   2.066  26.376  0.00  0.00    +0.073 A 
ATOM     11  C   UNL     1       5.552   2.257  27.078  0.00  0.00    +0.028 A 
ATOM     12  C   UNL     1       4.928   1.227  27.786  0.00  0.00    +0.002 A 
ATOM     13  C   UNL     1       5.528  -0.018  27.842  0.00  0.00    +0.001 A 
ATOM     14  C   UNL     1       6.733  -0.218  27.175  0.00  0.00    +0.012 A 
ATOM     15  C   UNL     1      10.271   1.718  24.155  0.00  0.00    +0.012 A 
ATOM     16  C   UNL     1       7.334   0.793  26.377  0.00  0.00    +0.022 A 
ENDBRANCH   1   3
BRANCH   1  22
ATOM     17  C   UNL     1       8.486  -3.008  25.015  0.00  0.00    +0.143 A 
ATOM     18  C   UNL     1       8.001  -4.017  24.173  0.00  0.00    +0.072 A 
ATOM     19  C   UNL     1       7.804  -3.764  22.817  0.00  0.00    +0.051 A 
ATOM     20  C   UNL     1       8.024  -2.493  22.300  0.00  0.00    +0.026 A 
ATOM     21  C   UNL     1       8.490  -1.479  23.140  0.00  0.00    +0.029 A 
ATOM     22  C   UNL     1       8.719  -1.712  24.507  0.00  0.00    +0.074 A 
BRANCH  17  24
ATOM     23  C   UNL     1       9.070  -4.524  26.733  0.00  0.00    +0.277 C 
ATOM     24  O   UNL     1       8.735  -3.191  26.357  0.00  0.00    -0.493 OA
ENDBRANCH  17  24
BRANCH  19  25
ATOM     25  N   UNL     1       7.420  -4.837  21.962  0.00  0.00    -0.221 N 
ATOM     26  H   UNL     1       7.870  -4.831  21.044  0.00  0.00    +0.173 HD
BRANCH  25  27
ATOM     27  S   UNL     1       5.781  -5.175  21.764  0.00  0.00    +0.040 S 
ATOM     28  O   UNL     1       5.695  -5.928  20.529  0.00  0.00    -0.155 OA
ATOM     29  O   UNL     1       4.990  -3.986  21.978  0.00  0.00    -0.155 OA
ATOM     30  C   UNL     1       5.494  -6.318  23.100  0.00  0.00    +0.218 C 
ENDBRANCH  25  27
ENDBRANCH  19  25
ENDBRANCH   1  22
TORSDOF 5
ENDMDL
MODEL 7
REMARK VINA RESULT:      -6.7      1.972      2.239
REMARK  Name = 
REMARK  7 active torsions:
REMARK  status: ('A' for Active; 'I' for Inactive)
REMARK    1  A    between atoms: C_1  and  O_2
REMARK    2  A    between atoms: O_2  and  C_3
REMARK    3  A    between atoms: C_4  and  N_5
REMARK    4  A    between atoms: N_5  and  C_6
REMARK    5  A    between atoms: C_22  and  N_23
REMARK    6  A    between atoms: N_23  and  S_24
REMARK    7  A    between atoms: S_24  and  C_25
REMARK                            x       y       z     vdW  Elec       q    Type
REMARK                         _______ _______ _______ _____ _____    ______ ____
ROOT
ATOM      1  N   UNL     1       7.520  -3.169  25.693  0.00  0.00    -0.311 N 
ATOM      2  H   UNL     1       7.942  -3.732  26.425  0.00  0.00    +0.152 HD
ENDROOT
BRANCH   1   3
ATOM      3  C   UNL     1       6.334  -3.709  25.115  0.00  0.00    +0.050 A 
ATOM      4  C   UNL     1       5.069  -3.318  25.644  0.00  0.00    +0.022 A 
ATOM      5  C   UNL     1       3.921  -3.750  24.950  0.00  0.00    +0.073 A 
ATOM      6  C   UNL     1       2.667  -3.371  25.412  0.00  0.00    +0.028 A 
ATOM      7  C   UNL     1       2.501  -2.572  26.546  0.00  0.00    +0.002 A 
ATOM      8  C   UNL     1       3.618  -2.145  27.245  0.00  0.00    +0.001 A 
ATOM      9  N   UNL     1       3.975  -4.505  23.849  0.00  0.00    -0.247 NA
ATOM     10  C   UNL     1       5.157  -4.905  23.372  0.00  0.00    +0.073 A 
ATOM     11  C   UNL     1       5.164  -5.684  22.220  0.00  0.00    +0.028 A 
ATOM     12  C   UNL     1       6.347  -6.145  21.637  0.00  0.00    +0.002 A 
ATOM     13  C   UNL     1       7.557  -5.867  22.247  0.00  0.00    +0.001 A 
ATOM     14  C   UNL     1       7.567  -5.119  23.420  0.00  0.00    +0.012 A 
ATOM     15  C   UNL     1       4.889  -2.511  26.799  0.00  0.00    +0.012 A 
ATOM     16  C   UNL     1       6.380  -4.567  23.976  0.00  0.00    +0.022 A 
ENDBRANCH   1   3
BRANCH   1  22
ATOM     17  C   UNL     1       8.328  -0.892  26.087  0.00  0.00    +0.143 A 
ATOM     18  C   UNL     1       9.202   0.156  25.770  0.00  0.00    +0.072 A 
ATOM     19  C   UNL     1      10.016   0.072  24.643  0.00  0.00    +0.051 A 
ATOM     20  C   UNL     1      10.017  -1.076  23.860  0.00  0.00    +0.026 A 
ATOM     21  C   UNL     1       9.160  -2.131  24.183  0.00  0.00    +0.029 A 
ATOM     22  C   UNL     1       8.312  -2.065  25.302  0.00  0.00    +0.074 A 
BRANCH  17  24
ATOM     23  C   UNL     1       7.280   0.412  27.758  0.00  0.00    +0.277 C 
ATOM     24  O   UNL     1       7.472  -0.870  27.166  0.00  0.00    -0.493 OA
ENDBRANCH  17  24
BRANCH  19  25
ATOM     25  N   UNL     1      10.811   1.197  24.279  0.00  0.00    -0.221 N 
ATOM     26  H   UNL     1      11.239   1.688  25.067  0.00  0.00    +0.173 HD
BRANCH  25  27
ATOM     27  S   UNL     1      10.175   2.335  23.210  0.00  0.00    +0.040 S 
ATOM     28  O   UNL     1       8.945   2.788  23.826  0.00  0.00    -0.155 OA
ATOM     29  O   UNL     1      10.198   1.826  21.859  0.00  0.00    -0.155 OA
ATOM     30  C   UNL     1      11.359   3.657  23.358  0.00  0.00    +0.218 C 
ENDBRANCH  25  27
ENDBRANCH  19  25
ENDBRANCH   1  22
TORSDOF 5
ENDMDL
MODEL 8
REMARK VINA RESULT:      -6.5      3.410      7.099
REMARK  Name = 
REMARK  7 active torsions:
REMARK  status: ('A' for Active; 'I' for Inactive)
REMARK    1  A    between atoms: C_1  and  O_2
REMARK    2  A    between atoms: O_2  and  C_3
REMARK    3  A    between atoms: C_4  and  N_5
REMARK    4  A    between atoms: N_5  and  C_6
REMARK    5  A    between atoms: C_22  and  N_23
REMARK    6  A    between atoms: N_23  and  S_24
REMARK    7  A    between atoms: S_24  and  C_25
REMARK                            x       y       z     vdW  Elec       q    Type
REMARK                         _______ _______ _______ _____ _____    ______ ____
ROOT
ATOM      1  N   UNL     1       7.816  -2.476  24.646  0.00  0.00    -0.311 N 
ATOM      2  H   UNL     1       8.595  -2.888  25.150  0.00  0.00    +0.152 HD
ENDROOT
BRANCH   1   3
ATOM      3  C   UNL     1       7.761  -1.052  24.667  0.00  0.00    +0.050 A 
ATOM      4  C   UNL     1       7.100  -0.403  25.750  0.00  0.00    +0.022 A 
ATOM      5  C   UNL     1       7.201   1.002  25.816  0.00  0.00    +0.073 A 
ATOM      6  C   UNL     1       6.596   1.676  26.869  0.00  0.00    +0.028 A 
ATOM      7  C   UNL     1       5.887   1.010  27.872  0.00  0.00    +0.002 A 
ATOM      8  C   UNL     1       5.771  -0.370  27.818  0.00  0.00    +0.001 A 
ATOM      9  N   UNL     1       7.867   1.728  24.913  0.00  0.00    -0.247 NA
ATOM     10  C   UNL     1       8.456   1.126  23.876  0.00  0.00    +0.073 A 
ATOM     11  C   UNL     1       9.143   1.923  22.966  0.00  0.00    +0.028 A 
ATOM     12  C   UNL     1       9.800   1.391  21.854  0.00  0.00    +0.002 A 
ATOM     13  C   UNL     1       9.728   0.031  21.610  0.00  0.00    +0.001 A 
ATOM     14  C   UNL     1       9.014  -0.777  22.491  0.00  0.00    +0.012 A 
ATOM     15  C   UNL     1       6.372  -1.070  26.771  0.00  0.00    +0.012 A 
ATOM     16  C   UNL     1       8.417  -0.264  23.674  0.00  0.00    +0.022 A 
ENDBRANCH   1   3
BRANCH   1  22
ATOM     17  C   UNL     1       6.850  -4.723  24.749  0.00  0.00    +0.143 A 
ATOM     18  C   UNL     1       5.841  -5.627  24.390  0.00  0.00    +0.072 A 
ATOM     19  C   UNL     1       4.890  -5.272  23.435  0.00  0.00    +0.051 A 
ATOM     20  C   UNL     1       4.894  -3.998  22.878  0.00  0.00    +0.026 A 
ATOM     21  C   UNL     1       5.887  -3.088  23.248  0.00  0.00    +0.029 A 
ATOM     22  C   UNL     1       6.871  -3.426  24.192  0.00  0.00    +0.074 A 
BRANCH  17  24
ATOM     23  C   UNL     1       7.386  -5.268  26.987  0.00  0.00    +0.277 C 
ATOM     24  O   UNL     1       7.841  -5.011  25.661  0.00  0.00    -0.493 OA
ENDBRANCH  17  24
BRANCH  19  25
ATOM     25  N   UNL     1       3.946  -6.248  23.005  0.00  0.00    -0.221 N 
ATOM     26  H   UNL     1       3.893  -6.371  21.991  0.00  0.00    +0.173 HD
BRANCH  25  27
ATOM     27  S   UNL     1       2.382  -6.201  23.631  0.00  0.00    +0.040 S 
ATOM     28  O   UNL     1       1.573  -5.605  22.586  0.00  0.00    -0.155 OA
ATOM     29  O   UNL     1       2.390  -5.668  24.973  0.00  0.00    -0.155 OA
ATOM     30  C   UNL     1       1.975  -7.934  23.691  0.00  0.00    +0.218 C 
ENDBRANCH  25  27
ENDBRANCH  19  25
ENDBRANCH   1  22
TORSDOF 5
ENDMDL
MODEL 9
REMARK VINA RESULT:      -6.5      1.981      2.226
REMARK  Name = 
REMARK  7 active torsions:
REMARK  status: ('A' for Active; 'I' for Inactive)
REMARK    1  A    between atoms: C_1  and  O_2
REMARK    2  A    between atoms: O_2  and  C_3
REMARK    3  A    between atoms: C_4  and  N_5
REMARK    4  A    between atoms: N_5  and  C_6
REMARK    5  A    between atoms: C_22  and  N_23
REMARK    6  A    between atoms: N_23  and  S_24
REMARK    7  A    between atoms: S_24  and  C_25
REMARK                            x       y       z     vdW  Elec       q    Type
REMARK                         _______ _______ _______ _____ _____    ______ ____
ROOT
ATOM      1  N   UNL     1       5.772  -2.061  24.810  0.00  0.00    -0.311 N 
ATOM      2  H   UNL     1       4.874  -1.649  25.042  0.00  0.00    +0.152 HD
ENDROOT
BRANCH   1   3
ATOM      3  C   UNL     1       5.800  -3.486  24.779  0.00  0.00    +0.050 A 
ATOM      4  C   UNL     1       5.587  -4.206  25.991  0.00  0.00    +0.022 A 
ATOM      5  C   UNL     1       5.468  -5.607  25.893  0.00  0.00    +0.073 A 
ATOM      6  C   UNL     1       5.233  -6.349  27.043  0.00  0.00    +0.028 A 
ATOM      7  C   UNL     1       5.109  -5.755  28.301  0.00  0.00    +0.002 A 
ATOM      8  C   UNL     1       5.232  -4.379  28.417  0.00  0.00    +0.001 A 
ATOM      9  N   UNL     1       5.558  -6.268  24.734  0.00  0.00    -0.247 NA
ATOM     10  C   UNL     1       5.794  -5.600  23.603  0.00  0.00    +0.073 A 
ATOM     11  C   UNL     1       5.873  -6.329  22.420  0.00  0.00    +0.028 A 
ATOM     12  C   UNL     1       6.108  -5.724  21.184  0.00  0.00    +0.002 A 
ATOM     13  C   UNL     1       6.323  -4.359  21.125  0.00  0.00    +0.001 A 
ATOM     14  C   UNL     1       6.283  -3.618  22.303  0.00  0.00    +0.012 A 
ATOM     15  C   UNL     1       5.466  -3.612  27.275  0.00  0.00    +0.012 A 
ATOM     16  C   UNL     1       5.957  -4.204  23.556  0.00  0.00    +0.022 A 
ENDBRANCH   1   3
BRANCH   1  22
ATOM     17  C   UNL     1       6.541   0.263  24.788  0.00  0.00    +0.143 A 
ATOM     18  C   UNL     1       7.586   1.195  24.846  0.00  0.00    +0.072 A 
ATOM     19  C   UNL     1       8.910   0.766  24.800  0.00  0.00    +0.051 A 
ATOM     20  C   UNL     1       9.209  -0.591  24.761  0.00  0.00    +0.026 A 
ATOM     21  C   UNL     1       8.171  -1.524  24.721  0.00  0.00    +0.029 A 
ATOM     22  C   UNL     1       6.825  -1.119  24.745  0.00  0.00    +0.074 A 
BRANCH  17  24
ATOM     23  C   UNL     1       4.950   2.012  24.751  0.00  0.00    +0.277 C 
ATOM     24  O   UNL     1       5.209   0.611  24.798  0.00  0.00    -0.493 OA
ENDBRANCH  17  24
BRANCH  19  25
ATOM     25  N   UNL     1       9.950   1.739  24.746  0.00  0.00    -0.221 N 
ATOM     26  H   UNL     1      10.057   2.295  25.597  0.00  0.00    +0.173 HD
BRANCH  25  27
ATOM     27  S   UNL     1      10.040   2.763  23.410  0.00  0.00    +0.040 S 
ATOM     28  O   UNL     1      11.386   3.300  23.434  0.00  0.00    -0.155 OA
ATOM     29  O   UNL     1       8.885   3.627  23.358  0.00  0.00    -0.155 OA
ATOM     30  C   UNL     1       9.961   1.596  22.067  0.00  0.00    +0.218 C 
ENDBRANCH  25  27
ENDBRANCH  19  25
ENDBRANCH   1  22
TORSDOF 5
ENDMDL
