MODEL 1
REMARK VINA RESULT:      -6.3      0.000      0.000
REMARK  Name = 
REMARK  0 active torsions:
REMARK  status: ('A' for Active; 'I' for Inactive)
REMARK                            x       y       z     vdW  Elec       q    Type
REMARK                         _______ _______ _______ _____ _____    ______ ____
ROOT
ATOM      1 CL   UNL     1       9.555   2.237  22.194  0.00  0.00    -0.082 Cl
ATOM      2  C   UNL     1       9.593   0.631  22.838  0.00  0.00    +0.060 A 
ATOM      3  C   UNL     1       9.018   0.300  24.076  0.00  0.00    +0.069 A 
ATOM      4 CL   UNL     1       8.284   1.528  25.060  0.00  0.00    -0.082 Cl
ATOM      5  C   UNL     1       9.036  -1.033  24.522  0.00  0.00    +0.046 A 
ATOM      6  C   UNL     1       9.687  -2.019  23.741  0.00  0.00    +0.149 A 
ATOM      7  N   UNL     1       9.730  -3.377  24.122  0.00  0.00    -0.076 NA
ATOM      8  C   UNL     1       8.923  -3.700  25.067  0.00  0.00    +0.380 C 
ATOM      9  N   UNL     1       8.098  -2.870  25.757  0.00  0.00    -0.210 N 
ATOM     10  C   UNL     1       7.437  -3.589  26.832  0.00  0.00    +0.302 C 
ATOM     11  C   UNL     1       7.908  -5.026  26.548  0.00  0.00    +0.307 C 
ATOM     12  O   UNL     1       7.554  -6.033  27.139  0.00  0.00    -0.254 OA
ATOM     13  N   UNL     1       8.805  -4.963  25.516  0.00  0.00    -0.174 N 
ATOM     14  H   UNL     1       9.294  -5.751  25.128  0.00  0.00    +0.254 HD
ATOM     15  C   UNL     1      10.275  -1.665  22.526  0.00  0.00    +0.048 A 
ATOM     16  C   UNL     1       8.403  -1.464  25.827  0.00  0.00    +0.229 C 
ATOM     17  C   UNL     1      10.218  -0.351  22.067  0.00  0.00    +0.025 A 
ENDROOT
TORSDOF 0
ENDMDL
MODEL 2
REMARK VINA RESULT:      -6.0      3.911      5.666
REMARK  Name = 
REMARK  0 active torsions:
REMARK  status: ('A' for Active; 'I' for Inactive)
REMARK                            x       y       z     vdW  Elec       q    Type
REMARK                         _______ _______ _______ _____ _____    ______ ____
ROOT
ATOM      1 CL   UNL     1       5.811  -6.022  25.984  0.00  0.00    -0.082 Cl
ATOM      2  C   UNL     1       6.961  -4.951  25.262  0.00  0.00    +0.060 A 
ATOM      3  C   UNL     1       6.582  -3.892  24.421  0.00  0.00    +0.069 A 
ATOM      4 CL   UNL     1       4.912  -3.648  24.012  0.00  0.00    -0.082 Cl
ATOM      5  C   UNL     1       7.560  -3.022  23.905  0.00  0.00    +0.046 A 
ATOM      6  C   UNL     1       8.925  -3.262  24.195  0.00  0.00    +0.149 A 
ATOM      7  N   UNL     1       9.956  -2.422  23.723  0.00  0.00    -0.076 NA
ATOM      8  C   UNL     1       9.562  -1.296  23.248  0.00  0.00    +0.380 C 
ATOM      9  N   UNL     1       8.279  -0.872  23.107  0.00  0.00    -0.210 N 
ATOM     10  C   UNL     1       8.239   0.404  22.415  0.00  0.00    +0.302 C 
ATOM     11  C   UNL     1       9.740   0.724  22.316  0.00  0.00    +0.307 C 
ATOM     12  O   UNL     1      10.234   1.750  21.878  0.00  0.00    -0.254 OA
ATOM     13  N   UNL     1      10.420  -0.360  22.801  0.00  0.00    -0.174 N 
ATOM     14  H   UNL     1      11.421  -0.444  22.840  0.00  0.00    +0.254 HD
ATOM     15  C   UNL     1       9.283  -4.335  25.012  0.00  0.00    +0.048 A 
ATOM     16  C   UNL     1       7.217  -1.842  23.024  0.00  0.00    +0.229 C 
ATOM     17  C   UNL     1       8.308  -5.168  25.556  0.00  0.00    +0.025 A 
ENDROOT
TORSDOF 0
ENDMDL
MODEL 3
REMARK VINA RESULT:      -5.9      2.396      2.786
REMARK  Name = 
REMARK  0 active torsions:
REMARK  status: ('A' for Active; 'I' for Inactive)
REMARK                            x       y       z     vdW  Elec       q    Type
REMARK                         _______ _______ _______ _____ _____    ______ ____
ROOT
ATOM      1 CL   UNL     1       9.658   3.733  23.587  0.00  0.00    -0.082 Cl
ATOM      2  C   UNL     1       9.467   2.028  23.803  0.00  0.00    +0.060 A 
ATOM      3  C   UNL     1       8.348   1.326  23.323  0.00  0.00    +0.069 A 
ATOM      4 CL   UNL     1       7.055   2.171  22.531  0.00  0.00    -0.082 Cl
ATOM      5  C   UNL     1       8.274  -0.069  23.484  0.00  0.00    +0.046 A 
ATOM      6  C   UNL     1       9.305  -0.743  24.181  0.00  0.00    +0.149 A 
ATOM      7  N   UNL     1       9.302  -2.143  24.367  0.00  0.00    -0.076 NA
ATOM      8  C   UNL     1       8.457  -2.782  23.641  0.00  0.00    +0.380 C 
ATOM      9  N   UNL     1       7.551  -2.250  22.779  0.00  0.00    -0.210 N 
ATOM     10  C   UNL     1       6.692  -3.289  22.241  0.00  0.00    +0.302 C 
ATOM     11  C   UNL     1       7.359  -4.546  22.826  0.00  0.00    +0.307 C 
ATOM     12  O   UNL     1       7.050  -5.703  22.595  0.00  0.00    -0.254 OA
ATOM     13  N   UNL     1       8.359  -4.124  23.660  0.00  0.00    -0.174 N 
ATOM     14  H   UNL     1       8.954  -4.729  24.200  0.00  0.00    +0.254 HD
ATOM     15  C   UNL     1      10.395  -0.025  24.674  0.00  0.00    +0.048 A 
ATOM     16  C   UNL     1       7.117  -0.889  22.959  0.00  0.00    +0.229 C 
ATOM     17  C   UNL     1      10.486   1.351  24.474  0.00  0.00    +0.025 A 
ENDROOT
TORSDOF 0
ENDMDL
MODEL 4
REMARK VINA RESULT:      -5.8      4.202      6.206
REMARK  Name = 
REMARK  0 active torsions:
REMARK  status: ('A' for Active; 'I' for Inactive)
REMARK                            x       y       z     vdW  Elec       q    Type
REMARK                         _______ _______ _______ _____ _____    ______ ____
ROOT
ATOM      1 CL   UNL     1       3.901  -7.195  25.521  0.00  0.00    -0.082 Cl
ATOM      2  C   UNL     1       5.315  -6.211  25.361  0.00  0.00    +0.060 A 
ATOM      3  C   UNL     1       5.705  -5.641  24.138  0.00  0.00    +0.069 A 
ATOM      4 CL   UNL     1       4.798  -5.958  22.692  0.00  0.00    -0.082 Cl
ATOM      5  C   UNL     1       6.836  -4.807  24.083  0.00  0.00    +0.046 A 
ATOM      6  C   UNL     1       7.604  -4.600  25.254  0.00  0.00    +0.149 A 
ATOM      7  N   UNL     1       8.742  -3.764  25.273  0.00  0.00    -0.076 NA
ATOM      8  C   UNL     1       8.874  -3.007  24.245  0.00  0.00    +0.380 C 
ATOM      9  N   UNL     1       8.078  -2.976  23.144  0.00  0.00    -0.210 N 
ATOM     10  C   UNL     1       8.628  -2.077  22.145  0.00  0.00    +0.302 C 
ATOM     11  C   UNL     1       9.807  -1.469  22.924  0.00  0.00    +0.307 C 
ATOM     12  O   UNL     1      10.548  -0.580  22.538  0.00  0.00    -0.254 OA
ATOM     13  N   UNL     1       9.877  -2.118  24.127  0.00  0.00    -0.174 N 
ATOM     14  H   UNL     1      10.567  -1.944  24.837  0.00  0.00    +0.254 HD
ATOM     15  C   UNL     1       7.215  -5.196  26.454  0.00  0.00    +0.048 A 
ATOM     16  C   UNL     1       7.289  -4.133  22.807  0.00  0.00    +0.229 C 
ATOM     17  C   UNL     1       6.069  -5.986  26.514  0.00  0.00    +0.025 A 
ENDROOT
TORSDOF 0
ENDMDL
MODEL 5
REMARK VINA RESULT:      -5.7      1.718      2.499
REMARK  Name = 
REMARK  0 active torsions:
REMARK  status: ('A' for Active; 'I' for Inactive)
REMARK                            x       y       z     vdW  Elec       q    Type
REMARK                         _______ _______ _______ _____ _____    ______ ____
ROOT
ATOM      1 CL   UNL     1       9.183   1.497  21.779  0.00  0.00    -0.082 Cl
ATOM      2  C   UNL     1       8.421   0.301  22.770  0.00  0.00    +0.060 A 
ATOM      3  C   UNL     1       9.028  -0.930  23.069  0.00  0.00    +0.069 A 
ATOM      4 CL   UNL     1      10.573  -1.337  22.391  0.00  0.00    -0.082 Cl
ATOM      5  C   UNL     1       8.380  -1.841  23.923  0.00  0.00    +0.046 A 
ATOM      6  C   UNL     1       7.094  -1.527  24.427  0.00  0.00    +0.149 A 
ATOM      7  N   UNL     1       6.394  -2.387  25.300  0.00  0.00    -0.076 NA
ATOM      8  C   UNL     1       7.100  -3.329  25.812  0.00  0.00    +0.380 C 
ATOM      9  N   UNL     1       8.406  -3.605  25.556  0.00  0.00    -0.210 N 
ATOM     10  C   UNL     1       8.810  -4.823  26.234  0.00  0.00    +0.302 C 
ATOM     11  C   UNL     1       7.547  -5.126  27.058  0.00  0.00    +0.307 C 
ATOM     12  O   UNL     1       7.413  -6.024  27.872  0.00  0.00    -0.254 OA
ATOM     13  N   UNL     1       6.598  -4.206  26.701  0.00  0.00    -0.174 N 
ATOM     14  H   UNL     1       5.662  -4.173  27.063  0.00  0.00    +0.254 HD
ATOM     15  C   UNL     1       6.497  -0.309  24.097  0.00  0.00    +0.048 A 
ATOM     16  C   UNL     1       8.992  -3.167  24.315  0.00  0.00    +0.229 C 
ATOM     17  C   UNL     1       7.161   0.608  23.285  0.00  0.00    +0.025 A 
ENDROOT
TORSDOF 0
ENDMDL
MODEL 6
REMARK VINA RESULT:      -5.7      1.274      1.597
REMARK  Name = 
REMARK  0 active torsions:
REMARK  status: ('A' for Active; 'I' for Inactive)
REMARK                            x       y       z     vdW  Elec       q    Type
REMARK                         _______ _______ _______ _____ _____    ______ ____
ROOT
ATOM      1 CL   UNL     1       8.269   3.800  22.618  0.00  0.00    -0.082 Cl
ATOM      2  C   UNL     1       8.744   2.160  22.895  0.00  0.00    +0.060 A 
ATOM      3  C   UNL     1       8.558   1.518  24.130  0.00  0.00    +0.069 A 
ATOM      4 CL   UNL     1       7.887   2.383  25.478  0.00  0.00    -0.082 Cl
ATOM      5  C   UNL     1       8.917   0.166  24.279  0.00  0.00    +0.046 A 
ATOM      6  C   UNL     1       9.517  -0.516  23.193  0.00  0.00    +0.149 A 
ATOM      7  N   UNL     1       9.889  -1.876  23.268  0.00  0.00    -0.076 NA
ATOM      8  C   UNL     1       9.409  -2.513  24.274  0.00  0.00    +0.380 C 
ATOM      9  N   UNL     1       8.647  -2.004  25.277  0.00  0.00    -0.210 N 
ATOM     10  C   UNL     1       8.407  -3.011  26.295  0.00  0.00    +0.302 C 
ATOM     11  C   UNL     1       9.036  -4.247  25.629  0.00  0.00    +0.307 C 
ATOM     12  O   UNL     1       9.020  -5.388  26.060  0.00  0.00    -0.254 OA
ATOM     13  N   UNL     1       9.627  -3.827  24.468  0.00  0.00    -0.174 N 
ATOM     14  H   UNL     1      10.135  -4.417  23.833  0.00  0.00    +0.254 HD
ATOM     15  C   UNL     1       9.718   0.146  21.982  0.00  0.00    +0.048 A 
ATOM     16  C   UNL     1       8.710  -0.595  25.569  0.00  0.00    +0.229 C 
ATOM     17  C   UNL     1       9.321   1.473  21.825  0.00  0.00    +0.025 A 
ENDROOT
TORSDOF 0
ENDMDL
MODEL 7
REMARK VINA RESULT:      -5.6      4.886      6.212
REMARK  Name = 
REMARK  0 active torsions:
REMARK  status: ('A' for Active; 'I' for Inactive)
REMARK                            x       y       z     vdW  Elec       q    Type
REMARK                         _______ _______ _______ _____ _____    ______ ____
ROOT
ATOM      1 CL   UNL     1       7.145  -3.383  23.110  0.00  0.00    -0.082 Cl
ATOM      2  C   UNL     1       7.960  -1.876  22.872  0.00  0.00    +0.060 A 
ATOM      3  C   UNL     1       7.510  -0.675  23.445  0.00  0.00    +0.069 A 
ATOM      4 CL   UNL     1       6.050  -0.642  24.385  0.00  0.00    -0.082 Cl
ATOM      5  C   UNL     1       8.244   0.510  23.257  0.00  0.00    +0.046 A 
ATOM      6  C   UNL     1       9.402   0.487  22.442  0.00  0.00    +0.149 A 
ATOM      7  N   UNL     1      10.194   1.635  22.223  0.00  0.00    -0.076 NA
ATOM      8  C   UNL     1       9.953   2.617  23.013  0.00  0.00    +0.380 C 
ATOM      9  N   UNL     1       8.995   2.677  23.976  0.00  0.00    -0.210 N 
ATOM     10  C   UNL     1       8.956   4.000  24.571  0.00  0.00    +0.302 C 
ATOM     11  C   UNL     1      10.169   4.658  23.891  0.00  0.00    +0.307 C 
ATOM     12  O   UNL     1      10.613   5.770  24.122  0.00  0.00    -0.254 OA
ATOM     13  N   UNL     1      10.651   3.767  22.971  0.00  0.00    -0.174 N 
ATOM     14  H   UNL     1      11.431   3.934  22.359  0.00  0.00    +0.254 HD
ATOM     15  C   UNL     1       9.818  -0.711  21.860  0.00  0.00    +0.048 A 
ATOM     16  C   UNL     1       7.836   1.828  23.875  0.00  0.00    +0.229 C 
ATOM     17  C   UNL     1       9.112  -1.891  22.084  0.00  0.00    +0.025 A 
ENDROOT
TORSDOF 0
ENDMDL
MODEL 8
REMARK VINA RESULT:      -5.6      3.908      5.729
REMARK  Name = 
REMARK  0 active torsions:
REMARK  status: ('A' for Active; 'I' for Inactive)
REMARK                            x       y       z     vdW  Elec       q    Type
REMARK                         _______ _______ _______ _____ _____    ______ ____
ROOT
ATOM      1 CL   UNL     1       5.075  -6.355  24.266  0.00  0.00    -0.082 Cl
ATOM      2  C   UNL     1       6.091  -5.045  24.763  0.00  0.00    +0.060 A 
ATOM      3  C   UNL     1       7.146  -4.566  23.970  0.00  0.00    +0.069 A 
ATOM      4 CL   UNL     1       7.523  -5.325  22.454  0.00  0.00    -0.082 Cl
ATOM      5  C   UNL     1       7.904  -3.464  24.405  0.00  0.00    +0.046 A 
ATOM      6  C   UNL     1       7.629  -2.886  25.668  0.00  0.00    +0.149 A 
ATOM      7  N   UNL     1       8.340  -1.771  26.160  0.00  0.00    -0.076 NA
ATOM      8  C   UNL     1       9.056  -1.158  25.288  0.00  0.00    +0.380 C 
ATOM      9  N   UNL     1       9.236  -1.507  23.986  0.00  0.00    -0.210 N 
ATOM     10  C   UNL     1      10.216  -0.638  23.359  0.00  0.00    +0.302 C 
ATOM     11  C   UNL     1      10.461   0.380  24.486  0.00  0.00    +0.307 C 
ATOM     12  O   UNL     1      11.159   1.378  24.420  0.00  0.00    -0.254 OA
ATOM     13  N   UNL     1       9.758  -0.048  25.580  0.00  0.00    -0.174 N 
ATOM     14  H   UNL     1       9.747   0.410  26.474  0.00  0.00    +0.254 HD
ATOM     15  C   UNL     1       6.593  -3.394  26.452  0.00  0.00    +0.048 A 
ATOM     16  C   UNL     1       9.030  -2.875  23.584  0.00  0.00    +0.229 C 
ATOM     17  C   UNL     1       5.816  -4.458  25.999  0.00  0.00    +0.025 A 
ENDROOT
TORSDOF 0
ENDMDL
MODEL 9
REMARK VINA RESULT:      -5.6      5.270      6.714
REMARK  Name = 
REMARK  0 active torsions:
REMARK  status: ('A' for Active; 'I' for Inactive)
REMARK                            x       y       z     vdW  Elec       q    Type
REMARK                         _______ _______ _______ _____ _____    ______ ____
ROOT
ATOM      1 CL   UNL     1      10.147  -2.642  23.731  0.00  0.00    -0.082 Cl
ATOM      2  C   UNL     1       9.616  -1.050  23.313  0.00  0.00    +0.060 A 
ATOM      3  C   UNL     1       9.330  -0.071  24.279  0.00  0.00    +0.069 A 
ATOM      4 CL   UNL     1       9.440  -0.447  25.971  0.00  0.00    -0.082 Cl
ATOM      5  C   UNL     1       8.952   1.222  23.876  0.00  0.00    +0.046 A 
ATOM      6  C   UNL     1       8.808   1.505  22.496  0.00  0.00    +0.149 A 
ATOM      7  N   UNL     1       8.446   2.784  22.020  0.00  0.00    -0.076 NA
ATOM      8  C   UNL     1       8.519   3.725  22.891  0.00  0.00    +0.380 C 
ATOM      9  N   UNL     1       8.845   3.601  24.204  0.00  0.00    -0.210 N 
ATOM     10  C   UNL     1       8.693   4.873  24.887  0.00  0.00    +0.302 C 
ATOM     11  C   UNL     1       8.369   5.799  23.702  0.00  0.00    +0.307 C 
ATOM     12  O   UNL     1       8.231   7.010  23.747  0.00  0.00    -0.254 OA
ATOM     13  N   UNL     1       8.255   5.010  22.589  0.00  0.00    -0.174 N 
ATOM     14  H   UNL     1       8.026   5.340  21.669  0.00  0.00    +0.254 HD
ATOM     15  C   UNL     1       9.072   0.512  21.552  0.00  0.00    +0.048 A 
ATOM     16  C   UNL     1       8.665   2.332  24.862  0.00  0.00    +0.229 C 
ATOM     17  C   UNL     1       9.488  -0.755  21.955  0.00  0.00    +0.025 A 
ENDROOT
TORSDOF 0
ENDMDL
