MODEL 1
REMARK VINA RESULT:      -7.9      0.000      0.000
REMARK  Name = 
REMARK  19 active torsions:
REMARK  status: ('A' for Active; 'I' for Inactive)
REMARK    1  A    between atoms: N_8  and  C_9
REMARK    2  A    between atoms: C_12  and  C_14
REMARK    3  A    between atoms: C_14  and  O_15
REMARK    4  A    between atoms: O_15  and  P_16
REMARK    5  A    between atoms: P_16  and  O_17
REMARK    6  A    between atoms: P_16  and  O_19
REMARK    7  A    between atoms: O_19  and  P_20
REMARK    8  A    between atoms: P_20  and  O_21
REMARK    9  A    between atoms: P_20  and  O_23
REMARK   10  A    between atoms: O_23  and  P_24
REMARK   11  A    between atoms: P_24  and  O_25
REMARK   12  A    between atoms: P_24  and  O_27
REMARK   13  A    between atoms: O_27  and  C_28
REMARK   14  A    between atoms: C_28  and  C_29
REMARK   15  A    between atoms: C_32  and  N_40
REMARK   16  A    between atoms: C_34  and  O_36
REMARK   17  A    between atoms: C_37  and  O_39
REMARK   18  A    between atoms: C_51  and  O_53
REMARK   19  A    between atoms: C_54  and  O_56
REMARK                            x       y       z     vdW  Elec       q    Type
REMARK                         _______ _______ _______ _____ _____    ______ ____
ROOT
ATOM      1  P   UNL     1       4.724  -2.342  26.782  0.00  0.00    +0.492 P 
ATOM      2  O   UNL     1       4.675  -2.404  25.259  0.00  0.00    -0.226 OA
ENDROOT
BRANCH   1   3
ATOM      3  O   UNL     1       3.699  -3.513  27.280  0.00  0.00    -0.302 OA
ATOM      4  H   UNL     1       3.334  -3.235  28.145  0.00  0.00    +0.222 HD
ENDBRANCH   1   3
BRANCH   1   5
ATOM      5  O   UNL     1       6.037  -3.468  26.780  0.00  0.00    -0.186 OA
BRANCH   5   6
ATOM      6  P   UNL     1       6.324  -4.958  27.251  0.00  0.00    +0.483 P 
ATOM      7  O   UNL     1       5.990  -5.234  28.681  0.00  0.00    -0.227 OA
BRANCH   6   8
ATOM      8  O   UNL     1       7.928  -4.880  27.118  0.00  0.00    -0.302 OA
ATOM      9  H   UNL     1       8.216  -3.978  27.354  0.00  0.00    +0.222 HD
ENDBRANCH   6   8
BRANCH   6  10
ATOM     10  O   UNL     1       6.080  -6.271  26.284  0.00  0.00    -0.284 OA
BRANCH  10  11
ATOM     11  C   UNL     1       5.775  -5.822  24.918  0.00  0.00    +0.206 C 
BRANCH  11  12
ATOM     12  C   UNL     1       6.785  -5.550  23.768  0.00  0.00    +0.178 C 
ATOM     13  C   UNL     1       6.242  -5.181  22.389  0.00  0.00    +0.178 C 
ATOM     14  C   UNL     1       6.502  -3.689  22.261  0.00  0.00    +0.195 C 
ATOM     15  C   UNL     1       7.216  -3.315  23.569  0.00  0.00    +0.253 C 
ATOM     16  O   UNL     1       7.732  -4.536  24.119  0.00  0.00    -0.346 OA
BRANCH  15  17
ATOM     17  N   UNL     1       8.294  -2.356  23.430  0.00  0.00    -0.285 N 
ATOM     18  C   UNL     1       8.735  -1.490  24.394  0.00  0.00    +0.171 A 
ATOM     19  N   UNL     1       8.183  -1.293  25.617  0.00  0.00    -0.196 NA
ATOM     20  C   UNL     1       8.809  -0.386  26.320  0.00  0.00    +0.195 A 
ATOM     21  N   UNL     1       9.929   0.293  25.884  0.00  0.00    -0.293 N 
ATOM     22  H   UNL     1      10.394   0.948  26.487  0.00  0.00    +0.172 HD
ATOM     23  C   UNL     1      10.535   0.105  24.647  0.00  0.00    +0.280 A 
ATOM     24  O   UNL     1      11.548   0.719  24.324  0.00  0.00    -0.265 OA
ATOM     25  N   UNL     1       8.353  -0.052  27.552  0.00  0.00    -0.329 N 
ATOM     26  H   UNL     1       8.523   0.894  27.872  0.00  0.00    +0.145 HD
ATOM     27  H   UNL     1       7.404  -0.362  27.734  0.00  0.00    +0.145 HD
ATOM     28  C   UNL     1       9.839  -0.877  23.846  0.00  0.00    +0.172 A 
ATOM     29  N   UNL     1      10.096  -1.345  22.583  0.00  0.00    -0.229 NA
ATOM     30  C   UNL     1       9.155  -2.243  22.367  0.00  0.00    +0.203 A 
ENDBRANCH  15  17
BRANCH  14  31
ATOM     31  O   UNL     1       5.269  -2.978  22.127  0.00  0.00    -0.385 OA
ATOM     32  H   UNL     1       4.664  -3.598  21.668  0.00  0.00    +0.210 HD
ENDBRANCH  14  31
BRANCH  13  33
ATOM     33  O   UNL     1       6.998  -5.873  21.367  0.00  0.00    -0.386 OA
ATOM     34  H   UNL     1       6.554  -6.711  21.142  0.00  0.00    +0.210 HD
ENDBRANCH  13  33
ENDBRANCH  11  12
ENDBRANCH  10  11
ENDBRANCH   6  10
ENDBRANCH   5   6
ENDBRANCH   1   5
BRANCH   1  35
ATOM     35  O   UNL     1       3.410  -1.216  26.784  0.00  0.00    -0.186 OA
BRANCH  35  36
ATOM     36  P   UNL     1       3.596  -0.116  28.106  0.00  0.00    +0.483 P 
ATOM     37  O   UNL     1       3.911  -1.243  29.085  0.00  0.00    -0.227 OA
BRANCH  36  38
ATOM     38  O   UNL     1       3.780   0.984  29.428  0.00  0.00    -0.302 OA
ATOM     39  H   UNL     1       4.693   0.801  29.739  0.00  0.00    +0.222 HD
ENDBRANCH  36  38
BRANCH  36  40
ATOM     40  O   UNL     1       5.028   0.406  27.505  0.00  0.00    -0.284 OA
BRANCH  40  41
ATOM     41  C   UNL     1       5.216   1.807  27.444  0.00  0.00    +0.206 C 
BRANCH  41  45
ATOM     42  C   UNL     1       5.705   3.760  24.411  0.00  0.00    +0.253 C 
ATOM     43  C   UNL     1       5.135   2.477  23.772  0.00  0.00    +0.195 C 
ATOM     44  C   UNL     1       5.147   1.440  24.907  0.00  0.00    +0.178 C 
ATOM     45  C   UNL     1       5.754   2.206  26.082  0.00  0.00    +0.178 C 
ATOM     46  O   UNL     1       5.459   3.590  25.831  0.00  0.00    -0.346 OA
BRANCH  42  58
ATOM     47  N   UNL     1       8.918   1.161  21.034  0.00  0.00    -0.329 N 
ATOM     48  H   UNL     1       9.613   1.171  20.298  0.00  0.00    +0.145 HD
ATOM     49  H   UNL     1       7.971   0.984  20.702  0.00  0.00    +0.145 HD
ATOM     50  C   UNL     1       8.972   2.143  21.966  0.00  0.00    +0.195 A 
ATOM     51  N   UNL     1      10.222   2.639  22.271  0.00  0.00    -0.293 N 
ATOM     52  H   UNL     1      11.040   2.239  21.845  0.00  0.00    +0.172 HD
ATOM     53  C   UNL     1      10.475   3.612  23.220  0.00  0.00    +0.280 A 
ATOM     54  O   UNL     1      11.609   3.993  23.485  0.00  0.00    -0.265 OA
ATOM     55  C   UNL     1       9.248   4.084  23.840  0.00  0.00    +0.172 A 
ATOM     56  N   UNL     1       9.075   4.977  24.869  0.00  0.00    -0.229 NA
ATOM     57  C   UNL     1       7.776   4.952  25.105  0.00  0.00    +0.203 A 
ATOM     58  N   UNL     1       7.113   4.085  24.262  0.00  0.00    -0.285 N 
ATOM     59  C   UNL     1       8.061   3.526  23.448  0.00  0.00    +0.171 A 
ATOM     60  N   UNL     1       7.869   2.572  22.522  0.00  0.00    -0.196 NA
ENDBRANCH  42  58
BRANCH  44  61
ATOM     61  O   UNL     1       5.901   0.281  24.575  0.00  0.00    -0.386 OA
ATOM     62  H   UNL     1       5.350  -0.496  24.786  0.00  0.00    +0.210 HD
ENDBRANCH  44  61
BRANCH  43  63
ATOM     63  O   UNL     1       3.764   2.711  23.364  0.00  0.00    -0.385 OA
ATOM     64  H   UNL     1       3.274   3.078  24.122  0.00  0.00    +0.210 HD
ENDBRANCH  43  63
ENDBRANCH  41  45
ENDBRANCH  40  41
ENDBRANCH  36  40
ENDBRANCH  35  36
ENDBRANCH   1  35
TORSDOF 19
ENDMDL
MODEL 2
REMARK VINA RESULT:      -7.3      3.034      4.546
REMARK  Name = 
REMARK  19 active torsions:
REMARK  status: ('A' for Active; 'I' for Inactive)
REMARK    1  A    between atoms: N_8  and  C_9
REMARK    2  A    between atoms: C_12  and  C_14
REMARK    3  A    between atoms: C_14  and  O_15
REMARK    4  A    between atoms: O_15  and  P_16
REMARK    5  A    between atoms: P_16  and  O_17
REMARK    6  A    between atoms: P_16  and  O_19
REMARK    7  A    between atoms: O_19  and  P_20
REMARK    8  A    between atoms: P_20  and  O_21
REMARK    9  A    between atoms: P_20  and  O_23
REMARK   10  A    between atoms: O_23  and  P_24
REMARK   11  A    between atoms: P_24  and  O_25
REMARK   12  A    between atoms: P_24  and  O_27
REMARK   13  A    between atoms: O_27  and  C_28
REMARK   14  A    between atoms: C_28  and  C_29
REMARK   15  A    between atoms: C_32  and  N_40
REMARK   16  A    between atoms: C_34  and  O_36
REMARK   17  A    between atoms: C_37  and  O_39
REMARK   18  A    between atoms: C_51  and  O_53
REMARK   19  A    between atoms: C_54  and  O_56
REMARK                            x       y       z     vdW  Elec       q    Type
REMARK                         _______ _______ _______ _____ _____    ______ ____
ROOT
ATOM      1  P   UNL     1       2.856  -4.413  28.361  0.00  0.00    +0.492 P 
ATOM      2  O   UNL     1       4.097  -5.117  28.900  0.00  0.00    -0.226 OA
ENDROOT
BRANCH   1   3
ATOM      3  O   UNL     1       2.873  -4.711  26.755  0.00  0.00    -0.302 OA
ATOM      4  H   UNL     1       3.022  -5.671  26.636  0.00  0.00    +0.222 HD
ENDBRANCH   1   3
BRANCH   1   5
ATOM      5  O   UNL     1       1.929  -5.847  28.635  0.00  0.00    -0.186 OA
BRANCH   5   6
ATOM      6  P   UNL     1       1.540  -7.176  27.856  0.00  0.00    +0.483 P 
ATOM      7  O   UNL     1       1.075  -8.296  28.731  0.00  0.00    -0.227 OA
BRANCH   6   8
ATOM      8  O   UNL     1       3.028  -7.525  27.346  0.00  0.00    -0.302 OA
ATOM      9  H   UNL     1       3.595  -6.744  27.485  0.00  0.00    +0.222 HD
ENDBRANCH   6   8
BRANCH   6  10
ATOM     10  O   UNL     1       0.791  -7.174  26.388  0.00  0.00    -0.284 OA
BRANCH  10  11
ATOM     11  C   UNL     1       1.244  -8.335  25.607  0.00  0.00    +0.206 C 
BRANCH  11  12
ATOM     12  C   UNL     1       2.077  -8.320  24.295  0.00  0.00    +0.178 C 
ATOM     13  C   UNL     1       1.503  -7.609  23.071  0.00  0.00    +0.178 C 
ATOM     14  C   UNL     1       2.299  -6.317  22.970  0.00  0.00    +0.195 C 
ATOM     15  C   UNL     1       3.306  -6.401  24.127  0.00  0.00    +0.253 C 
ATOM     16  O   UNL     1       3.389  -7.784  24.501  0.00  0.00    -0.346 OA
BRANCH  15  17
ATOM     17  N   UNL     1       4.634  -5.904  23.826  0.00  0.00    -0.285 N 
ATOM     18  C   UNL     1       5.669  -5.775  24.711  0.00  0.00    +0.171 A 
ATOM     19  N   UNL     1       5.619  -5.986  26.050  0.00  0.00    -0.196 NA
ATOM     20  C   UNL     1       6.761  -5.765  26.646  0.00  0.00    +0.195 A 
ATOM     21  N   UNL     1       7.913  -5.378  25.990  0.00  0.00    -0.293 N 
ATOM     22  H   UNL     1       8.773  -5.266  26.496  0.00  0.00    +0.172 HD
ATOM     23  C   UNL     1       8.009  -5.170  24.619  0.00  0.00    +0.280 A 
ATOM     24  O   UNL     1       9.069  -4.853  24.087  0.00  0.00    -0.265 OA
ATOM     25  N   UNL     1       6.860  -5.899  27.991  0.00  0.00    -0.329 N 
ATOM     26  H   UNL     1       7.538  -5.320  28.469  0.00  0.00    +0.145 HD
ATOM     27  H   UNL     1       5.962  -5.923  28.465  0.00  0.00    +0.145 HD
ATOM     28  C   UNL     1       6.747  -5.385  23.947  0.00  0.00    +0.172 A 
ATOM     29  N   UNL     1       6.410  -5.282  22.623  0.00  0.00    -0.229 NA
ATOM     30  C   UNL     1       5.134  -5.612  22.580  0.00  0.00    +0.203 A 
ENDBRANCH  15  17
BRANCH  14  31
ATOM     31  O   UNL     1       1.437  -5.187  23.119  0.00  0.00    -0.385 OA
ATOM     32  H   UNL     1       0.715  -5.328  22.470  0.00  0.00    +0.210 HD
ENDBRANCH  14  31
BRANCH  13  33
ATOM     33  O   UNL     1       1.752  -8.401  21.886  0.00  0.00    -0.386 OA
ATOM     34  H   UNL     1       2.617  -8.844  21.963  0.00  0.00    +0.210 HD
ENDBRANCH  13  33
ENDBRANCH  11  12
ENDBRANCH  10  11
ENDBRANCH   6  10
ENDBRANCH   5   6
ENDBRANCH   1   5
BRANCH   1  35
ATOM     35  O   UNL     1       3.784  -2.978  28.086  0.00  0.00    -0.186 OA
BRANCH  35  36
ATOM     36  P   UNL     1       4.010  -2.755  26.386  0.00  0.00    +0.483 P 
ATOM     37  O   UNL     1       2.978  -1.633  26.330  0.00  0.00    -0.227 OA
BRANCH  36  38
ATOM     38  O   UNL     1       4.237  -2.532  24.686  0.00  0.00    -0.302 OA
ATOM     39  H   UNL     1       5.133  -2.134  24.635  0.00  0.00    +0.222 HD
ENDBRANCH  36  38
BRANCH  36  40
ATOM     40  O   UNL     1       5.466  -2.048  26.646  0.00  0.00    -0.284 OA
BRANCH  40  41
ATOM     41  C   UNL     1       5.595  -0.698  26.241  0.00  0.00    +0.206 C 
BRANCH  41  45
ATOM     42  C   UNL     1       7.767  -0.046  23.394  0.00  0.00    +0.253 C 
ATOM     43  C   UNL     1       8.214  -1.490  23.701  0.00  0.00    +0.195 C 
ATOM     44  C   UNL     1       7.587  -1.806  25.070  0.00  0.00    +0.178 C 
ATOM     45  C   UNL     1       6.870  -0.509  25.441  0.00  0.00    +0.178 C 
ATOM     46  O   UNL     1       6.568   0.133  24.192  0.00  0.00    -0.346 OA
BRANCH  42  58
ATOM     47  N   UNL     1       6.545   5.002  22.163  0.00  0.00    -0.329 N 
ATOM     48  H   UNL     1       6.459   5.975  22.428  0.00  0.00    +0.145 HD
ATOM     49  H   UNL     1       5.660   4.497  22.162  0.00  0.00    +0.145 HD
ATOM     50  C   UNL     1       7.555   4.285  22.712  0.00  0.00    +0.195 A 
ATOM     51  N   UNL     1       8.714   4.974  23.006  0.00  0.00    -0.293 N 
ATOM     52  H   UNL     1       8.795   5.947  22.769  0.00  0.00    +0.172 HD
ATOM     53  C   UNL     1       9.858   4.404  23.532  0.00  0.00    +0.280 A 
ATOM     54  O   UNL     1      10.878   5.050  23.741  0.00  0.00    -0.265 OA
ATOM     55  C   UNL     1       9.682   2.983  23.778  0.00  0.00    +0.172 A 
ATOM     56  N   UNL     1      10.591   2.050  24.216  0.00  0.00    -0.229 NA
ATOM     57  C   UNL     1       9.939   0.905  24.151  0.00  0.00    +0.203 A 
ATOM     58  N   UNL     1       8.647   1.070  23.698  0.00  0.00    -0.285 N 
ATOM     59  C   UNL     1       8.482   2.408  23.457  0.00  0.00    +0.171 A 
ATOM     60  N   UNL     1       7.399   3.006  22.937  0.00  0.00    -0.196 NA
ENDBRANCH  42  58
BRANCH  44  61
ATOM     61  O   UNL     1       8.561  -2.179  26.038  0.00  0.00    -0.386 OA
ATOM     62  H   UNL     1       8.426  -1.612  26.820  0.00  0.00    +0.210 HD
ENDBRANCH  44  61
BRANCH  43  63
ATOM     63  O   UNL     1       7.656  -2.388  22.710  0.00  0.00    -0.385 OA
ATOM     64  H   UNL     1       8.239  -2.388  21.930  0.00  0.00    +0.210 HD
ENDBRANCH  43  63
ENDBRANCH  41  45
ENDBRANCH  40  41
ENDBRANCH  36  40
ENDBRANCH  35  36
ENDBRANCH   1  35
TORSDOF 19
ENDMDL
MODEL 3
REMARK VINA RESULT:      -7.3      3.487      8.837
REMARK  Name = 
REMARK  19 active torsions:
REMARK  status: ('A' for Active; 'I' for Inactive)
REMARK    1  A    between atoms: N_8  and  C_9
REMARK    2  A    between atoms: C_12  and  C_14
REMARK    3  A    between atoms: C_14  and  O_15
REMARK    4  A    between atoms: O_15  and  P_16
REMARK    5  A    between atoms: P_16  and  O_17
REMARK    6  A    between atoms: P_16  and  O_19
REMARK    7  A    between atoms: O_19  and  P_20
REMARK    8  A    between atoms: P_20  and  O_21
REMARK    9  A    between atoms: P_20  and  O_23
REMARK   10  A    between atoms: O_23  and  P_24
REMARK   11  A    between atoms: P_24  and  O_25
REMARK   12  A    between atoms: P_24  and  O_27
REMARK   13  A    between atoms: O_27  and  C_28
REMARK   14  A    between atoms: C_28  and  C_29
REMARK   15  A    between atoms: C_32  and  N_40
REMARK   16  A    between atoms: C_34  and  O_36
REMARK   17  A    between atoms: C_37  and  O_39
REMARK   18  A    between atoms: C_51  and  O_53
REMARK   19  A    between atoms: C_54  and  O_56
REMARK                            x       y       z     vdW  Elec       q    Type
REMARK                         _______ _______ _______ _____ _____    ______ ____
ROOT
ATOM      1  P   UNL     1       9.065   1.186  22.283  0.00  0.00    +0.492 P 
ATOM      2  O   UNL     1       7.876   1.167  21.328  0.00  0.00    -0.226 OA
ENDROOT
BRANCH   1   3
ATOM      3  O   UNL     1      10.184   2.114  21.537  0.00  0.00    -0.302 OA
ATOM      4  H   UNL     1      10.222   1.833  20.601  0.00  0.00    +0.222 HD
ENDBRANCH   1   3
BRANCH   1   5
ATOM      5  O   UNL     1       8.406   2.579  23.068  0.00  0.00    -0.186 OA
BRANCH   5   6
ATOM      6  P   UNL     1       8.888   3.721  24.062  0.00  0.00    +0.483 P 
ATOM      7  O   UNL     1      10.278   4.214  23.816  0.00  0.00    -0.227 OA
BRANCH   6   8
ATOM      8  O   UNL     1       8.911   2.804  25.387  0.00  0.00    -0.302 OA
ATOM      9  H   UNL     1       8.170   3.071  25.963  0.00  0.00    +0.222 HD
ENDBRANCH   6   8
BRANCH   6  10
ATOM     10  O   UNL     1       7.891   4.907  24.625  0.00  0.00    -0.284 OA
BRANCH  10  11
ATOM     11  C   UNL     1       7.178   4.422  25.816  0.00  0.00    +0.206 C 
BRANCH  11  12
ATOM     12  C   UNL     1       5.707   3.926  25.896  0.00  0.00    +0.178 C 
ATOM     13  C   UNL     1       4.937   3.704  24.596  0.00  0.00    +0.178 C 
ATOM     14  C   UNL     1       4.884   2.194  24.434  0.00  0.00    +0.195 C 
ATOM     15  C   UNL     1       5.597   1.653  25.683  0.00  0.00    +0.253 C 
ATOM     16  O   UNL     1       5.593   2.713  26.650  0.00  0.00    -0.346 OA
BRANCH  15  17
ATOM     17  N   UNL     1       5.003   0.467  26.267  0.00  0.00    -0.285 N 
ATOM     18  C   UNL     1       5.640  -0.718  26.516  0.00  0.00    +0.171 A 
ATOM     19  N   UNL     1       6.911  -1.041  26.169  0.00  0.00    -0.196 NA
ATOM     20  C   UNL     1       7.245  -2.255  26.521  0.00  0.00    +0.195 A 
ATOM     21  N   UNL     1       6.408  -3.121  27.195  0.00  0.00    -0.293 N 
ATOM     22  H   UNL     1       6.735  -4.027  27.479  0.00  0.00    +0.172 HD
ATOM     23  C   UNL     1       5.108  -2.822  27.584  0.00  0.00    +0.280 A 
ATOM     24  O   UNL     1       4.418  -3.625  28.206  0.00  0.00    -0.265 OA
ATOM     25  N   UNL     1       8.474  -2.735  26.212  0.00  0.00    -0.329 N 
ATOM     26  H   UNL     1       8.561  -3.732  26.064  0.00  0.00    +0.145 HD
ATOM     27  H   UNL     1       8.958  -2.190  25.505  0.00  0.00    +0.145 HD
ATOM     28  C   UNL     1       4.713  -1.490  27.179  0.00  0.00    +0.172 A 
ATOM     29  N   UNL     1       3.533  -0.815  27.355  0.00  0.00    -0.229 NA
ATOM     30  C   UNL     1       3.744   0.365  26.805  0.00  0.00    +0.203 A 
ENDBRANCH  15  17
BRANCH  14  31
ATOM     31  O   UNL     1       5.563   1.795  23.241  0.00  0.00    -0.385 OA
ATOM     32  H   UNL     1       6.174   1.081  23.521  0.00  0.00    +0.210 HD
ENDBRANCH  14  31
BRANCH  13  33
ATOM     33  O   UNL     1       3.587   4.204  24.739  0.00  0.00    -0.386 OA
ATOM     34  H   UNL     1       3.101   4.079  23.903  0.00  0.00    +0.210 HD
ENDBRANCH  13  33
ENDBRANCH  11  12
ENDBRANCH  10  11
ENDBRANCH   6  10
ENDBRANCH   5   6
ENDBRANCH   1   5
BRANCH   1  35
ATOM     35  O   UNL     1       9.724  -0.208  21.498  0.00  0.00    -0.186 OA
BRANCH  35  36
ATOM     36  P   UNL     1       9.815  -1.517  22.625  0.00  0.00    +0.483 P 
ATOM     37  O   UNL     1       9.425  -0.619  23.796  0.00  0.00    -0.227 OA
BRANCH  36  38
ATOM     38  O   UNL     1       9.906  -2.824  23.753  0.00  0.00    -0.302 OA
ATOM     39  H   UNL     1      10.420  -3.501  23.262  0.00  0.00    +0.222 HD
ENDBRANCH  36  38
BRANCH  36  40
ATOM     40  O   UNL     1       8.426  -2.156  22.035  0.00  0.00    -0.284 OA
BRANCH  40  41
ATOM     41  C   UNL     1       7.281  -2.051  22.859  0.00  0.00    +0.206 C 
BRANCH  41  45
ATOM     42  C   UNL     1       6.600  -5.500  23.806  0.00  0.00    +0.253 C 
ATOM     43  C   UNL     1       6.728  -5.698  22.282  0.00  0.00    +0.195 C 
ATOM     44  C   UNL     1       6.730  -4.273  21.704  0.00  0.00    +0.178 C 
ATOM     45  C   UNL     1       6.567  -3.388  22.940  0.00  0.00    +0.178 C 
ATOM     46  O   UNL     1       7.098  -4.155  24.033  0.00  0.00    -0.346 OA
BRANCH  42  58
ATOM     47  N   UNL     1       5.948  -7.299  28.789  0.00  0.00    -0.329 N 
ATOM     48  H   UNL     1       5.559  -7.194  29.717  0.00  0.00    +0.145 HD
ATOM     49  H   UNL     1       6.928  -7.030  28.720  0.00  0.00    +0.145 HD
ATOM     50  C   UNL     1       5.209  -6.857  27.742  0.00  0.00    +0.195 A 
ATOM     51  N   UNL     1       3.838  -6.933  27.876  0.00  0.00    -0.293 N 
ATOM     52  H   UNL     1       3.435  -7.345  28.699  0.00  0.00    +0.172 HD
ATOM     53  C   UNL     1       2.929  -6.565  26.901  0.00  0.00    +0.280 A 
ATOM     54  O   UNL     1       1.720  -6.687  27.052  0.00  0.00    -0.265 OA
ATOM     55  C   UNL     1       3.595  -6.048  25.718  0.00  0.00    +0.172 A 
ATOM     56  N   UNL     1       3.062  -5.654  24.515  0.00  0.00    -0.229 NA
ATOM     57  C   UNL     1       4.115  -5.384  23.765  0.00  0.00    +0.203 A 
ATOM     58  N   UNL     1       5.298  -5.581  24.445  0.00  0.00    -0.285 N 
ATOM     59  C   UNL     1       4.963  -6.009  25.703  0.00  0.00    +0.171 A 
ATOM     60  N   UNL     1       5.806  -6.388  26.677  0.00  0.00    -0.196 NA
ENDBRANCH  42  58
BRANCH  44  61
ATOM     61  O   UNL     1       5.688  -4.070  20.757  0.00  0.00    -0.386 OA
ATOM     62  H   UNL     1       5.635  -3.111  20.583  0.00  0.00    +0.210 HD
ENDBRANCH  44  61
BRANCH  43  63
ATOM     63  O   UNL     1       7.998  -6.328  21.983  0.00  0.00    -0.385 OA
ATOM     64  H   UNL     1       8.075  -6.426  21.017  0.00  0.00    +0.210 HD
ENDBRANCH  43  63
ENDBRANCH  41  45
ENDBRANCH  40  41
ENDBRANCH  36  40
ENDBRANCH  35  36
ENDBRANCH   1  35
TORSDOF 19
ENDMDL
MODEL 4
REMARK VINA RESULT:      -7.2      2.694      5.684
REMARK  Name = 
REMARK  19 active torsions:
REMARK  status: ('A' for Active; 'I' for Inactive)
REMARK    1  A    between atoms: N_8  and  C_9
REMARK    2  A    between atoms: C_12  and  C_14
REMARK    3  A    between atoms: C_14  and  O_15
REMARK    4  A    between atoms: O_15  and  P_16
REMARK    5  A    between atoms: P_16  and  O_17
REMARK    6  A    between atoms: P_16  and  O_19
REMARK    7  A    between atoms: O_19  and  P_20
REMARK    8  A    between atoms: P_20  and  O_21
REMARK    9  A    between atoms: P_20  and  O_23
REMARK   10  A    between atoms: O_23  and  P_24
REMARK   11  A    between atoms: P_24  and  O_25
REMARK   12  A    between atoms: P_24  and  O_27
REMARK   13  A    between atoms: O_27  and  C_28
REMARK   14  A    between atoms: C_28  and  C_29
REMARK   15  A    between atoms: C_32  and  N_40
REMARK   16  A    between atoms: C_34  and  O_36
REMARK   17  A    between atoms: C_37  and  O_39
REMARK   18  A    between atoms: C_51  and  O_53
REMARK   19  A    between atoms: C_54  and  O_56
REMARK                            x       y       z     vdW  Elec       q    Type
REMARK                         _______ _______ _______ _____ _____    ______ ____
ROOT
ATOM      1  P   UNL     1       6.035  -4.761  22.412  0.00  0.00    +0.492 P 
ATOM      2  O   UNL     1       5.299  -3.437  22.230  0.00  0.00    -0.226 OA
ENDROOT
BRANCH   1   3
ATOM      3  O   UNL     1       6.076  -4.996  24.028  0.00  0.00    -0.302 OA
ATOM      4  H   UNL     1       5.156  -4.937  24.356  0.00  0.00    +0.222 HD
ENDBRANCH   1   3
BRANCH   1   5
ATOM      5  O   UNL     1       4.529  -5.606  22.308  0.00  0.00    -0.186 OA
BRANCH   5   6
ATOM      6  P   UNL     1       3.520  -6.357  23.279  0.00  0.00    +0.483 P 
ATOM      7  O   UNL     1       2.258  -6.820  22.626  0.00  0.00    -0.227 OA
BRANCH   6   8
ATOM      8  O   UNL     1       3.170  -5.078  24.194  0.00  0.00    -0.302 OA
ATOM      9  H   UNL     1       4.004  -4.692  24.523  0.00  0.00    +0.222 HD
ENDBRANCH   6   8
BRANCH   6  10
ATOM     10  O   UNL     1       4.012  -7.369  24.483  0.00  0.00    -0.284 OA
BRANCH  10  11
ATOM     11  C   UNL     1       3.075  -7.277  25.613  0.00  0.00    +0.206 C 
BRANCH  11  12
ATOM     12  C   UNL     1       3.367  -6.727  27.037  0.00  0.00    +0.178 C 
ATOM     13  C   UNL     1       4.707  -7.062  27.690  0.00  0.00    +0.178 C 
ATOM     14  C   UNL     1       5.510  -5.774  27.600  0.00  0.00    +0.195 C 
ATOM     15  C   UNL     1       4.552  -4.776  26.933  0.00  0.00    +0.253 C 
ATOM     16  O   UNL     1       3.228  -5.303  27.098  0.00  0.00    -0.346 OA
BRANCH  15  17
ATOM     17  N   UNL     1       4.601  -3.427  27.462  0.00  0.00    -0.285 N 
ATOM     18  C   UNL     1       4.906  -2.293  26.759  0.00  0.00    +0.171 A 
ATOM     19  N   UNL     1       5.319  -2.229  25.468  0.00  0.00    -0.196 NA
ATOM     20  C   UNL     1       5.557  -1.008  25.067  0.00  0.00    +0.195 A 
ATOM     21  N   UNL     1       5.387   0.111  25.858  0.00  0.00    -0.293 N 
ATOM     22  H   UNL     1       5.543   1.029  25.480  0.00  0.00    +0.172 HD
ATOM     23  C   UNL     1       4.949   0.088  27.176  0.00  0.00    +0.280 A 
ATOM     24  O   UNL     1       4.791   1.120  27.822  0.00  0.00    -0.265 OA
ATOM     25  N   UNL     1       6.011  -0.785  23.810  0.00  0.00    -0.329 N 
ATOM     26  H   UNL     1       6.599   0.026  23.664  0.00  0.00    +0.145 HD
ATOM     27  H   UNL     1       6.370  -1.617  23.353  0.00  0.00    +0.145 HD
ATOM     28  C   UNL     1       4.707  -1.258  27.644  0.00  0.00    +0.172 A 
ATOM     29  N   UNL     1       4.279  -1.718  28.863  0.00  0.00    -0.229 NA
ATOM     30  C   UNL     1       4.215  -3.027  28.717  0.00  0.00    +0.203 A 
ENDBRANCH  15  17
BRANCH  14  31
ATOM     31  O   UNL     1       6.682  -5.972  26.806  0.00  0.00    -0.385 OA
ATOM     32  H   UNL     1       6.996  -6.873  27.032  0.00  0.00    +0.210 HD
ENDBRANCH  14  31
BRANCH  13  33
ATOM     33  O   UNL     1       4.500  -7.384  29.086  0.00  0.00    -0.386 OA
ATOM     34  H   UNL     1       4.603  -8.344  29.220  0.00  0.00    +0.210 HD
ENDBRANCH  13  33
ENDBRANCH  11  12
ENDBRANCH  10  11
ENDBRANCH   6  10
ENDBRANCH   5   6
ENDBRANCH   1   5
BRANCH   1  35
ATOM     35  O   UNL     1       7.541  -3.915  22.515  0.00  0.00    -0.186 OA
BRANCH  35  36
ATOM     36  P   UNL     1       8.232  -4.158  24.083  0.00  0.00    +0.483 P 
ATOM     37  O   UNL     1       8.704  -5.564  23.728  0.00  0.00    -0.227 OA
BRANCH  36  38
ATOM     38  O   UNL     1       8.922  -4.400  25.650  0.00  0.00    -0.302 OA
ATOM     39  H   UNL     1       8.425  -5.176  25.990  0.00  0.00    +0.222 HD
ENDBRANCH  36  38
BRANCH  36  40
ATOM     40  O   UNL     1       9.465  -3.139  23.725  0.00  0.00    -0.284 OA
BRANCH  40  41
ATOM     41  C   UNL     1       9.225  -2.191  22.702  0.00  0.00    +0.206 C 
BRANCH  41  45
ATOM     42  C   UNL     1       9.961   1.344  23.171  0.00  0.00    +0.253 C 
ATOM     43  C   UNL     1      10.422   0.825  24.548  0.00  0.00    +0.195 C 
ATOM     44  C   UNL     1       9.903  -0.621  24.612  0.00  0.00    +0.178 C 
ATOM     45  C   UNL     1       9.162  -0.792  23.286  0.00  0.00    +0.178 C 
ATOM     46  O   UNL     1       9.777   0.139  22.381  0.00  0.00    -0.346 OA
BRANCH  42  58
ATOM     47  N   UNL     1       7.238   3.079  27.420  0.00  0.00    -0.329 N 
ATOM     48  H   UNL     1       6.770   3.825  27.919  0.00  0.00    +0.145 HD
ATOM     49  H   UNL     1       8.180   2.886  27.758  0.00  0.00    +0.145 HD
ATOM     50  C   UNL     1       7.157   3.078  26.067  0.00  0.00    +0.195 A 
ATOM     51  N   UNL     1       6.001   3.593  25.517  0.00  0.00    -0.293 N 
ATOM     52  H   UNL     1       5.253   3.900  26.112  0.00  0.00    +0.172 HD
ATOM     53  C   UNL     1       5.726   3.638  24.162  0.00  0.00    +0.280 A 
ATOM     54  O   UNL     1       4.667   4.070  23.722  0.00  0.00    -0.265 OA
ATOM     55  C   UNL     1       6.826   3.108  23.376  0.00  0.00    +0.172 A 
ATOM     56  N   UNL     1       6.917   2.908  22.020  0.00  0.00    -0.229 NA
ATOM     57  C   UNL     1       8.078   2.302  21.857  0.00  0.00    +0.203 A 
ATOM     58  N   UNL     1       8.737   2.116  23.054  0.00  0.00    -0.285 N 
ATOM     59  C   UNL     1       7.930   2.635  24.032  0.00  0.00    +0.171 A 
ATOM     60  N   UNL     1       8.147   2.605  25.356  0.00  0.00    -0.196 NA
ENDBRANCH  42  58
BRANCH  44  61
ATOM     61  O   UNL     1       9.056  -0.844  25.733  0.00  0.00    -0.386 OA
ATOM     62  H   UNL     1       8.879  -1.803  25.779  0.00  0.00    +0.210 HD
ENDBRANCH  44  61
BRANCH  43  63
ATOM     63  O   UNL     1      11.870   0.807  24.596  0.00  0.00    -0.385 OA
ATOM     64  H   UNL     1      12.167   1.486  25.228  0.00  0.00    +0.210 HD
ENDBRANCH  43  63
ENDBRANCH  41  45
ENDBRANCH  40  41
ENDBRANCH  36  40
ENDBRANCH  35  36
ENDBRANCH   1  35
TORSDOF 19
ENDMDL
MODEL 5
REMARK VINA RESULT:      -7.2      2.431      7.546
REMARK  Name = 
REMARK  19 active torsions:
REMARK  status: ('A' for Active; 'I' for Inactive)
REMARK    1  A    between atoms: N_8  and  C_9
REMARK    2  A    between atoms: C_12  and  C_14
REMARK    3  A    between atoms: C_14  and  O_15
REMARK    4  A    between atoms: O_15  and  P_16
REMARK    5  A    between atoms: P_16  and  O_17
REMARK    6  A    between atoms: P_16  and  O_19
REMARK    7  A    between atoms: O_19  and  P_20
REMARK    8  A    between atoms: P_20  and  O_21
REMARK    9  A    between atoms: P_20  and  O_23
REMARK   10  A    between atoms: O_23  and  P_24
REMARK   11  A    between atoms: P_24  and  O_25
REMARK   12  A    between atoms: P_24  and  O_27
REMARK   13  A    between atoms: O_27  and  C_28
REMARK   14  A    between atoms: C_28  and  C_29
REMARK   15  A    between atoms: C_32  and  N_40
REMARK   16  A    between atoms: C_34  and  O_36
REMARK   17  A    between atoms: C_37  and  O_39
REMARK   18  A    between atoms: C_51  and  O_53
REMARK   19  A    between atoms: C_54  and  O_56
REMARK                            x       y       z     vdW  Elec       q    Type
REMARK                         _______ _______ _______ _____ _____    ______ ____
ROOT
ATOM      1  P   UNL     1       4.989   1.132  25.722  0.00  0.00    +0.492 P 
ATOM      2  O   UNL     1       5.875   2.230  26.300  0.00  0.00    -0.226 OA
ENDROOT
BRANCH   1   3
ATOM      3  O   UNL     1       3.479   1.512  26.213  0.00  0.00    -0.302 OA
ATOM      4  H   UNL     1       2.994   0.673  26.348  0.00  0.00    +0.222 HD
ENDBRANCH   1   3
BRANCH   1   5
ATOM      5  O   UNL     1       4.776   2.069  24.283  0.00  0.00    -0.186 OA
BRANCH   5   6
ATOM      6  P   UNL     1       4.039   3.404  23.834  0.00  0.00    +0.483 P 
ATOM      7  O   UNL     1       3.661   4.313  24.959  0.00  0.00    -0.227 OA
BRANCH   6   8
ATOM      8  O   UNL     1       2.698   2.692  23.295  0.00  0.00    -0.302 OA
ATOM      9  H   UNL     1       2.141   3.367  22.861  0.00  0.00    +0.222 HD
ENDBRANCH   6   8
BRANCH   6  10
ATOM     10  O   UNL     1       4.427   4.229  22.461  0.00  0.00    -0.284 OA
BRANCH  10  11
ATOM     11  C   UNL     1       5.543   5.145  22.741  0.00  0.00    +0.206 C 
BRANCH  11  12
ATOM     12  C   UNL     1       7.044   4.933  22.396  0.00  0.00    +0.178 C 
ATOM     13  C   UNL     1       8.095   5.318  23.435  0.00  0.00    +0.178 C 
ATOM     14  C   UNL     1       8.581   3.992  23.999  0.00  0.00    +0.195 C 
ATOM     15  C   UNL     1       7.796   2.934  23.209  0.00  0.00    +0.253 C 
ATOM     16  O   UNL     1       7.319   3.579  22.019  0.00  0.00    -0.346 OA
BRANCH  15  17
ATOM     17  N   UNL     1       8.551   1.751  22.845  0.00  0.00    -0.285 N 
ATOM     18  C   UNL     1       8.895   0.723  23.680  0.00  0.00    +0.171 A 
ATOM     19  N   UNL     1       8.687   0.665  25.019  0.00  0.00    -0.196 NA
ATOM     20  C   UNL     1       9.141  -0.436  25.559  0.00  0.00    +0.195 A 
ATOM     21  N   UNL     1       9.749  -1.451  24.849  0.00  0.00    -0.293 N 
ATOM     22  H   UNL     1      10.038  -2.294  25.313  0.00  0.00    +0.172 HD
ATOM     23  C   UNL     1       9.963  -1.437  23.476  0.00  0.00    +0.280 A 
ATOM     24  O   UNL     1      10.486  -2.384  22.894  0.00  0.00    -0.265 OA
ATOM     25  N   UNL     1       9.039  -0.624  26.898  0.00  0.00    -0.329 N 
ATOM     26  H   UNL     1       9.747  -1.193  27.344  0.00  0.00    +0.145 HD
ATOM     27  H   UNL     1       8.836   0.226  27.414  0.00  0.00    +0.145 HD
ATOM     28  C   UNL     1       9.490  -0.214  22.866  0.00  0.00    +0.172 A 
ATOM     29  N   UNL     1       9.513   0.200  21.559  0.00  0.00    -0.229 NA
ATOM     30  C   UNL     1       8.929   1.382  21.578  0.00  0.00    +0.203 A 
ENDBRANCH  15  17
BRANCH  14  31
ATOM     31  O   UNL     1       8.292   3.910  25.396  0.00  0.00    -0.385 OA
ATOM     32  H   UNL     1       8.479   2.979  25.642  0.00  0.00    +0.210 HD
ENDBRANCH  14  31
BRANCH  13  33
ATOM     33  O   UNL     1       9.205   5.979  22.782  0.00  0.00    -0.386 OA
ATOM     34  H   UNL     1      10.040   5.540  23.030  0.00  0.00    +0.210 HD
ENDBRANCH  13  33
ENDBRANCH  11  12
ENDBRANCH  10  11
ENDBRANCH   6  10
ENDBRANCH   5   6
ENDBRANCH   1   5
BRANCH   1  35
ATOM     35  O   UNL     1       5.202   0.194  27.160  0.00  0.00    -0.186 OA
BRANCH  35  36
ATOM     36  P   UNL     1       3.852  -0.868  27.361  0.00  0.00    +0.483 P 
ATOM     37  O   UNL     1       3.916  -1.330  25.909  0.00  0.00    -0.227 OA
BRANCH  36  38
ATOM     38  O   UNL     1       2.501  -1.929  27.563  0.00  0.00    -0.302 OA
ATOM     39  H   UNL     1       2.726  -2.416  28.385  0.00  0.00    +0.222 HD
ENDBRANCH  36  38
BRANCH  36  40
ATOM     40  O   UNL     1       4.768  -1.911  28.232  0.00  0.00    -0.284 OA
BRANCH  40  41
ATOM     41  C   UNL     1       4.201  -3.179  28.500  0.00  0.00    +0.206 C 
BRANCH  41  45
ATOM     42  C   UNL     1       4.170  -6.121  26.356  0.00  0.00    +0.253 C 
ATOM     43  C   UNL     1       5.412  -6.464  27.203  0.00  0.00    +0.195 C 
ATOM     44  C   UNL     1       5.728  -5.169  27.969  0.00  0.00    +0.178 C 
ATOM     45  C   UNL     1       4.666  -4.191  27.468  0.00  0.00    +0.178 C 
ATOM     46  O   UNL     1       3.558  -5.007  27.057  0.00  0.00    -0.346 OA
BRANCH  42  58
ATOM     47  N   UNL     1       8.884  -4.758  24.256  0.00  0.00    -0.329 N 
ATOM     48  H   UNL     1       9.575  -4.839  23.522  0.00  0.00    +0.145 HD
ATOM     49  H   UNL     1       9.102  -5.305  25.088  0.00  0.00    +0.145 HD
ATOM     50  C   UNL     1       7.577  -4.838  23.905  0.00  0.00    +0.195 A 
ATOM     51  N   UNL     1       7.243  -4.362  22.654  0.00  0.00    -0.293 N 
ATOM     52  H   UNL     1       7.945  -3.937  22.073  0.00  0.00    +0.172 HD
ATOM     53  C   UNL     1       5.960  -4.327  22.141  0.00  0.00    +0.280 A 
ATOM     54  O   UNL     1       5.706  -3.858  21.038  0.00  0.00    -0.265 OA
ATOM     55  C   UNL     1       4.998  -4.891  23.071  0.00  0.00    +0.172 A 
ATOM     56  N   UNL     1       3.629  -4.971  22.975  0.00  0.00    -0.229 NA
ATOM     57  C   UNL     1       3.250  -5.467  24.138  0.00  0.00    +0.203 A 
ATOM     58  N   UNL     1       4.322  -5.715  24.969  0.00  0.00    -0.285 N 
ATOM     59  C   UNL     1       5.447  -5.344  24.282  0.00  0.00    +0.171 A 
ATOM     60  N   UNL     1       6.710  -5.349  24.739  0.00  0.00    -0.196 NA
ENDBRANCH  42  58
BRANCH  44  61
ATOM     61  O   UNL     1       7.049  -4.701  27.721  0.00  0.00    -0.386 OA
ATOM     62  H   UNL     1       7.625  -5.073  28.415  0.00  0.00    +0.210 HD
ENDBRANCH  44  61
BRANCH  43  63
ATOM     63  O   UNL     1       5.074  -7.502  28.155  0.00  0.00    -0.385 OA
ATOM     64  H   UNL     1       4.117  -7.459  28.332  0.00  0.00    +0.210 HD
ENDBRANCH  43  63
ENDBRANCH  41  45
ENDBRANCH  40  41
ENDBRANCH  36  40
ENDBRANCH  35  36
ENDBRANCH   1  35
TORSDOF 19
ENDMDL
MODEL 6
REMARK VINA RESULT:      -7.1      3.282      8.766
REMARK  Name = 
REMARK  19 active torsions:
REMARK  status: ('A' for Active; 'I' for Inactive)
REMARK    1  A    between atoms: N_8  and  C_9
REMARK    2  A    between atoms: C_12  and  C_14
REMARK    3  A    between atoms: C_14  and  O_15
REMARK    4  A    between atoms: O_15  and  P_16
REMARK    5  A    between atoms: P_16  and  O_17
REMARK    6  A    between atoms: P_16  and  O_19
REMARK    7  A    between atoms: O_19  and  P_20
REMARK    8  A    between atoms: P_20  and  O_21
REMARK    9  A    between atoms: P_20  and  O_23
REMARK   10  A    between atoms: O_23  and  P_24
REMARK   11  A    between atoms: P_24  and  O_25
REMARK   12  A    between atoms: P_24  and  O_27
REMARK   13  A    between atoms: O_27  and  C_28
REMARK   14  A    between atoms: C_28  and  C_29
REMARK   15  A    between atoms: C_32  and  N_40
REMARK   16  A    between atoms: C_34  and  O_36
REMARK   17  A    between atoms: C_37  and  O_39
REMARK   18  A    between atoms: C_51  and  O_53
REMARK   19  A    between atoms: C_54  and  O_56
REMARK                            x       y       z     vdW  Elec       q    Type
REMARK                         _______ _______ _______ _____ _____    ______ ____
ROOT
ATOM      1  P   UNL     1       9.313   1.790  22.592  0.00  0.00    +0.492 P 
ATOM      2  O   UNL     1       8.035   2.265  21.908  0.00  0.00    -0.226 OA
ENDROOT
BRANCH   1   3
ATOM      3  O   UNL     1      10.516   2.589  21.827  0.00  0.00    -0.302 OA
ATOM      4  H   UNL     1      10.584   3.476  22.234  0.00  0.00    +0.222 HD
ENDBRANCH   1   3
BRANCH   1   5
ATOM      5  O   UNL     1       9.168   3.074  23.742  0.00  0.00    -0.186 OA
BRANCH   5   6
ATOM      6  P   UNL     1       9.346   4.653  23.788  0.00  0.00    +0.483 P 
ATOM      7  O   UNL     1      10.747   5.126  23.568  0.00  0.00    -0.227 OA
BRANCH   6   8
ATOM      8  O   UNL     1       9.001   4.824  25.352  0.00  0.00    -0.302 OA
ATOM      9  H   UNL     1       8.828   5.768  25.531  0.00  0.00    +0.222 HD
ENDBRANCH   6   8
BRANCH   6  10
ATOM     10  O   UNL     1       8.226   5.705  23.191  0.00  0.00    -0.284 OA
BRANCH  10  11
ATOM     11  C   UNL     1       7.325   6.125  24.275  0.00  0.00    +0.206 C 
BRANCH  11  12
ATOM     12  C   UNL     1       5.872   5.638  24.533  0.00  0.00    +0.178 C 
ATOM     13  C   UNL     1       4.981   5.324  23.333  0.00  0.00    +0.178 C 
ATOM     14  C   UNL     1       4.921   3.805  23.286  0.00  0.00    +0.195 C 
ATOM     15  C   UNL     1       5.755   3.356  24.495  0.00  0.00    +0.253 C 
ATOM     16  O   UNL     1       5.838   4.483  25.379  0.00  0.00    -0.346 OA
BRANCH  15  17
ATOM     17  N   UNL     1       5.227   2.216  25.219  0.00  0.00    -0.285 N 
ATOM     18  C   UNL     1       5.948   1.153  25.690  0.00  0.00    +0.171 A 
ATOM     19  N   UNL     1       7.266   0.913  25.479  0.00  0.00    -0.196 NA
ATOM     20  C   UNL     1       7.680  -0.194  26.037  0.00  0.00    +0.195 A 
ATOM     21  N   UNL     1       6.875  -1.031  26.783  0.00  0.00    -0.293 N 
ATOM     22  H   UNL     1       7.261  -1.847  27.225  0.00  0.00    +0.172 HD
ATOM     23  C   UNL     1       5.527  -0.811  27.037  0.00  0.00    +0.280 A 
ATOM     24  O   UNL     1       4.867  -1.579  27.732  0.00  0.00    -0.265 OA
ATOM     25  N   UNL     1       8.969  -0.587  25.886  0.00  0.00    -0.329 N 
ATOM     26  H   UNL     1       9.158  -1.582  25.901  0.00  0.00    +0.145 HD
ATOM     27  H   UNL     1       9.455  -0.108  25.135  0.00  0.00    +0.145 HD
ATOM     28  C   UNL     1       5.046   0.397  26.405  0.00  0.00    +0.172 A 
ATOM     29  N   UNL     1       3.799   0.967  26.397  0.00  0.00    -0.229 NA
ATOM     30  C   UNL     1       3.944   2.067  25.684  0.00  0.00    +0.203 A 
ENDBRANCH  15  17
BRANCH  14  31
ATOM     31  O   UNL     1       5.483   3.321  22.065  0.00  0.00    -0.385 OA
ATOM     32  H   UNL     1       4.889   2.595  21.779  0.00  0.00    +0.210 HD
ENDBRANCH  14  31
BRANCH  13  33
ATOM     33  O   UNL     1       3.648   5.834  23.570  0.00  0.00    -0.386 OA
ATOM     34  H   UNL     1       3.534   6.683  23.104  0.00  0.00    +0.210 HD
ENDBRANCH  13  33
ENDBRANCH  11  12
ENDBRANCH  10  11
ENDBRANCH   6  10
ENDBRANCH   5   6
ENDBRANCH   1   5
BRANCH   1  35
ATOM     35  O   UNL     1       9.458   0.506  21.441  0.00  0.00    -0.186 OA
BRANCH  35  36
ATOM     36  P   UNL     1       9.985  -0.932  22.246  0.00  0.00    +0.483 P 
ATOM     37  O   UNL     1      10.767  -0.139  23.289  0.00  0.00    -0.227 OA
BRANCH  36  38
ATOM     38  O   UNL     1      10.513  -2.369  23.049  0.00  0.00    -0.302 OA
ATOM     39  H   UNL     1       9.831  -3.027  22.791  0.00  0.00    +0.222 HD
ENDBRANCH  36  38
BRANCH  36  40
ATOM     40  O   UNL     1       8.484  -1.171  22.858  0.00  0.00    -0.284 OA
BRANCH  40  41
ATOM     41  C   UNL     1       7.614  -1.989  22.098  0.00  0.00    +0.206 C 
BRANCH  41  45
ATOM     42  C   UNL     1       7.680  -5.248  23.718  0.00  0.00    +0.253 C 
ATOM     43  C   UNL     1       6.484  -5.482  22.773  0.00  0.00    +0.195 C 
ATOM     44  C   UNL     1       6.146  -4.087  22.222  0.00  0.00    +0.178 C 
ATOM     45  C   UNL     1       7.151  -3.174  22.925  0.00  0.00    +0.178 C 
ATOM     46  O   UNL     1       8.274  -4.013  23.241  0.00  0.00    -0.346 OA
BRANCH  42  58
ATOM     47  N   UNL     1       3.557  -7.482  26.268  0.00  0.00    -0.329 N 
ATOM     48  H   UNL     1       3.191  -8.028  27.037  0.00  0.00    +0.145 HD
ATOM     49  H   UNL     1       3.664  -8.011  25.403  0.00  0.00    +0.145 HD
ATOM     50  C   UNL     1       4.611  -6.668  26.517  0.00  0.00    +0.195 A 
ATOM     51  N   UNL     1       4.686  -6.123  27.782  0.00  0.00    -0.293 N 
ATOM     52  H   UNL     1       3.956  -6.299  28.450  0.00  0.00    +0.172 HD
ATOM     53  C   UNL     1       5.665  -5.243  28.205  0.00  0.00    +0.280 A 
ATOM     54  O   UNL     1       5.669  -4.755  29.329  0.00  0.00    -0.265 OA
ATOM     55  C   UNL     1       6.639  -4.985  27.158  0.00  0.00    +0.172 A 
ATOM     56  N   UNL     1       7.708  -4.123  27.150  0.00  0.00    -0.229 NA
ATOM     57  C   UNL     1       8.180  -4.201  25.919  0.00  0.00    +0.203 A 
ATOM     58  N   UNL     1       7.461  -5.088  25.145  0.00  0.00    -0.285 N 
ATOM     59  C   UNL     1       6.469  -5.592  25.943  0.00  0.00    +0.171 A 
ATOM     60  N   UNL     1       5.491  -6.436  25.578  0.00  0.00    -0.196 NA
ENDBRANCH  42  58
BRANCH  44  61
ATOM     61  O   UNL     1       4.800  -3.710  22.487  0.00  0.00    -0.386 OA
ATOM     62  H   UNL     1       4.332  -4.504  22.806  0.00  0.00    +0.210 HD
ENDBRANCH  44  61
BRANCH  43  63
ATOM     63  O   UNL     1       6.897  -6.333  21.675  0.00  0.00    -0.385 OA
ATOM     64  H   UNL     1       6.992  -5.783  20.877  0.00  0.00    +0.210 HD
ENDBRANCH  43  63
ENDBRANCH  41  45
ENDBRANCH  40  41
ENDBRANCH  36  40
ENDBRANCH  35  36
ENDBRANCH   1  35
TORSDOF 19
ENDMDL
MODEL 7
REMARK VINA RESULT:      -7.1      2.097      6.315
REMARK  Name = 
REMARK  19 active torsions:
REMARK  status: ('A' for Active; 'I' for Inactive)
REMARK    1  A    between atoms: N_8  and  C_9
REMARK    2  A    between atoms: C_12  and  C_14
REMARK    3  A    between atoms: C_14  and  O_15
REMARK    4  A    between atoms: O_15  and  P_16
REMARK    5  A    between atoms: P_16  and  O_17
REMARK    6  A    between atoms: P_16  and  O_19
REMARK    7  A    between atoms: O_19  and  P_20
REMARK    8  A    between atoms: P_20  and  O_21
REMARK    9  A    between atoms: P_20  and  O_23
REMARK   10  A    between atoms: O_23  and  P_24
REMARK   11  A    between atoms: P_24  and  O_25
REMARK   12  A    between atoms: P_24  and  O_27
REMARK   13  A    between atoms: O_27  and  C_28
REMARK   14  A    between atoms: C_28  and  C_29
REMARK   15  A    between atoms: C_32  and  N_40
REMARK   16  A    between atoms: C_34  and  O_36
REMARK   17  A    between atoms: C_37  and  O_39
REMARK   18  A    between atoms: C_51  and  O_53
REMARK   19  A    between atoms: C_54  and  O_56
REMARK                            x       y       z     vdW  Elec       q    Type
REMARK                         _______ _______ _______ _____ _____    ______ ____
ROOT
ATOM      1  P   UNL     1       2.749  -3.648  25.558  0.00  0.00    +0.492 P 
ATOM      2  O   UNL     1       1.472  -2.882  25.234  0.00  0.00    -0.226 OA
ENDROOT
BRANCH   1   3
ATOM      3  O   UNL     1       3.960  -2.619  25.179  0.00  0.00    -0.302 OA
ATOM      4  H   UNL     1       4.497  -2.487  25.986  0.00  0.00    +0.222 HD
ENDBRANCH   1   3
BRANCH   1   5
ATOM      5  O   UNL     1       2.705  -3.028  27.173  0.00  0.00    -0.186 OA
BRANCH   5   6
ATOM      6  P   UNL     1       3.129  -1.709  27.950  0.00  0.00    +0.483 P 
ATOM      7  O   UNL     1       2.288  -1.394  29.145  0.00  0.00    -0.227 OA
BRANCH   6   8
ATOM      8  O   UNL     1       2.735  -0.677  26.776  0.00  0.00    -0.302 OA
ATOM      9  H   UNL     1       2.142  -1.132  26.149  0.00  0.00    +0.222 HD
ENDBRANCH   6   8
BRANCH   6  10
ATOM     10  O   UNL     1       4.698  -1.241  28.145  0.00  0.00    -0.284 OA
BRANCH  10  11
ATOM     11  C   UNL     1       4.824   0.190  27.832  0.00  0.00    +0.206 C 
BRANCH  11  12
ATOM     12  C   UNL     1       6.019   0.900  27.137  0.00  0.00    +0.178 C 
ATOM     13  C   UNL     1       6.891   0.094  26.176  0.00  0.00    +0.178 C 
ATOM     14  C   UNL     1       6.483   0.575  24.793  0.00  0.00    +0.195 C 
ATOM     15  C   UNL     1       5.428   1.658  25.064  0.00  0.00    +0.253 C 
ATOM     16  O   UNL     1       5.604   2.072  26.426  0.00  0.00    -0.346 OA
BRANCH  15  17
ATOM     17  N   UNL     1       5.498   2.818  24.196  0.00  0.00    -0.285 N 
ATOM     18  C   UNL     1       6.636   3.475  23.815  0.00  0.00    +0.171 A 
ATOM     19  N   UNL     1       7.896   3.232  24.255  0.00  0.00    -0.196 NA
ATOM     20  C   UNL     1       8.785   4.032  23.729  0.00  0.00    +0.195 A 
ATOM     21  N   UNL     1       8.489   5.013  22.803  0.00  0.00    -0.293 N 
ATOM     22  H   UNL     1       9.222   5.569  22.399  0.00  0.00    +0.172 HD
ATOM     23  C   UNL     1       7.216   5.279  22.313  0.00  0.00    +0.280 A 
ATOM     24  O   UNL     1       7.018   6.148  21.468  0.00  0.00    -0.265 OA
ATOM     25  N   UNL     1      10.085   3.935  24.098  0.00  0.00    -0.329 N 
ATOM     26  H   UNL     1      10.643   4.780  24.067  0.00  0.00    +0.145 HD
ATOM     27  H   UNL     1      10.228   3.403  24.950  0.00  0.00    +0.145 HD
ATOM     28  C   UNL     1       6.216   4.419  22.906  0.00  0.00    +0.172 A 
ATOM     29  N   UNL     1       4.861   4.357  22.709  0.00  0.00    -0.229 NA
ATOM     30  C   UNL     1       4.459   3.375  23.492  0.00  0.00    +0.203 A 
ENDBRANCH  15  17
BRANCH  14  31
ATOM     31  O   UNL     1       5.931  -0.502  24.033  0.00  0.00    -0.385 OA
ATOM     32  H   UNL     1       6.649  -0.782  23.426  0.00  0.00    +0.210 HD
ENDBRANCH  14  31
BRANCH  13  33
ATOM     33  O   UNL     1       8.284   0.423  26.390  0.00  0.00    -0.386 OA
ATOM     34  H   UNL     1       8.681  -0.219  27.006  0.00  0.00    +0.210 HD
ENDBRANCH  13  33
ENDBRANCH  11  12
ENDBRANCH  10  11
ENDBRANCH   6  10
ENDBRANCH   5   6
ENDBRANCH   1   5
BRANCH   1  35
ATOM     35  O   UNL     1       2.794  -4.268  23.944  0.00  0.00    -0.186 OA
BRANCH  35  36
ATOM     36  P   UNL     1       3.401  -5.888  23.964  0.00  0.00    +0.483 P 
ATOM     37  O   UNL     1       4.133  -5.698  22.639  0.00  0.00    -0.227 OA
BRANCH  36  38
ATOM     38  O   UNL     1       4.008  -7.507  23.984  0.00  0.00    -0.302 OA
ATOM     39  H   UNL     1       3.200  -8.041  24.145  0.00  0.00    +0.222 HD
ENDBRANCH  36  38
BRANCH  36  40
ATOM     40  O   UNL     1       4.463  -5.502  25.152  0.00  0.00    -0.284 OA
BRANCH  40  41
ATOM     41  C   UNL     1       5.790  -5.963  24.987  0.00  0.00    +0.206 C 
BRANCH  41  45
ATOM     42  C   UNL     1       8.918  -4.129  24.661  0.00  0.00    +0.253 C 
ATOM     43  C   UNL     1       8.612  -3.807  26.138  0.00  0.00    +0.195 C 
ATOM     44  C   UNL     1       7.163  -4.278  26.345  0.00  0.00    +0.178 C 
ATOM     45  C   UNL     1       6.755  -4.792  24.965  0.00  0.00    +0.178 C 
ATOM     46  O   UNL     1       7.980  -5.185  24.326  0.00  0.00    -0.346 OA
BRANCH  42  58
ATOM     47  N   UNL     1      11.198   0.677  25.096  0.00  0.00    -0.329 N 
ATOM     48  H   UNL     1      11.755   1.425  24.702  0.00  0.00    +0.145 HD
ATOM     49  H   UNL     1      11.716   0.070  25.729  0.00  0.00    +0.145 HD
ATOM     50  C   UNL     1      10.383  -0.011  24.260  0.00  0.00    +0.195 A 
ATOM     51  N   UNL     1       9.854   0.690  23.196  0.00  0.00    -0.293 N 
ATOM     52  H   UNL     1      10.041   1.672  23.098  0.00  0.00    +0.172 HD
ATOM     53  C   UNL     1       8.976   0.166  22.266  0.00  0.00    +0.280 A 
ATOM     54  O   UNL     1       8.502   0.839  21.359  0.00  0.00    -0.265 OA
ATOM     55  C   UNL     1       8.702  -1.237  22.522  0.00  0.00    +0.172 A 
ATOM     56  N   UNL     1       7.835  -2.091  21.883  0.00  0.00    -0.229 NA
ATOM     57  C   UNL     1       7.897  -3.205  22.589  0.00  0.00    +0.203 A 
ATOM     58  N   UNL     1       8.776  -3.100  23.646  0.00  0.00    -0.285 N 
ATOM     59  C   UNL     1       9.294  -1.833  23.603  0.00  0.00    +0.171 A 
ATOM     60  N   UNL     1      10.137  -1.275  24.486  0.00  0.00    -0.196 NA
ENDBRANCH  42  58
BRANCH  44  61
ATOM     61  O   UNL     1       6.313  -3.232  26.802  0.00  0.00    -0.386 OA
ATOM     62  H   UNL     1       6.570  -2.419  26.327  0.00  0.00    +0.210 HD
ENDBRANCH  44  61
BRANCH  43  63
ATOM     63  O   UNL     1       9.485  -4.587  26.992  0.00  0.00    -0.385 OA
ATOM     64  H   UNL     1       9.074  -4.658  27.872  0.00  0.00    +0.210 HD
ENDBRANCH  43  63
ENDBRANCH  41  45
ENDBRANCH  40  41
ENDBRANCH  36  40
ENDBRANCH  35  36
ENDBRANCH   1  35
TORSDOF 19
ENDMDL
MODEL 8
REMARK VINA RESULT:      -7.1      2.545      5.868
REMARK  Name = 
REMARK  19 active torsions:
REMARK  status: ('A' for Active; 'I' for Inactive)
REMARK    1  A    between atoms: N_8  and  C_9
REMARK    2  A    between atoms: C_12  and  C_14
REMARK    3  A    between atoms: C_14  and  O_15
REMARK    4  A    between atoms: O_15  and  P_16
REMARK    5  A    between atoms: P_16  and  O_17
REMARK    6  A    between atoms: P_16  and  O_19
REMARK    7  A    between atoms: O_19  and  P_20
REMARK    8  A    between atoms: P_20  and  O_21
REMARK    9  A    between atoms: P_20  and  O_23
REMARK   10  A    between atoms: O_23  and  P_24
REMARK   11  A    between atoms: P_24  and  O_25
REMARK   12  A    between atoms: P_24  and  O_27
REMARK   13  A    between atoms: O_27  and  C_28
REMARK   14  A    between atoms: C_28  and  C_29
REMARK   15  A    between atoms: C_32  and  N_40
REMARK   16  A    between atoms: C_34  and  O_36
REMARK   17  A    between atoms: C_37  and  O_39
REMARK   18  A    between atoms: C_51  and  O_53
REMARK   19  A    between atoms: C_54  and  O_56
REMARK                            x       y       z     vdW  Elec       q    Type
REMARK                         _______ _______ _______ _____ _____    ______ ____
ROOT
ATOM      1  P   UNL     1       3.937  -6.459  25.548  0.00  0.00    +0.492 P 
ATOM      2  O   UNL     1       4.341  -7.128  24.239  0.00  0.00    -0.226 OA
ENDROOT
BRANCH   1   3
ATOM      3  O   UNL     1       4.684  -5.006  25.522  0.00  0.00    -0.302 OA
ATOM      4  H   UNL     1       5.582  -5.131  25.890  0.00  0.00    +0.222 HD
ENDBRANCH   1   3
BRANCH   1   5
ATOM      5  O   UNL     1       2.551  -5.780  24.768  0.00  0.00    -0.186 OA
BRANCH   5   6
ATOM      6  P   UNL     1       1.540  -4.572  24.982  0.00  0.00    +0.483 P 
ATOM      7  O   UNL     1       0.462  -4.474  23.950  0.00  0.00    -0.227 OA
BRANCH   6   8
ATOM      8  O   UNL     1       2.607  -3.398  24.703  0.00  0.00    -0.302 OA
ATOM      9  H   UNL     1       3.174  -3.663  23.954  0.00  0.00    +0.222 HD
ENDBRANCH   6   8
BRANCH   6  10
ATOM     10  O   UNL     1       1.035  -4.072  26.469  0.00  0.00    -0.284 OA
BRANCH  10  11
ATOM     11  C   UNL     1       0.980  -2.602  26.497  0.00  0.00    +0.206 C 
BRANCH  11  12
ATOM     12  C   UNL     1       1.625  -1.656  27.548  0.00  0.00    +0.178 C 
ATOM     13  C   UNL     1       2.678  -2.226  28.497  0.00  0.00    +0.178 C 
ATOM     14  C   UNL     1       3.998  -1.684  27.975  0.00  0.00    +0.195 C 
ATOM     15  C   UNL     1       3.601  -0.804  26.780  0.00  0.00    +0.253 C 
ATOM     16  O   UNL     1       2.208  -0.499  26.939  0.00  0.00    -0.346 OA
BRANCH  15  17
ATOM     17  N   UNL     1       4.351   0.429  26.646  0.00  0.00    -0.285 N 
ATOM     18  C   UNL     1       5.712   0.543  26.565  0.00  0.00    +0.171 A 
ATOM     19  N   UNL     1       6.617  -0.459  26.699  0.00  0.00    -0.196 NA
ATOM     20  C   UNL     1       7.854  -0.049  26.593  0.00  0.00    +0.195 A 
ATOM     21  N   UNL     1       8.215   1.261  26.348  0.00  0.00    -0.293 N 
ATOM     22  H   UNL     1       9.181   1.509  26.232  0.00  0.00    +0.172 HD
ATOM     23  C   UNL     1       7.319   2.310  26.186  0.00  0.00    +0.280 A 
ATOM     24  O   UNL     1       7.699   3.452  25.942  0.00  0.00    -0.265 OA
ATOM     25  N   UNL     1       8.873  -0.930  26.739  0.00  0.00    -0.329 N 
ATOM     26  H   UNL     1       9.747  -0.575  27.105  0.00  0.00    +0.145 HD
ATOM     27  H   UNL     1       8.596  -1.806  27.170  0.00  0.00    +0.145 HD
ATOM     28  C   UNL     1       5.946   1.879  26.326  0.00  0.00    +0.172 A 
ATOM     29  N   UNL     1       4.774   2.585  26.248  0.00  0.00    -0.229 NA
ATOM     30  C   UNL     1       3.831   1.682  26.433  0.00  0.00    +0.203 A 
ENDBRANCH  15  17
BRANCH  14  31
ATOM     31  O   UNL     1       4.850  -2.756  27.564  0.00  0.00    -0.385 OA
ATOM     32  H   UNL     1       4.942  -3.328  28.356  0.00  0.00    +0.210 HD
ENDBRANCH  14  31
BRANCH  13  33
ATOM     33  O   UNL     1       2.460  -1.710  29.832  0.00  0.00    -0.386 OA
ATOM     34  H   UNL     1       1.863  -0.939  29.792  0.00  0.00    +0.210 HD
ENDBRANCH  13  33
ENDBRANCH  11  12
ENDBRANCH  10  11
ENDBRANCH   6  10
ENDBRANCH   5   6
ENDBRANCH   1   5
BRANCH   1  35
ATOM     35  O   UNL     1       5.324  -7.137  26.329  0.00  0.00    -0.186 OA
BRANCH  35  36
ATOM     36  P   UNL     1       5.764  -6.153  27.682  0.00  0.00    +0.483 P 
ATOM     37  O   UNL     1       5.869  -7.361  28.608  0.00  0.00    -0.227 OA
BRANCH  36  38
ATOM     38  O   UNL     1       6.203  -5.170  29.035  0.00  0.00    -0.302 OA
ATOM     39  H   UNL     1       6.711  -5.791  29.601  0.00  0.00    +0.222 HD
ENDBRANCH  36  38
BRANCH  36  40
ATOM     40  O   UNL     1       7.256  -5.907  27.051  0.00  0.00    -0.284 OA
BRANCH  40  41
ATOM     41  C   UNL     1       7.725  -4.572  27.040  0.00  0.00    +0.206 C 
BRANCH  41  45
ATOM     42  C   UNL     1       7.234  -3.183  23.711  0.00  0.00    +0.253 C 
ATOM     43  C   UNL     1       7.581  -4.631  23.310  0.00  0.00    +0.195 C 
ATOM     44  C   UNL     1       8.102  -5.278  24.604  0.00  0.00    +0.178 C 
ATOM     45  C   UNL     1       8.041  -4.138  25.621  0.00  0.00    +0.178 C 
ATOM     46  O   UNL     1       7.014  -3.254  25.144  0.00  0.00    -0.346 OA
BRANCH  42  58
ATOM     47  N   UNL     1       5.747   1.835  22.662  0.00  0.00    -0.329 N 
ATOM     48  H   UNL     1       5.820   2.829  22.840  0.00  0.00    +0.145 HD
ATOM     49  H   UNL     1       4.940   1.396  23.102  0.00  0.00    +0.145 HD
ATOM     50  C   UNL     1       6.874   1.090  22.774  0.00  0.00    +0.195 A 
ATOM     51  N   UNL     1       8.062   1.715  22.455  0.00  0.00    -0.293 N 
ATOM     52  H   UNL     1       8.059   2.659  22.113  0.00  0.00    +0.172 HD
ATOM     53  C   UNL     1       9.303   1.104  22.474  0.00  0.00    +0.280 A 
ATOM     54  O   UNL     1      10.327   1.690  22.144  0.00  0.00    -0.265 OA
ATOM     55  C   UNL     1       9.211  -0.278  22.909  0.00  0.00    +0.172 A 
ATOM     56  N   UNL     1      10.191  -1.238  22.989  0.00  0.00    -0.229 NA
ATOM     57  C   UNL     1       9.543  -2.337  23.331  0.00  0.00    +0.203 A 
ATOM     58  N   UNL     1       8.191  -2.113  23.483  0.00  0.00    -0.285 N 
ATOM     59  C   UNL     1       7.977  -0.788  23.211  0.00  0.00    +0.171 A 
ATOM     60  N   UNL     1       6.795  -0.154  23.169  0.00  0.00    -0.196 NA
ENDBRANCH  42  58
BRANCH  44  61
ATOM     61  O   UNL     1       9.417  -5.799  24.459  0.00  0.00    -0.386 OA
ATOM     62  H   UNL     1      10.029  -5.040  24.413  0.00  0.00    +0.210 HD
ENDBRANCH  44  61
BRANCH  43  63
ATOM     63  O   UNL     1       6.375  -5.318  22.894  0.00  0.00    -0.385 OA
ATOM     64  H   UNL     1       6.076  -4.933  22.050  0.00  0.00    +0.210 HD
ENDBRANCH  43  63
ENDBRANCH  41  45
ENDBRANCH  40  41
ENDBRANCH  36  40
ENDBRANCH  35  36
ENDBRANCH   1  35
TORSDOF 19
ENDMDL
MODEL 9
REMARK VINA RESULT:      -7.1      2.709      7.669
REMARK  Name = 
REMARK  19 active torsions:
REMARK  status: ('A' for Active; 'I' for Inactive)
REMARK    1  A    between atoms: N_8  and  C_9
REMARK    2  A    between atoms: C_12  and  C_14
REMARK    3  A    between atoms: C_14  and  O_15
REMARK    4  A    between atoms: O_15  and  P_16
REMARK    5  A    between atoms: P_16  and  O_17
REMARK    6  A    between atoms: P_16  and  O_19
REMARK    7  A    between atoms: O_19  and  P_20
REMARK    8  A    between atoms: P_20  and  O_21
REMARK    9  A    between atoms: P_20  and  O_23
REMARK   10  A    between atoms: O_23  and  P_24
REMARK   11  A    between atoms: P_24  and  O_25
REMARK   12  A    between atoms: P_24  and  O_27
REMARK   13  A    between atoms: O_27  and  C_28
REMARK   14  A    between atoms: C_28  and  C_29
REMARK   15  A    between atoms: C_32  and  N_40
REMARK   16  A    between atoms: C_34  and  O_36
REMARK   17  A    between atoms: C_37  and  O_39
REMARK   18  A    between atoms: C_51  and  O_53
REMARK   19  A    between atoms: C_54  and  O_56
REMARK                            x       y       z     vdW  Elec       q    Type
REMARK                         _______ _______ _______ _____ _____    ______ ____
ROOT
ATOM      1  P   UNL     1       3.971   3.388  25.520  0.00  0.00    +0.492 P 
ATOM      2  O   UNL     1       4.078   2.626  24.203  0.00  0.00    -0.226 OA
ENDROOT
BRANCH   1   3
ATOM      3  O   UNL     1       5.505   3.821  25.878  0.00  0.00    -0.302 OA
ATOM      4  H   UNL     1       5.797   3.269  26.631  0.00  0.00    +0.222 HD
ENDBRANCH   1   3
BRANCH   1   5
ATOM      5  O   UNL     1       3.742   4.861  24.642  0.00  0.00    -0.186 OA
BRANCH   5   6
ATOM      6  P   UNL     1       4.438   6.283  24.507  0.00  0.00    +0.483 P 
ATOM      7  O   UNL     1       4.893   6.878  25.801  0.00  0.00    -0.227 OA
BRANCH   6   8
ATOM      8  O   UNL     1       3.122   7.080  24.026  0.00  0.00    -0.302 OA
ATOM      9  H   UNL     1       2.387   6.443  23.941  0.00  0.00    +0.222 HD
ENDBRANCH   6   8
BRANCH   6  10
ATOM     10  O   UNL     1       5.421   6.690  23.248  0.00  0.00    -0.284 OA
BRANCH  10  11
ATOM     11  C   UNL     1       5.952   5.466  22.627  0.00  0.00    +0.206 C 
BRANCH  11  12
ATOM     12  C   UNL     1       7.443   5.108  22.377  0.00  0.00    +0.178 C 
ATOM     13  C   UNL     1       8.454   5.359  23.495  0.00  0.00    +0.178 C 
ATOM     14  C   UNL     1       8.762   3.978  24.050  0.00  0.00    +0.195 C 
ATOM     15  C   UNL     1       7.930   3.024  23.179  0.00  0.00    +0.253 C 
ATOM     16  O   UNL     1       7.605   3.742  21.980  0.00  0.00    -0.346 OA
BRANCH  15  17
ATOM     17  N   UNL     1       8.585   1.778  22.831  0.00  0.00    -0.285 N 
ATOM     18  C   UNL     1       8.894   0.760  23.691  0.00  0.00    +0.171 A 
ATOM     19  N   UNL     1       8.744   0.766  25.039  0.00  0.00    -0.196 NA
ATOM     20  C   UNL     1       9.144  -0.343  25.603  0.00  0.00    +0.195 A 
ATOM     21  N   UNL     1       9.648  -1.425  24.909  0.00  0.00    -0.293 N 
ATOM     22  H   UNL     1       9.898  -2.268  25.394  0.00  0.00    +0.172 HD
ATOM     23  C   UNL     1       9.800  -1.477  23.529  0.00  0.00    +0.280 A 
ATOM     24  O   UNL     1      10.230  -2.478  22.964  0.00  0.00    -0.265 OA
ATOM     25  N   UNL     1       9.089  -0.474  26.951  0.00  0.00    -0.329 N 
ATOM     26  H   UNL     1       9.776  -1.075  27.390  0.00  0.00    +0.145 HD
ATOM     27  H   UNL     1       8.969   0.407  27.442  0.00  0.00    +0.145 HD
ATOM     28  C   UNL     1       9.387  -0.247  22.891  0.00  0.00    +0.172 A 
ATOM     29  N   UNL     1       9.379   0.116  21.569  0.00  0.00    -0.229 NA
ATOM     30  C   UNL     1       8.880   1.337  21.565  0.00  0.00    +0.203 A 
ENDBRANCH  15  17
BRANCH  14  31
ATOM     31  O   UNL     1       8.371   3.893  25.423  0.00  0.00    -0.385 OA
ATOM     32  H   UNL     1       9.129   4.256  25.928  0.00  0.00    +0.210 HD
ENDBRANCH  14  31
BRANCH  13  33
ATOM     33  O   UNL     1       9.667   5.916  22.938  0.00  0.00    -0.386 OA
ATOM     34  H   UNL     1       9.993   6.633  23.513  0.00  0.00    +0.210 HD
ENDBRANCH  13  33
ENDBRANCH  11  12
ENDBRANCH  10  11
ENDBRANCH   6  10
ENDBRANCH   5   6
ENDBRANCH   1   5
BRANCH   1  35
ATOM     35  O   UNL     1       4.200   1.916  26.398  0.00  0.00    -0.186 OA
BRANCH  35  36
ATOM     36  P   UNL     1       5.804   1.873  27.044  0.00  0.00    +0.483 P 
ATOM     37  O   UNL     1       5.305   2.096  28.468  0.00  0.00    -0.227 OA
BRANCH  36  38
ATOM     38  O   UNL     1       7.408   1.830  27.690  0.00  0.00    -0.302 OA
ATOM     39  H   UNL     1       7.406   2.576  28.329  0.00  0.00    +0.222 HD
ENDBRANCH  36  38
BRANCH  36  40
ATOM     40  O   UNL     1       5.880   0.251  26.816  0.00  0.00    -0.284 OA
BRANCH  40  41
ATOM     41  C   UNL     1       5.239  -0.256  25.661  0.00  0.00    +0.206 C 
BRANCH  41  45
ATOM     42  C   UNL     1       4.027  -3.675  25.970  0.00  0.00    +0.253 C 
ATOM     43  C   UNL     1       5.055  -3.687  27.121  0.00  0.00    +0.195 C 
ATOM     44  C   UNL     1       5.863  -2.393  26.932  0.00  0.00    +0.178 C 
ATOM     45  C   UNL     1       5.255  -1.773  25.675  0.00  0.00    +0.178 C 
ATOM     46  O   UNL     1       3.909  -2.272  25.614  0.00  0.00    -0.346 OA
BRANCH  42  58
ATOM     47  N   UNL     1       8.969  -4.974  24.430  0.00  0.00    -0.329 N 
ATOM     48  H   UNL     1       9.633  -5.660  24.094  0.00  0.00    +0.145 HD
ATOM     49  H   UNL     1       9.032  -4.797  25.431  0.00  0.00    +0.145 HD
ATOM     50  C   UNL     1       7.689  -5.070  23.994  0.00  0.00    +0.195 A 
ATOM     51  N   UNL     1       7.505  -5.574  22.724  0.00  0.00    -0.293 N 
ATOM     52  H   UNL     1       8.299  -5.805  22.153  0.00  0.00    +0.172 HD
ATOM     53  C   UNL     1       6.278  -5.708  22.099  0.00  0.00    +0.280 A 
ATOM     54  O   UNL     1       6.167  -6.126  20.953  0.00  0.00    -0.265 OA
ATOM     55  C   UNL     1       5.190  -5.285  22.964  0.00  0.00    +0.172 A 
ATOM     56  N   UNL     1       3.846  -5.190  22.697  0.00  0.00    -0.229 NA
ATOM     57  C   UNL     1       3.336  -4.647  23.787  0.00  0.00    +0.203 A 
ATOM     58  N   UNL     1       4.299  -4.401  24.742  0.00  0.00    -0.285 N 
ATOM     59  C   UNL     1       5.493  -4.811  24.212  0.00  0.00    +0.171 A 
ATOM     60  N   UNL     1       6.708  -4.693  24.771  0.00  0.00    -0.196 NA
ENDBRANCH  42  58
BRANCH  44  61
ATOM     61  O   UNL     1       7.257  -2.640  26.790  0.00  0.00    -0.386 OA
ATOM     62  H   UNL     1       7.631  -1.909  26.262  0.00  0.00    +0.210 HD
ENDBRANCH  44  61
BRANCH  43  63
ATOM     63  O   UNL     1       4.357  -3.624  28.390  0.00  0.00    -0.385 OA
ATOM     64  H   UNL     1       3.631  -2.980  28.312  0.00  0.00    +0.210 HD
ENDBRANCH  43  63
ENDBRANCH  41  45
ENDBRANCH  40  41
ENDBRANCH  36  40
ENDBRANCH  35  36
ENDBRANCH   1  35
TORSDOF 19
ENDMDL
