MODEL 1
REMARK VINA RESULT:      -6.1      0.000      0.000
REMARK  Name = 
REMARK  3 active torsions:
REMARK  status: ('A' for Active; 'I' for Inactive)
REMARK    1  A    between atoms: O_1  and  N_2
REMARK    2  A    between atoms: C_3  and  C_5
REMARK    3  A    between atoms: C_6  and  C_7
REMARK                            x       y       z     vdW  Elec       q    Type
REMARK                         _______ _______ _______ _____ _____    ______ ____
ROOT
ATOM      1  C   UNL     1      11.510   3.948  23.411  0.00  0.00    +0.070 C 
ATOM      2  C   UNL     1      10.309   3.411  23.683  0.00  0.00    +0.014 C 
ENDROOT
BRANCH   2   3
ATOM      3  C   UNL     1      10.035   1.962  23.601  0.00  0.00    -0.006 A 
ATOM      4  C   UNL     1       9.072   1.427  22.721  0.00  0.00    +0.049 A 
ATOM      5 CL   UNL     1       8.126   2.424  21.668  0.00  0.00    -0.083 Cl
ATOM      6  C   UNL     1       8.854   0.046  22.647  0.00  0.00    +0.040 A 
ATOM      7  C   UNL     1       9.587  -0.816  23.454  0.00  0.00    +0.042 A 
ATOM      8 CL   UNL     1       9.342  -2.516  23.344  0.00  0.00    -0.083 Cl
ATOM      9  C   UNL     1      10.522  -0.314  24.351  0.00  0.00    +0.020 A 
ATOM     10  C   UNL     1      10.733   1.065  24.434  0.00  0.00    +0.011 A 
ENDBRANCH   2   3
BRANCH   1  13
ATOM     11  N   UNL     1      13.028   5.829  23.364  0.00  0.00    -0.194 N 
ATOM     12  H   UNL     1      13.217   6.826  23.341  0.00  0.00    +0.183 HD
ATOM     13  C   UNL     1      11.732   5.416  23.459  0.00  0.00    +0.259 C 
ATOM     14  O   UNL     1      10.814   6.219  23.576  0.00  0.00    -0.269 OA
BRANCH  11  15
ATOM     15  O   UNL     1      14.086   4.917  23.208  0.00  0.00    -0.295 OA
ATOM     16  H   UNL     1      14.873   5.488  23.151  0.00  0.00    +0.241 HD
ENDBRANCH  11  15
ENDBRANCH   1  13
TORSDOF 3
ENDMDL
MODEL 2
REMARK VINA RESULT:      -5.9      1.503      1.646
REMARK  Name = 
REMARK  3 active torsions:
REMARK  status: ('A' for Active; 'I' for Inactive)
REMARK    1  A    between atoms: O_1  and  N_2
REMARK    2  A    between atoms: C_3  and  C_5
REMARK    3  A    between atoms: C_6  and  C_7
REMARK                            x       y       z     vdW  Elec       q    Type
REMARK                         _______ _______ _______ _____ _____    ______ ____
ROOT
ATOM      1  C   UNL     1      11.336   4.159  23.383  0.00  0.00    +0.070 C 
ATOM      2  C   UNL     1      10.101   3.689  23.621  0.00  0.00    +0.014 C 
ENDROOT
BRANCH   2   3
ATOM      3  C   UNL     1       9.679   2.316  23.275  0.00  0.00    -0.006 A 
ATOM      4  C   UNL     1       8.784   1.579  24.077  0.00  0.00    +0.049 A 
ATOM      5 CL   UNL     1       8.110   2.219  25.538  0.00  0.00    -0.083 Cl
ATOM      6  C   UNL     1       8.382   0.290  23.707  0.00  0.00    +0.040 A 
ATOM      7  C   UNL     1       8.872  -0.282  22.539  0.00  0.00    +0.042 A 
ATOM      8 CL   UNL     1       8.356  -1.854  22.068  0.00  0.00    -0.083 Cl
ATOM      9  C   UNL     1       9.778   0.411  21.745  0.00  0.00    +0.020 A 
ATOM     10  C   UNL     1      10.189   1.693  22.118  0.00  0.00    +0.011 A 
ENDBRANCH   2   3
BRANCH   1  13
ATOM     11  N   UNL     1      13.031   5.869  23.599  0.00  0.00    -0.194 N 
ATOM     12  H   UNL     1      13.318   6.830  23.759  0.00  0.00    +0.183 HD
ATOM     13  C   UNL     1      11.707   5.561  23.704  0.00  0.00    +0.259 C 
ATOM     14  O   UNL     1      10.882   6.401  24.044  0.00  0.00    -0.269 OA
BRANCH  11  15
ATOM     15  O   UNL     1      13.982   4.919  23.189  0.00  0.00    -0.295 OA
ATOM     16  H   UNL     1      13.442   4.216  22.785  0.00  0.00    +0.241 HD
ENDBRANCH  11  15
ENDBRANCH   1  13
TORSDOF 3
ENDMDL
MODEL 3
REMARK VINA RESULT:      -5.6      5.909      7.368
REMARK  Name = 
REMARK  3 active torsions:
REMARK  status: ('A' for Active; 'I' for Inactive)
REMARK    1  A    between atoms: O_1  and  N_2
REMARK    2  A    between atoms: C_3  and  C_5
REMARK    3  A    between atoms: C_6  and  C_7
REMARK                            x       y       z     vdW  Elec       q    Type
REMARK                         _______ _______ _______ _____ _____    ______ ____
ROOT
ATOM      1  C   UNL     1       9.467  -3.617  24.570  0.00  0.00    +0.070 C 
ATOM      2  C   UNL     1       8.784  -2.656  23.926  0.00  0.00    +0.014 C 
ENDROOT
BRANCH   2   3
ATOM      3  C   UNL     1       9.261  -1.262  23.816  0.00  0.00    -0.006 A 
ATOM      4  C   UNL     1       9.341  -0.403  24.931  0.00  0.00    +0.049 A 
ATOM      5 CL   UNL     1       8.880  -0.909  26.522  0.00  0.00    -0.083 Cl
ATOM      6  C   UNL     1       9.822   0.904  24.799  0.00  0.00    +0.040 A 
ATOM      7  C   UNL     1      10.223   1.374  23.553  0.00  0.00    +0.042 A 
ATOM      8 CL   UNL     1      10.843   2.970  23.394  0.00  0.00    -0.083 Cl
ATOM      9  C   UNL     1      10.127   0.558  22.432  0.00  0.00    +0.020 A 
ATOM     10  C   UNL     1       9.636  -0.743  22.560  0.00  0.00    +0.011 A 
ENDBRANCH   2   3
BRANCH   1  13
ATOM     11  N   UNL     1       8.947  -5.530  25.954  0.00  0.00    -0.194 N 
ATOM     12  H   UNL     1       8.541  -6.450  26.093  0.00  0.00    +0.183 HD
ATOM     13  C   UNL     1       8.930  -4.996  24.700  0.00  0.00    +0.259 C 
ATOM     14  O   UNL     1       8.494  -5.628  23.743  0.00  0.00    -0.269 OA
BRANCH  11  15
ATOM     15  O   UNL     1       9.424  -4.806  27.059  0.00  0.00    -0.295 OA
ATOM     16  H   UNL     1       9.704  -5.500  27.683  0.00  0.00    +0.241 HD
ENDBRANCH  11  15
ENDBRANCH   1  13
TORSDOF 3
ENDMDL
MODEL 4
REMARK VINA RESULT:      -5.5      2.846      3.801
REMARK  Name = 
REMARK  3 active torsions:
REMARK  status: ('A' for Active; 'I' for Inactive)
REMARK    1  A    between atoms: O_1  and  N_2
REMARK    2  A    between atoms: C_3  and  C_5
REMARK    3  A    between atoms: C_6  and  C_7
REMARK                            x       y       z     vdW  Elec       q    Type
REMARK                         _______ _______ _______ _____ _____    ______ ____
ROOT
ATOM      1  C   UNL     1       8.982   1.349  23.968  0.00  0.00    +0.070 C 
ATOM      2  C   UNL     1       9.725   0.522  24.722  0.00  0.00    +0.014 C 
ENDROOT
BRANCH   2   3
ATOM      3  C   UNL     1       9.379  -0.896  24.946  0.00  0.00    -0.006 A 
ATOM      4  C   UNL     1       9.692  -1.904  24.011  0.00  0.00    +0.049 A 
ATOM      5 CL   UNL     1      10.502  -1.561  22.519  0.00  0.00    -0.083 Cl
ATOM      6  C   UNL     1       9.375  -3.244  24.264  0.00  0.00    +0.040 A 
ATOM      7  C   UNL     1       8.736  -3.594  25.448  0.00  0.00    +0.042 A 
ATOM      8 CL   UNL     1       8.372  -5.243  25.774  0.00  0.00    -0.083 Cl
ATOM      9  C   UNL     1       8.390  -2.617  26.374  0.00  0.00    +0.020 A 
ATOM     10  C   UNL     1       8.695  -1.279  26.118  0.00  0.00    +0.011 A 
ENDBRANCH   2   3
BRANCH   1  13
ATOM     11  N   UNL     1       9.935   3.121  22.629  0.00  0.00    -0.194 N 
ATOM     12  H   UNL     1      10.147   4.099  22.458  0.00  0.00    +0.183 HD
ATOM     13  C   UNL     1       9.339   2.782  23.806  0.00  0.00    +0.259 C 
ATOM     14  O   UNL     1       9.116   3.620  24.673  0.00  0.00    -0.269 OA
BRANCH  11  15
ATOM     15  O   UNL     1      10.175   2.172  21.620  0.00  0.00    -0.295 OA
ATOM     16  H   UNL     1       9.426   1.555  21.705  0.00  0.00    +0.241 HD
ENDBRANCH  11  15
ENDBRANCH   1  13
TORSDOF 3
ENDMDL
MODEL 5
REMARK VINA RESULT:      -5.5      6.031      7.346
REMARK  Name = 
REMARK  3 active torsions:
REMARK  status: ('A' for Active; 'I' for Inactive)
REMARK    1  A    between atoms: O_1  and  N_2
REMARK    2  A    between atoms: C_3  and  C_5
REMARK    3  A    between atoms: C_6  and  C_7
REMARK                            x       y       z     vdW  Elec       q    Type
REMARK                         _______ _______ _______ _____ _____    ______ ____
ROOT
ATOM      1  C   UNL     1       8.786  -3.484  25.708  0.00  0.00    +0.070 C 
ATOM      2  C   UNL     1       8.111  -2.370  25.380  0.00  0.00    +0.014 C 
ENDROOT
BRANCH   2   3
ATOM      3  C   UNL     1       8.691  -1.286  24.563  0.00  0.00    -0.006 A 
ATOM      4  C   UNL     1       8.593  -1.268  23.156  0.00  0.00    +0.049 A 
ATOM      5 CL   UNL     1       7.788  -2.519  22.270  0.00  0.00    -0.083 Cl
ATOM      6  C   UNL     1       9.130  -0.212  22.411  0.00  0.00    +0.040 A 
ATOM      7  C   UNL     1       9.779   0.834  23.058  0.00  0.00    +0.042 A 
ATOM      8 CL   UNL     1      10.414   2.148  22.146  0.00  0.00    -0.083 Cl
ATOM      9  C   UNL     1       9.916   0.827  24.440  0.00  0.00    +0.020 A 
ATOM     10  C   UNL     1       9.390  -0.231  25.185  0.00  0.00    +0.011 A 
ENDBRANCH   2   3
BRANCH   1  13
ATOM     11  N   UNL     1       8.667  -5.794  26.411  0.00  0.00    -0.194 N 
ATOM     12  H   UNL     1       8.317  -6.528  27.019  0.00  0.00    +0.183 HD
ATOM     13  C   UNL     1       8.182  -4.531  26.572  0.00  0.00    +0.259 C 
ATOM     14  O   UNL     1       7.297  -4.286  27.386  0.00  0.00    -0.269 OA
BRANCH  11  15
ATOM     15  O   UNL     1       9.695  -6.081  25.497  0.00  0.00    -0.295 OA
ATOM     16  H   UNL     1       9.792  -5.251  24.995  0.00  0.00    +0.241 HD
ENDBRANCH  11  15
ENDBRANCH   1  13
TORSDOF 3
ENDMDL
MODEL 6
REMARK VINA RESULT:      -5.5      3.432      4.383
REMARK  Name = 
REMARK  3 active torsions:
REMARK  status: ('A' for Active; 'I' for Inactive)
REMARK    1  A    between atoms: O_1  and  N_2
REMARK    2  A    between atoms: C_3  and  C_5
REMARK    3  A    between atoms: C_6  and  C_7
REMARK                            x       y       z     vdW  Elec       q    Type
REMARK                         _______ _______ _______ _____ _____    ______ ____
ROOT
ATOM      1  C   UNL     1      10.064   0.553  23.233  0.00  0.00    +0.070 C 
ATOM      2  C   UNL     1       9.445   0.244  24.384  0.00  0.00    +0.014 C 
ENDROOT
BRANCH   2   3
ATOM      3  C   UNL     1       9.214  -1.146  24.828  0.00  0.00    -0.006 A 
ATOM      4  C   UNL     1       8.570  -1.450  26.046  0.00  0.00    +0.049 A 
ATOM      5 CL   UNL     1       8.004  -0.219  27.125  0.00  0.00    -0.083 Cl
ATOM      6  C   UNL     1       8.342  -2.777  26.427  0.00  0.00    +0.040 A 
ATOM      7  C   UNL     1       8.757  -3.817  25.603  0.00  0.00    +0.042 A 
ATOM      8 CL   UNL     1       8.450  -5.448  26.055  0.00  0.00    -0.083 Cl
ATOM      9  C   UNL     1       9.419  -3.547  24.412  0.00  0.00    +0.020 A 
ATOM     10  C   UNL     1       9.659  -2.223  24.035  0.00  0.00    +0.011 A 
ENDBRANCH   2   3
BRANCH   1  13
ATOM     11  N   UNL     1       9.633   2.306  21.625  0.00  0.00    -0.194 N 
ATOM     12  H   UNL     1       9.683   3.273  21.321  0.00  0.00    +0.183 HD
ATOM     13  C   UNL     1      10.235   1.963  22.799  0.00  0.00    +0.259 C 
ATOM     14  O   UNL     1      10.879   2.781  23.449  0.00  0.00    -0.269 OA
BRANCH  11  15
ATOM     15  O   UNL     1       8.876   1.382  20.885  0.00  0.00    -0.295 OA
ATOM     16  H   UNL     1       9.455   1.164  20.132  0.00  0.00    +0.241 HD
ENDBRANCH  11  15
ENDBRANCH   1  13
TORSDOF 3
ENDMDL
MODEL 7
REMARK VINA RESULT:      -5.3      7.381      8.852
REMARK  Name = 
REMARK  3 active torsions:
REMARK  status: ('A' for Active; 'I' for Inactive)
REMARK    1  A    between atoms: O_1  and  N_2
REMARK    2  A    between atoms: C_3  and  C_5
REMARK    3  A    between atoms: C_6  and  C_7
REMARK                            x       y       z     vdW  Elec       q    Type
REMARK                         _______ _______ _______ _____ _____    ______ ____
ROOT
ATOM      1  C   UNL     1       6.457  -4.755  25.620  0.00  0.00    +0.070 C 
ATOM      2  C   UNL     1       7.213  -4.930  24.524  0.00  0.00    +0.014 C 
ENDROOT
BRANCH   2   3
ATOM      3  C   UNL     1       7.929  -3.827  23.852  0.00  0.00    -0.006 A 
ATOM      4  C   UNL     1       7.382  -3.134  22.752  0.00  0.00    +0.049 A 
ATOM      5 CL   UNL     1       5.829  -3.524  22.094  0.00  0.00    -0.083 Cl
ATOM      6  C   UNL     1       8.074  -2.074  22.154  0.00  0.00    +0.040 A 
ATOM      7  C   UNL     1       9.321  -1.698  22.639  0.00  0.00    +0.042 A 
ATOM      8 CL   UNL     1      10.160  -0.376  21.924  0.00  0.00    -0.083 Cl
ATOM      9  C   UNL     1       9.897  -2.382  23.702  0.00  0.00    +0.020 A 
ATOM     10  C   UNL     1       9.213  -3.447  24.294  0.00  0.00    +0.011 A 
ENDBRANCH   2   3
BRANCH   1  13
ATOM     11  N   UNL     1       6.289  -6.448  27.337  0.00  0.00    -0.194 N 
ATOM     12  H   UNL     1       5.788  -7.187  27.819  0.00  0.00    +0.183 HD
ATOM     13  C   UNL     1       5.714  -5.883  26.238  0.00  0.00    +0.259 C 
ATOM     14  O   UNL     1       4.646  -6.292  25.796  0.00  0.00    -0.269 OA
BRANCH  11  15
ATOM     15  O   UNL     1       7.502  -5.972  27.865  0.00  0.00    -0.295 OA
ATOM     16  H   UNL     1       7.227  -5.234  28.439  0.00  0.00    +0.241 HD
ENDBRANCH  11  15
ENDBRANCH   1  13
TORSDOF 3
ENDMDL
MODEL 8
REMARK VINA RESULT:      -5.3      5.826      7.129
REMARK  Name = 
REMARK  3 active torsions:
REMARK  status: ('A' for Active; 'I' for Inactive)
REMARK    1  A    between atoms: O_1  and  N_2
REMARK    2  A    between atoms: C_3  and  C_5
REMARK    3  A    between atoms: C_6  and  C_7
REMARK                            x       y       z     vdW  Elec       q    Type
REMARK                         _______ _______ _______ _____ _____    ______ ____
ROOT
ATOM      1  C   UNL     1       8.880  -3.301  24.910  0.00  0.00    +0.070 C 
ATOM      2  C   UNL     1       9.301  -2.504  23.913  0.00  0.00    +0.014 C 
ENDROOT
BRANCH   2   3
ATOM      3  C   UNL     1       9.263  -1.029  23.989  0.00  0.00    -0.006 A 
ATOM      4  C   UNL     1       8.140  -0.283  23.574  0.00  0.00    +0.049 A 
ATOM      5 CL   UNL     1       6.716  -1.034  22.937  0.00  0.00    -0.083 Cl
ATOM      6  C   UNL     1       8.124   1.112  23.683  0.00  0.00    +0.040 A 
ATOM      7  C   UNL     1       9.228   1.781  24.199  0.00  0.00    +0.042 A 
ATOM      8 CL   UNL     1       9.199   3.494  24.361  0.00  0.00    -0.083 Cl
ATOM      9  C   UNL     1      10.359   1.073  24.587  0.00  0.00    +0.020 A 
ATOM     10  C   UNL     1      10.381  -0.318  24.469  0.00  0.00    +0.011 A 
ENDBRANCH   2   3
BRANCH   1  13
ATOM     11  N   UNL     1       9.220  -5.480  25.898  0.00  0.00    -0.194 N 
ATOM     12  H   UNL     1       9.188  -6.495  25.862  0.00  0.00    +0.183 HD
ATOM     13  C   UNL     1       8.891  -4.780  24.776  0.00  0.00    +0.259 C 
ATOM     14  O   UNL     1       8.623  -5.350  23.724  0.00  0.00    -0.269 OA
BRANCH  11  15
ATOM     15  O   UNL     1       9.508  -4.837  27.114  0.00  0.00    -0.295 OA
ATOM     16  H   UNL     1       9.673  -3.914  26.850  0.00  0.00    +0.241 HD
ENDBRANCH  11  15
ENDBRANCH   1  13
TORSDOF 3
ENDMDL
MODEL 9
REMARK VINA RESULT:      -5.3      5.868      7.408
REMARK  Name = 
REMARK  3 active torsions:
REMARK  status: ('A' for Active; 'I' for Inactive)
REMARK    1  A    between atoms: O_1  and  N_2
REMARK    2  A    between atoms: C_3  and  C_5
REMARK    3  A    between atoms: C_6  and  C_7
REMARK                            x       y       z     vdW  Elec       q    Type
REMARK                         _______ _______ _______ _____ _____    ______ ____
ROOT
ATOM      1  C   UNL     1       7.860  -2.928  22.588  0.00  0.00    +0.070 C 
ATOM      2  C   UNL     1       8.790  -2.460  23.436  0.00  0.00    +0.014 C 
ENDROOT
BRANCH   2   3
ATOM      3  C   UNL     1       9.259  -1.060  23.427  0.00  0.00    -0.006 A 
ATOM      4  C   UNL     1       9.376  -0.297  24.608  0.00  0.00    +0.049 A 
ATOM      5 CL   UNL     1       8.972  -0.937  26.166  0.00  0.00    -0.083 Cl
ATOM      6  C   UNL     1       9.850   1.020  24.570  0.00  0.00    +0.040 A 
ATOM      7  C   UNL     1      10.206   1.594  23.355  0.00  0.00    +0.042 A 
ATOM      8 CL   UNL     1      10.816   3.202  23.310  0.00  0.00    -0.083 Cl
ATOM      9  C   UNL     1      10.073   0.876  22.173  0.00  0.00    +0.020 A 
ATOM     10  C   UNL     1       9.590  -0.434  22.208  0.00  0.00    +0.011 A 
ENDBRANCH   2   3
BRANCH   1  13
ATOM     11  N   UNL     1       6.320  -4.659  21.897  0.00  0.00    -0.194 N 
ATOM     12  H   UNL     1       6.036  -5.631  21.836  0.00  0.00    +0.183 HD
ATOM     13  C   UNL     1       7.449  -4.355  22.598  0.00  0.00    +0.259 C 
ATOM     14  O   UNL     1       8.079  -5.220  23.197  0.00  0.00    -0.269 OA
BRANCH  11  15
ATOM     15  O   UNL     1       5.604  -3.679  21.189  0.00  0.00    -0.295 OA
ATOM     16  H   UNL     1       4.676  -3.860  21.425  0.00  0.00    +0.241 HD
ENDBRANCH  11  15
ENDBRANCH   1  13
TORSDOF 3
ENDMDL
