MODEL 1
REMARK VINA RESULT:      -5.5      0.000      0.000
REMARK  Name = 
REMARK  11 active torsions:
REMARK  status: ('A' for Active; 'I' for Inactive)
REMARK    1  A    between atoms: C_1  and  C_2
REMARK    2  A    between atoms: C_2  and  C_3
REMARK    3  A    between atoms: C_3  and  C_4
REMARK    4  A    between atoms: C_4  and  C_5
REMARK    5  A    between atoms: C_5  and  C_6
REMARK    6  A    between atoms: C_6  and  C_7
REMARK    7  A    between atoms: C_7  and  C_8
REMARK    8  A    between atoms: C_8  and  C_9
REMARK    9  A    between atoms: C_9  and  C_10
REMARK   10  A    between atoms: C_10  and  C_11
REMARK   11  A    between atoms: C_12  and  O_13
REMARK                            x       y       z     vdW  Elec       q    Type
REMARK                         _______ _______ _______ _____ _____    ______ ____
ROOT
ATOM      1  C   UNL     1       7.640  -4.037  23.375  0.00  0.00    +0.044 C 
ENDROOT
BRANCH   1   2
ATOM      2  C   UNL     1       7.852  -4.605  24.729  0.00  0.00    +0.061 C 
ATOM      3  C   UNL     1       9.195  -4.861  25.279  0.00  0.00    +0.250 C 
ATOM      4  O   UNL     1      10.245  -4.644  24.702  0.00  0.00    -0.270 OA
ATOM      5  N   UNL     1       9.039  -5.359  26.523  0.00  0.00    -0.246 N 
ATOM      6  H   UNL     1       9.795  -5.603  27.140  0.00  0.00    +0.158 HD
ATOM      7  C   UNL     1       7.733  -5.419  26.864  0.00  0.00    +0.285 C 
ATOM      8  O   UNL     1       7.271  -5.776  27.929  0.00  0.00    -0.266 OA
ATOM      9  C   UNL     1       6.976  -4.944  25.683  0.00  0.00    +0.188 C 
BRANCH   9  10
ATOM     10  O   UNL     1       5.612  -4.890  25.633  0.00  0.00    -0.502 OA
ATOM     11  H   UNL     1       5.308  -4.085  26.081  0.00  0.00    +0.292 HD
ENDBRANCH   9  10
ENDBRANCH   1   2
BRANCH   1  12
ATOM     12  C   UNL     1       7.848  -2.524  23.367  0.00  0.00    +0.005 C 
BRANCH  12  13
ATOM     13  C   UNL     1       8.820  -2.104  22.267  0.00  0.00    +0.000 C 
BRANCH  13  14
ATOM     14  C   UNL     1      10.156  -1.664  22.861  0.00  0.00    +0.000 C 
BRANCH  14  15
ATOM     15  C   UNL     1       9.961  -0.943  24.192  0.00  0.00    +0.000 C 
BRANCH  15  16
ATOM     16  C   UNL     1      10.691   0.399  24.199  0.00  0.00    -0.000 C 
BRANCH  16  17
ATOM     17  C   UNL     1       9.764   1.535  23.771  0.00  0.00    -0.000 C 
BRANCH  17  18
ATOM     18  C   UNL     1       9.967   1.886  22.299  0.00  0.00    -0.000 C 
BRANCH  18  20
ATOM     19  C   UNL     1       7.496   1.417  22.341  0.00  0.00    +0.004 C 
ATOM     20  C   UNL     1       8.736   1.530  21.470  0.00  0.00    -0.003 C 
ENDBRANCH  18  20
ENDBRANCH  17  18
ENDBRANCH  16  17
ENDBRANCH  15  16
ENDBRANCH  14  15
ENDBRANCH  13  14
ENDBRANCH  12  13
ENDBRANCH   1  12
TORSDOF 10
ENDMDL
MODEL 2
REMARK VINA RESULT:      -5.2      1.222      2.157
REMARK  Name = 
REMARK  11 active torsions:
REMARK  status: ('A' for Active; 'I' for Inactive)
REMARK    1  A    between atoms: C_1  and  C_2
REMARK    2  A    between atoms: C_2  and  C_3
REMARK    3  A    between atoms: C_3  and  C_4
REMARK    4  A    between atoms: C_4  and  C_5
REMARK    5  A    between atoms: C_5  and  C_6
REMARK    6  A    between atoms: C_6  and  C_7
REMARK    7  A    between atoms: C_7  and  C_8
REMARK    8  A    between atoms: C_8  and  C_9
REMARK    9  A    between atoms: C_9  and  C_10
REMARK   10  A    between atoms: C_10  and  C_11
REMARK   11  A    between atoms: C_12  and  O_13
REMARK                            x       y       z     vdW  Elec       q    Type
REMARK                         _______ _______ _______ _____ _____    ______ ____
ROOT
ATOM      1  C   UNL     1       7.505  -3.555  22.436  0.00  0.00    +0.044 C 
ENDROOT
BRANCH   1   2
ATOM      2  C   UNL     1       7.235  -4.152  23.768  0.00  0.00    +0.061 C 
ATOM      3  C   UNL     1       5.896  -4.143  24.384  0.00  0.00    +0.250 C 
ATOM      4  O   UNL     1       4.896  -3.659  23.886  0.00  0.00    -0.270 OA
ATOM      5  N   UNL     1       5.990  -4.772  25.574  0.00  0.00    -0.246 N 
ATOM      6  H   UNL     1       5.218  -4.930  26.199  0.00  0.00    +0.158 HD
ATOM      7  C   UNL     1       7.243  -5.230  25.786  0.00  0.00    +0.285 C 
ATOM      8  O   UNL     1       7.635  -5.874  26.738  0.00  0.00    -0.266 OA
ATOM      9  C   UNL     1       8.043  -4.802  24.614  0.00  0.00    +0.188 C 
BRANCH   9  10
ATOM     10  O   UNL     1       9.379  -5.056  24.480  0.00  0.00    -0.502 OA
ATOM     11  H   UNL     1       9.533  -6.010  24.565  0.00  0.00    +0.292 HD
ENDBRANCH   9  10
ENDBRANCH   1   2
BRANCH   1  12
ATOM     12  C   UNL     1       7.818  -2.065  22.546  0.00  0.00    +0.005 C 
BRANCH  12  13
ATOM     13  C   UNL     1       9.229  -1.758  22.047  0.00  0.00    +0.000 C 
BRANCH  13  14
ATOM     14  C   UNL     1      10.242  -1.857  23.185  0.00  0.00    +0.000 C 
BRANCH  14  15
ATOM     15  C   UNL     1       9.817  -1.008  24.382  0.00  0.00    +0.000 C 
BRANCH  15  16
ATOM     16  C   UNL     1      10.650   0.269  24.469  0.00  0.00    -0.000 C 
BRANCH  16  17
ATOM     17  C   UNL     1       9.759   1.506  24.547  0.00  0.00    -0.000 C 
BRANCH  17  18
ATOM     18  C   UNL     1      10.088   2.492  23.428  0.00  0.00    -0.000 C 
BRANCH  18  20
ATOM     19  C   UNL     1       8.467   1.853  21.612  0.00  0.00    +0.004 C 
ATOM     20  C   UNL     1       9.921   1.847  22.054  0.00  0.00    -0.003 C 
ENDBRANCH  18  20
ENDBRANCH  17  18
ENDBRANCH  16  17
ENDBRANCH  15  16
ENDBRANCH  14  15
ENDBRANCH  13  14
ENDBRANCH  12  13
ENDBRANCH   1  12
TORSDOF 10
ENDMDL
MODEL 3
REMARK VINA RESULT:      -5.1      0.915      1.621
REMARK  Name = 
REMARK  11 active torsions:
REMARK  status: ('A' for Active; 'I' for Inactive)
REMARK    1  A    between atoms: C_1  and  C_2
REMARK    2  A    between atoms: C_2  and  C_3
REMARK    3  A    between atoms: C_3  and  C_4
REMARK    4  A    between atoms: C_4  and  C_5
REMARK    5  A    between atoms: C_5  and  C_6
REMARK    6  A    between atoms: C_6  and  C_7
REMARK    7  A    between atoms: C_7  and  C_8
REMARK    8  A    between atoms: C_8  and  C_9
REMARK    9  A    between atoms: C_9  and  C_10
REMARK   10  A    between atoms: C_10  and  C_11
REMARK   11  A    between atoms: C_12  and  O_13
REMARK                            x       y       z     vdW  Elec       q    Type
REMARK                         _______ _______ _______ _____ _____    ______ ____
ROOT
ATOM      1  C   UNL     1       8.122  -3.482  23.464  0.00  0.00    +0.044 C 
ENDROOT
BRANCH   1   2
ATOM      2  C   UNL     1       8.005  -4.343  24.667  0.00  0.00    +0.061 C 
ATOM      3  C   UNL     1       9.168  -5.001  25.287  0.00  0.00    +0.250 C 
ATOM      4  O   UNL     1      10.317  -4.918  24.892  0.00  0.00    -0.270 OA
ATOM      5  N   UNL     1       8.725  -5.689  26.360  0.00  0.00    -0.246 N 
ATOM      6  H   UNL     1       9.312  -6.217  26.983  0.00  0.00    +0.158 HD
ATOM      7  C   UNL     1       7.397  -5.517  26.534  0.00  0.00    +0.285 C 
ATOM      8  O   UNL     1       6.712  -5.965  27.432  0.00  0.00    -0.266 OA
ATOM      9  C   UNL     1       6.941  -4.657  25.417  0.00  0.00    +0.188 C 
BRANCH   9  10
ATOM     10  O   UNL     1       5.639  -4.286  25.233  0.00  0.00    -0.502 OA
ATOM     11  H   UNL     1       5.610  -3.367  24.924  0.00  0.00    +0.292 HD
ENDBRANCH   9  10
ENDBRANCH   1   2
BRANCH   1  12
ATOM     12  C   UNL     1       8.191  -2.004  23.842  0.00  0.00    +0.005 C 
BRANCH  12  13
ATOM     13  C   UNL     1       9.637  -1.521  23.927  0.00  0.00    +0.000 C 
BRANCH  13  14
ATOM     14  C   UNL     1      10.300  -1.543  22.551  0.00  0.00    +0.000 C 
BRANCH  14  15
ATOM     15  C   UNL     1       9.543  -0.666  21.557  0.00  0.00    +0.000 C 
BRANCH  15  16
ATOM     16  C   UNL     1       9.767   0.815  21.855  0.00  0.00    -0.000 C 
BRANCH  16  17
ATOM     17  C   UNL     1       8.517   1.636  21.545  0.00  0.00    -0.000 C 
BRANCH  17  18
ATOM     18  C   UNL     1       7.993   2.335  22.798  0.00  0.00    -0.000 C 
BRANCH  18  20
ATOM     19  C   UNL     1       8.274   1.713  25.220  0.00  0.00    +0.004 C 
ATOM     20  C   UNL     1       8.973   2.196  23.960  0.00  0.00    -0.003 C 
ENDBRANCH  18  20
ENDBRANCH  17  18
ENDBRANCH  16  17
ENDBRANCH  15  16
ENDBRANCH  14  15
ENDBRANCH  13  14
ENDBRANCH  12  13
ENDBRANCH   1  12
TORSDOF 10
ENDMDL
MODEL 4
REMARK VINA RESULT:      -5.1      2.285      3.270
REMARK  Name = 
REMARK  11 active torsions:
REMARK  status: ('A' for Active; 'I' for Inactive)
REMARK    1  A    between atoms: C_1  and  C_2
REMARK    2  A    between atoms: C_2  and  C_3
REMARK    3  A    between atoms: C_3  and  C_4
REMARK    4  A    between atoms: C_4  and  C_5
REMARK    5  A    between atoms: C_5  and  C_6
REMARK    6  A    between atoms: C_6  and  C_7
REMARK    7  A    between atoms: C_7  and  C_8
REMARK    8  A    between atoms: C_8  and  C_9
REMARK    9  A    between atoms: C_9  and  C_10
REMARK   10  A    between atoms: C_10  and  C_11
REMARK   11  A    between atoms: C_12  and  O_13
REMARK                            x       y       z     vdW  Elec       q    Type
REMARK                         _______ _______ _______ _____ _____    ______ ____
ROOT
ATOM      1  C   UNL     1       6.986  -3.149  24.578  0.00  0.00    +0.044 C 
ENDROOT
BRANCH   1   2
ATOM      2  C   UNL     1       6.949  -4.082  23.424  0.00  0.00    +0.061 C 
ATOM      3  C   UNL     1       7.870  -5.225  23.299  0.00  0.00    +0.250 C 
ATOM      4  O   UNL     1       8.738  -5.520  24.100  0.00  0.00    -0.270 OA
ATOM      5  N   UNL     1       7.564  -5.873  22.156  0.00  0.00    -0.246 N 
ATOM      6  H   UNL     1       8.023  -6.707  21.831  0.00  0.00    +0.158 HD
ATOM      7  C   UNL     1       6.510  -5.299  21.537  0.00  0.00    +0.285 C 
ATOM      8  O   UNL     1       5.967  -5.673  20.517  0.00  0.00    -0.266 OA
ATOM      9  C   UNL     1       6.134  -4.127  22.362  0.00  0.00    +0.188 C 
BRANCH   9  10
ATOM     10  O   UNL     1       5.121  -3.270  22.039  0.00  0.00    -0.502 OA
ATOM     11  H   UNL     1       4.599  -3.651  21.315  0.00  0.00    +0.292 HD
ENDBRANCH   9  10
ENDBRANCH   1   2
BRANCH   1  12
ATOM     12  C   UNL     1       7.713  -1.854  24.223  0.00  0.00    +0.005 C 
BRANCH  12  13
ATOM     13  C   UNL     1       9.211  -1.967  24.498  0.00  0.00    +0.000 C 
BRANCH  13  14
ATOM     14  C   UNL     1      10.020  -1.648  23.242  0.00  0.00    +0.000 C 
BRANCH  14  15
ATOM     15  C   UNL     1       9.116  -1.518  22.019  0.00  0.00    +0.000 C 
BRANCH  15  16
ATOM     16  C   UNL     1       9.487  -0.287  21.195  0.00  0.00    -0.000 C 
BRANCH  16  17
ATOM     17  C   UNL     1       9.922   0.869  22.093  0.00  0.00    -0.000 C 
BRANCH  17  18
ATOM     18  C   UNL     1       8.890   1.995  22.079  0.00  0.00    -0.000 C 
BRANCH  18  20
ATOM     19  C   UNL     1       9.442   1.776  24.525  0.00  0.00    +0.004 C 
ATOM     20  C   UNL     1       8.686   2.575  23.477  0.00  0.00    -0.003 C 
ENDBRANCH  18  20
ENDBRANCH  17  18
ENDBRANCH  16  17
ENDBRANCH  15  16
ENDBRANCH  14  15
ENDBRANCH  13  14
ENDBRANCH  12  13
ENDBRANCH   1  12
TORSDOF 10
ENDMDL
MODEL 5
REMARK VINA RESULT:      -5.0      3.732      6.675
REMARK  Name = 
REMARK  11 active torsions:
REMARK  status: ('A' for Active; 'I' for Inactive)
REMARK    1  A    between atoms: C_1  and  C_2
REMARK    2  A    between atoms: C_2  and  C_3
REMARK    3  A    between atoms: C_3  and  C_4
REMARK    4  A    between atoms: C_4  and  C_5
REMARK    5  A    between atoms: C_5  and  C_6
REMARK    6  A    between atoms: C_6  and  C_7
REMARK    7  A    between atoms: C_7  and  C_8
REMARK    8  A    between atoms: C_8  and  C_9
REMARK    9  A    between atoms: C_9  and  C_10
REMARK   10  A    between atoms: C_10  and  C_11
REMARK   11  A    between atoms: C_12  and  O_13
REMARK                            x       y       z     vdW  Elec       q    Type
REMARK                         _______ _______ _______ _____ _____    ______ ____
ROOT
ATOM      1  C   UNL     1       9.609  -1.455  23.410  0.00  0.00    +0.044 C 
ENDROOT
BRANCH   1   2
ATOM      2  C   UNL     1       9.915  -0.036  23.097  0.00  0.00    +0.061 C 
ATOM      3  C   UNL     1       9.666   0.554  21.770  0.00  0.00    +0.250 C 
ATOM      4  O   UNL     1       9.200  -0.037  20.814  0.00  0.00    -0.270 OA
ATOM      5  N   UNL     1      10.035   1.850  21.824  0.00  0.00    -0.246 N 
ATOM      6  H   UNL     1       9.953   2.500  21.061  0.00  0.00    +0.158 HD
ATOM      7  C   UNL     1      10.463   2.185  23.061  0.00  0.00    +0.285 C 
ATOM      8  O   UNL     1      10.818   3.283  23.441  0.00  0.00    -0.266 OA
ATOM      9  C   UNL     1      10.397   0.945  23.870  0.00  0.00    +0.188 C 
BRANCH   9  10
ATOM     10  O   UNL     1      10.783   0.877  25.179  0.00  0.00    -0.502 OA
ATOM     11  H   UNL     1      10.720  -0.042  25.482  0.00  0.00    +0.292 HD
ENDBRANCH   9  10
ENDBRANCH   1   2
BRANCH   1  12
ATOM     12  C   UNL     1       8.340  -1.578  24.249  0.00  0.00    +0.005 C 
BRANCH  12  13
ATOM     13  C   UNL     1       7.104  -1.729  23.365  0.00  0.00    +0.000 C 
BRANCH  13  14
ATOM     14  C   UNL     1       7.360  -2.727  22.238  0.00  0.00    +0.000 C 
BRANCH  14  15
ATOM     15  C   UNL     1       6.612  -4.037  22.478  0.00  0.00    +0.000 C 
BRANCH  15  16
ATOM     16  C   UNL     1       7.566  -5.131  22.952  0.00  0.00    -0.000 C 
BRANCH  16  17
ATOM     17  C   UNL     1       7.519  -5.284  24.471  0.00  0.00    -0.000 C 
BRANCH  17  18
ATOM     18  C   UNL     1       8.919  -5.201  25.076  0.00  0.00    -0.000 C 
BRANCH  18  20
ATOM     19  C   UNL     1       7.478  -4.135  26.841  0.00  0.00    +0.004 C 
ATOM     20  C   UNL     1       8.890  -4.536  26.450  0.00  0.00    -0.003 C 
ENDBRANCH  18  20
ENDBRANCH  17  18
ENDBRANCH  16  17
ENDBRANCH  15  16
ENDBRANCH  14  15
ENDBRANCH  13  14
ENDBRANCH  12  13
ENDBRANCH   1  12
TORSDOF 10
ENDMDL
MODEL 6
REMARK VINA RESULT:      -5.0      1.691      2.510
REMARK  Name = 
REMARK  11 active torsions:
REMARK  status: ('A' for Active; 'I' for Inactive)
REMARK    1  A    between atoms: C_1  and  C_2
REMARK    2  A    between atoms: C_2  and  C_3
REMARK    3  A    between atoms: C_3  and  C_4
REMARK    4  A    between atoms: C_4  and  C_5
REMARK    5  A    between atoms: C_5  and  C_6
REMARK    6  A    between atoms: C_6  and  C_7
REMARK    7  A    between atoms: C_7  and  C_8
REMARK    8  A    between atoms: C_8  and  C_9
REMARK    9  A    between atoms: C_9  and  C_10
REMARK   10  A    between atoms: C_10  and  C_11
REMARK   11  A    between atoms: C_12  and  O_13
REMARK                            x       y       z     vdW  Elec       q    Type
REMARK                         _______ _______ _______ _____ _____    ______ ____
ROOT
ATOM      1  C   UNL     1       8.626  -3.980  24.592  0.00  0.00    +0.044 C 
ENDROOT
BRANCH   1   2
ATOM      2  C   UNL     1       7.454  -4.747  25.083  0.00  0.00    +0.061 C 
ATOM      3  C   UNL     1       6.212  -4.882  24.302  0.00  0.00    +0.250 C 
ATOM      4  O   UNL     1       6.014  -4.392  23.205  0.00  0.00    -0.270 OA
ATOM      5  N   UNL     1       5.360  -5.645  25.017  0.00  0.00    -0.246 N 
ATOM      6  H   UNL     1       4.442  -5.917  24.712  0.00  0.00    +0.158 HD
ATOM      7  C   UNL     1       5.929  -6.061  26.170  0.00  0.00    +0.285 C 
ATOM      8  O   UNL     1       5.440  -6.796  27.004  0.00  0.00    -0.266 OA
ATOM      9  C   UNL     1       7.280  -5.455  26.206  0.00  0.00    +0.188 C 
BRANCH   9  10
ATOM     10  O   UNL     1       8.155  -5.621  27.243  0.00  0.00    -0.502 OA
ATOM     11  H   UNL     1       8.471  -6.539  27.249  0.00  0.00    +0.292 HD
ENDBRANCH   9  10
ENDBRANCH   1   2
BRANCH   1  12
ATOM     12  C   UNL     1       8.499  -2.495  24.927  0.00  0.00    +0.005 C 
BRANCH  12  13
ATOM     13  C   UNL     1       9.728  -1.716  24.462  0.00  0.00    +0.000 C 
BRANCH  13  14
ATOM     14  C   UNL     1       9.944  -1.885  22.960  0.00  0.00    +0.000 C 
BRANCH  14  15
ATOM     15  C   UNL     1       8.810  -1.246  22.161  0.00  0.00    +0.000 C 
BRANCH  15  16
ATOM     16  C   UNL     1       9.336  -0.128  21.264  0.00  0.00    -0.000 C 
BRANCH  16  17
ATOM     17  C   UNL     1       9.030   1.246  21.856  0.00  0.00    -0.000 C 
BRANCH  17  18
ATOM     18  C   UNL     1      10.312   1.969  22.261  0.00  0.00    -0.000 C 
BRANCH  18  20
ATOM     19  C   UNL     1       9.067   1.909  24.447  0.00  0.00    +0.004 C 
ATOM     20  C   UNL     1      10.418   2.099  23.778  0.00  0.00    -0.003 C 
ENDBRANCH  18  20
ENDBRANCH  17  18
ENDBRANCH  16  17
ENDBRANCH  15  16
ENDBRANCH  14  15
ENDBRANCH  13  14
ENDBRANCH  12  13
ENDBRANCH   1  12
TORSDOF 10
ENDMDL
MODEL 7
REMARK VINA RESULT:      -5.0      1.135      1.997
REMARK  Name = 
REMARK  11 active torsions:
REMARK  status: ('A' for Active; 'I' for Inactive)
REMARK    1  A    between atoms: C_1  and  C_2
REMARK    2  A    between atoms: C_2  and  C_3
REMARK    3  A    between atoms: C_3  and  C_4
REMARK    4  A    between atoms: C_4  and  C_5
REMARK    5  A    between atoms: C_5  and  C_6
REMARK    6  A    between atoms: C_6  and  C_7
REMARK    7  A    between atoms: C_7  and  C_8
REMARK    8  A    between atoms: C_8  and  C_9
REMARK    9  A    between atoms: C_9  and  C_10
REMARK   10  A    between atoms: C_10  and  C_11
REMARK   11  A    between atoms: C_12  and  O_13
REMARK                            x       y       z     vdW  Elec       q    Type
REMARK                         _______ _______ _______ _____ _____    ______ ____
ROOT
ATOM      1  C   UNL     1       8.592  -2.666  24.333  0.00  0.00    +0.044 C 
ENDROOT
BRANCH   1   2
ATOM      2  C   UNL     1       8.348  -3.714  25.356  0.00  0.00    +0.061 C 
ATOM      3  C   UNL     1       9.231  -4.883  25.519  0.00  0.00    +0.250 C 
ATOM      4  O   UNL     1      10.224  -5.112  24.853  0.00  0.00    -0.270 OA
ATOM      5  N   UNL     1       8.743  -5.625  26.534  0.00  0.00    -0.246 N 
ATOM      6  H   UNL     1       9.164  -6.472  26.876  0.00  0.00    +0.158 HD
ATOM      7  C   UNL     1       7.654  -5.044  27.083  0.00  0.00    +0.285 C 
ATOM      8  O   UNL     1       7.017  -5.439  28.039  0.00  0.00    -0.266 OA
ATOM      9  C   UNL     1       7.400  -3.816  26.295  0.00  0.00    +0.188 C 
BRANCH   9  10
ATOM     10  O   UNL     1       6.353  -2.970  26.533  0.00  0.00    -0.502 OA
ATOM     11  H   UNL     1       5.782  -3.353  27.217  0.00  0.00    +0.292 HD
ENDBRANCH   9  10
ENDBRANCH   1   2
BRANCH   1  12
ATOM     12  C   UNL     1       9.089  -1.371  24.972  0.00  0.00    +0.005 C 
BRANCH  12  13
ATOM     13  C   UNL     1      10.200  -0.735  24.140  0.00  0.00    +0.000 C 
BRANCH  13  14
ATOM     14  C   UNL     1      10.477   0.694  24.603  0.00  0.00    +0.000 C 
BRANCH  14  15
ATOM     15  C   UNL     1      10.295   1.692  23.461  0.00  0.00    +0.000 C 
BRANCH  15  16
ATOM     16  C   UNL     1       9.973   0.971  22.153  0.00  0.00    -0.000 C 
BRANCH  16  17
ATOM     17  C   UNL     1       8.707   1.532  21.510  0.00  0.00    -0.000 C 
BRANCH  17  18
ATOM     18  C   UNL     1       7.477   1.235  22.365  0.00  0.00    -0.000 C 
BRANCH  18  20
ATOM     19  C   UNL     1       7.299   3.743  22.279  0.00  0.00    +0.004 C 
ATOM     20  C   UNL     1       6.537   2.436  22.418  0.00  0.00    -0.003 C 
ENDBRANCH  18  20
ENDBRANCH  17  18
ENDBRANCH  16  17
ENDBRANCH  15  16
ENDBRANCH  14  15
ENDBRANCH  13  14
ENDBRANCH  12  13
ENDBRANCH   1  12
TORSDOF 10
ENDMDL
MODEL 8
REMARK VINA RESULT:      -4.9      1.805      2.481
REMARK  Name = 
REMARK  11 active torsions:
REMARK  status: ('A' for Active; 'I' for Inactive)
REMARK    1  A    between atoms: C_1  and  C_2
REMARK    2  A    between atoms: C_2  and  C_3
REMARK    3  A    between atoms: C_3  and  C_4
REMARK    4  A    between atoms: C_4  and  C_5
REMARK    5  A    between atoms: C_5  and  C_6
REMARK    6  A    between atoms: C_6  and  C_7
REMARK    7  A    between atoms: C_7  and  C_8
REMARK    8  A    between atoms: C_8  and  C_9
REMARK    9  A    between atoms: C_9  and  C_10
REMARK   10  A    between atoms: C_10  and  C_11
REMARK   11  A    between atoms: C_12  and  O_13
REMARK                            x       y       z     vdW  Elec       q    Type
REMARK                         _______ _______ _______ _____ _____    ______ ____
ROOT
ATOM      1  C   UNL     1       9.830  -2.520  23.886  0.00  0.00    +0.044 C 
ENDROOT
BRANCH   1   2
ATOM      2  C   UNL     1       9.080  -3.266  24.928  0.00  0.00    +0.061 C 
ATOM      3  C   UNL     1       8.161  -2.604  25.870  0.00  0.00    +0.250 C 
ATOM      4  O   UNL     1       7.925  -1.411  25.901  0.00  0.00    -0.270 OA
ATOM      5  N   UNL     1       7.637  -3.557  26.668  0.00  0.00    -0.246 N 
ATOM      6  H   UNL     1       6.959  -3.389  27.391  0.00  0.00    +0.158 HD
ATOM      7  C   UNL     1       8.084  -4.784  26.319  0.00  0.00    +0.285 C 
ATOM      8  O   UNL     1       7.763  -5.847  26.812  0.00  0.00    -0.266 OA
ATOM      9  C   UNL     1       9.034  -4.576  25.202  0.00  0.00    +0.188 C 
BRANCH   9  10
ATOM     10  O   UNL     1       9.722  -5.590  24.597  0.00  0.00    -0.502 OA
ATOM     11  H   UNL     1       9.296  -5.804  23.752  0.00  0.00    +0.292 HD
ENDBRANCH   9  10
ENDBRANCH   1   2
BRANCH   1  12
ATOM     12  C   UNL     1       8.928  -2.149  22.711  0.00  0.00    +0.005 C 
BRANCH  12  13
ATOM     13  C   UNL     1       9.625  -1.173  21.765  0.00  0.00    +0.000 C 
BRANCH  13  14
ATOM     14  C   UNL     1       9.011   0.221  21.873  0.00  0.00    +0.000 C 
BRANCH  14  15
ATOM     15  C   UNL     1      10.077   1.275  22.169  0.00  0.00    +0.000 C 
BRANCH  15  16
ATOM     16  C   UNL     1      10.434   1.288  23.654  0.00  0.00    -0.000 C 
BRANCH  16  17
ATOM     17  C   UNL     1       9.211   1.601  24.513  0.00  0.00    -0.000 C 
BRANCH  17  18
ATOM     18  C   UNL     1       8.891   3.094  24.493  0.00  0.00    -0.000 C 
BRANCH  18  20
ATOM     19  C   UNL     1       7.533   4.015  22.586  0.00  0.00    +0.004 C 
ATOM     20  C   UNL     1       7.487   3.352  23.952  0.00  0.00    -0.003 C 
ENDBRANCH  18  20
ENDBRANCH  17  18
ENDBRANCH  16  17
ENDBRANCH  15  16
ENDBRANCH  14  15
ENDBRANCH  13  14
ENDBRANCH  12  13
ENDBRANCH   1  12
TORSDOF 10
ENDMDL
MODEL 9
REMARK VINA RESULT:      -4.8      2.401      3.520
REMARK  Name = 
REMARK  11 active torsions:
REMARK  status: ('A' for Active; 'I' for Inactive)
REMARK    1  A    between atoms: C_1  and  C_2
REMARK    2  A    between atoms: C_2  and  C_3
REMARK    3  A    between atoms: C_3  and  C_4
REMARK    4  A    between atoms: C_4  and  C_5
REMARK    5  A    between atoms: C_5  and  C_6
REMARK    6  A    between atoms: C_6  and  C_7
REMARK    7  A    between atoms: C_7  and  C_8
REMARK    8  A    between atoms: C_8  and  C_9
REMARK    9  A    between atoms: C_9  and  C_10
REMARK   10  A    between atoms: C_10  and  C_11
REMARK   11  A    between atoms: C_12  and  O_13
REMARK                            x       y       z     vdW  Elec       q    Type
REMARK                         _______ _______ _______ _____ _____    ______ ____
ROOT
ATOM      1  C   UNL     1       8.243  -2.543  25.055  0.00  0.00    +0.044 C 
ENDROOT
BRANCH   1   2
ATOM      2  C   UNL     1       7.602  -3.136  23.854  0.00  0.00    +0.061 C 
ATOM      3  C   UNL     1       7.864  -4.519  23.419  0.00  0.00    +0.250 C 
ATOM      4  O   UNL     1       8.611  -5.302  23.975  0.00  0.00    -0.270 OA
ATOM      5  N   UNL     1       7.121  -4.747  22.316  0.00  0.00    -0.246 N 
ATOM      6  H   UNL     1       7.089  -5.621  21.819  0.00  0.00    +0.158 HD
ATOM      7  C   UNL     1       6.367  -3.670  22.005  0.00  0.00    +0.285 C 
ATOM      8  O   UNL     1       5.562  -3.578  21.100  0.00  0.00    -0.266 OA
ATOM      9  C   UNL     1       6.705  -2.627  23.001  0.00  0.00    +0.188 C 
BRANCH   9  10
ATOM     10  O   UNL     1       6.162  -1.374  22.995  0.00  0.00    -0.502 OA
ATOM     11  H   UNL     1       6.836  -0.733  23.270  0.00  0.00    +0.292 HD
ENDBRANCH   9  10
ENDBRANCH   1   2
BRANCH   1  12
ATOM     12  C   UNL     1       9.279  -1.490  24.671  0.00  0.00    +0.005 C 
BRANCH  12  13
ATOM     13  C   UNL     1       9.294  -0.337  25.672  0.00  0.00    +0.000 C 
BRANCH  13  14
ATOM     14  C   UNL     1       7.914   0.308  25.782  0.00  0.00    +0.000 C 
BRANCH  14  15
ATOM     15  C   UNL     1       7.696   1.341  24.679  0.00  0.00    +0.000 C 
BRANCH  15  16
ATOM     16  C   UNL     1       8.497   2.612  24.955  0.00  0.00    -0.000 C 
BRANCH  16  17
ATOM     17  C   UNL     1       9.524   2.867  23.854  0.00  0.00    -0.000 C 
BRANCH  17  18
ATOM     18  C   UNL     1       9.034   2.335  22.509  0.00  0.00    -0.000 C 
BRANCH  18  20
ATOM     19  C   UNL     1       9.273   0.080  21.420  0.00  0.00    +0.004 C 
ATOM     20  C   UNL     1      10.005   1.308  21.933  0.00  0.00    -0.003 C 
ENDBRANCH  18  20
ENDBRANCH  17  18
ENDBRANCH  16  17
ENDBRANCH  15  16
ENDBRANCH  14  15
ENDBRANCH  13  14
ENDBRANCH  12  13
ENDBRANCH   1  12
TORSDOF 10
ENDMDL
