MODEL 1
REMARK VINA RESULT:      -7.3      0.000      0.000
REMARK  Name = 
REMARK  8 active torsions:
REMARK  status: ('A' for Active; 'I' for Inactive)
REMARK    1  A    between atoms: N_6  and  C_11
REMARK    2  A    between atoms: C_14  and  C_16
REMARK    3  A    between atoms: C_16  and  O_17
REMARK    4  A    between atoms: O_17  and  P_18
REMARK    5  A    between atoms: P_18  and  O_19
REMARK    6  A    between atoms: P_18  and  O_20
REMARK    7  A    between atoms: C_22  and  O_24
REMARK    8  A    between atoms: C_25  and  O_27
REMARK                            x       y       z     vdW  Elec       q    Type
REMARK                         _______ _______ _______ _____ _____    ______ ____
ROOT
ATOM      1  C   UNL     1       9.403  -3.737  24.411  0.00  0.00    +0.252 C 
ATOM      2  C   UNL     1       9.191  -4.551  25.698  0.00  0.00    +0.195 C 
ATOM      3  C   UNL     1       7.773  -5.115  25.593  0.00  0.00    +0.178 C 
ATOM      4  C   UNL     1       7.236  -4.527  24.293  0.00  0.00    +0.178 C 
ATOM      5  O   UNL     1       8.378  -4.185  23.496  0.00  0.00    -0.346 OA
ENDROOT
BRANCH   1  13
ATOM      6  N   UNL     1       9.843   2.135  21.592  0.00  0.00    -0.327 N 
ATOM      7  H   UNL     1      10.030   2.894  22.232  0.00  0.00    +0.145 HD
ATOM      8  H   UNL     1      10.481   2.007  20.819  0.00  0.00    +0.145 HD
ATOM      9  C   UNL     1       9.721   0.951  22.297  0.00  0.00    +0.215 A 
ATOM     10  N   UNL     1       9.394   1.051  23.585  0.00  0.00    -0.193 NA
ATOM     11  C   UNL     1       9.292  -0.135  24.205  0.00  0.00    +0.183 A 
ATOM     12  C   UNL     1       9.542  -1.350  23.587  0.00  0.00    +0.108 A 
ATOM     13  N   UNL     1       9.328  -2.290  24.569  0.00  0.00    -0.298 N 
ATOM     14  C   UNL     1       8.922  -1.611  25.694  0.00  0.00    +0.204 A 
ATOM     15  C   UNL     1       9.908  -1.365  22.264  0.00  0.00    +0.144 A 
ATOM     16  N   UNL     1       8.932  -0.310  25.513  0.00  0.00    -0.216 NA
ATOM     17  N   UNL     1      10.000  -0.180  21.626  0.00  0.00    -0.221 NA
ENDBRANCH   1  13
BRANCH   2  18
ATOM     18  O   UNL     1      10.149  -5.624  25.756  0.00  0.00    -0.385 OA
ATOM     19  H   UNL     1       9.928  -6.291  25.079  0.00  0.00    +0.210 HD
ENDBRANCH   2  18
BRANCH   3  20
ATOM     20  O   UNL     1       6.983  -4.698  26.701  0.00  0.00    -0.386 OA
ATOM     21  H   UNL     1       7.054  -3.726  26.764  0.00  0.00    +0.210 HD
ENDBRANCH   3  20
BRANCH   4  22
ATOM     22  C   UNL     1       6.337  -5.484  23.526  0.00  0.00    +0.206 C 
BRANCH  22  23
ATOM     23  O   UNL     1       5.266  -5.931  24.351  0.00  0.00    -0.284 OA
BRANCH  23  24
ATOM     24  P   UNL     1       3.779  -5.943  23.467  0.00  0.00    +0.472 P 
ATOM     25  O   UNL     1       2.448  -5.954  22.677  0.00  0.00    -0.228 OA
BRANCH  24  26
ATOM     26  O   UNL     1       3.811  -7.554  23.755  0.00  0.00    -0.303 OA
ATOM     27  H   UNL     1       3.731  -8.061  22.927  0.00  0.00    +0.222 HD
ENDBRANCH  24  26
BRANCH  24  28
ATOM     28  O   UNL     1       4.781  -6.002  22.178  0.00  0.00    -0.303 OA
ATOM     29  H   UNL     1       4.496  -6.763  21.638  0.00  0.00    +0.222 HD
ENDBRANCH  24  28
ENDBRANCH  23  24
ENDBRANCH  22  23
ENDBRANCH   4  22
TORSDOF 8
ENDMDL
MODEL 2
REMARK VINA RESULT:      -6.7      1.502      2.225
REMARK  Name = 
REMARK  8 active torsions:
REMARK  status: ('A' for Active; 'I' for Inactive)
REMARK    1  A    between atoms: N_6  and  C_11
REMARK    2  A    between atoms: C_14  and  C_16
REMARK    3  A    between atoms: C_16  and  O_17
REMARK    4  A    between atoms: O_17  and  P_18
REMARK    5  A    between atoms: P_18  and  O_19
REMARK    6  A    between atoms: P_18  and  O_20
REMARK    7  A    between atoms: C_22  and  O_24
REMARK    8  A    between atoms: C_25  and  O_27
REMARK                            x       y       z     vdW  Elec       q    Type
REMARK                         _______ _______ _______ _____ _____    ______ ____
ROOT
ATOM      1  C   UNL     1       9.217  -2.576  24.091  0.00  0.00    +0.252 C 
ATOM      2  C   UNL     1       8.144  -2.390  25.176  0.00  0.00    +0.195 C 
ATOM      3  C   UNL     1       6.979  -3.285  24.754  0.00  0.00    +0.178 C 
ATOM      4  C   UNL     1       7.425  -3.866  23.418  0.00  0.00    +0.178 C 
ATOM      5  O   UNL     1       8.857  -3.790  23.395  0.00  0.00    -0.346 OA
ENDROOT
BRANCH   1  13
ATOM      6  N   UNL     1      10.816   3.673  23.092  0.00  0.00    -0.327 N 
ATOM      7  H   UNL     1      10.408   4.083  22.264  0.00  0.00    +0.145 HD
ATOM      8  H   UNL     1      10.641   4.132  23.975  0.00  0.00    +0.145 HD
ATOM      9  C   UNL     1      10.454   2.341  23.180  0.00  0.00    +0.215 A 
ATOM     10  N   UNL     1      10.100   1.740  22.044  0.00  0.00    -0.193 NA
ATOM     11  C   UNL     1       9.763   0.451  22.204  0.00  0.00    +0.183 A 
ATOM     12  C   UNL     1       9.739  -0.192  23.431  0.00  0.00    +0.108 A 
ATOM     13  N   UNL     1       9.341  -1.477  23.142  0.00  0.00    -0.298 N 
ATOM     14  C   UNL     1       9.193  -1.556  21.777  0.00  0.00    +0.204 A 
ATOM     15  C   UNL     1      10.086   0.508  24.560  0.00  0.00    +0.144 A 
ATOM     16  N   UNL     1       9.401  -0.397  21.193  0.00  0.00    -0.216 NA
ATOM     17  N   UNL     1      10.441   1.801  24.411  0.00  0.00    -0.221 NA
ENDBRANCH   1  13
BRANCH   2  18
ATOM     18  O   UNL     1       8.663  -2.818  26.450  0.00  0.00    -0.385 OA
ATOM     19  H   UNL     1       9.565  -2.466  26.565  0.00  0.00    +0.210 HD
ENDBRANCH   2  18
BRANCH   3  20
ATOM     20  O   UNL     1       5.788  -2.521  24.600  0.00  0.00    -0.386 OA
ATOM     21  H   UNL     1       5.053  -3.147  24.454  0.00  0.00    +0.210 HD
ENDBRANCH   3  20
BRANCH   4  22
ATOM     22  C   UNL     1       6.980  -5.306  23.209  0.00  0.00    +0.206 C 
BRANCH  22  23
ATOM     23  O   UNL     1       5.966  -5.655  24.146  0.00  0.00    -0.284 OA
BRANCH  23  24
ATOM     24  P   UNL     1       4.448  -5.880  23.347  0.00  0.00    +0.472 P 
ATOM     25  O   UNL     1       3.090  -6.082  22.633  0.00  0.00    -0.228 OA
BRANCH  24  26
ATOM     26  O   UNL     1       4.499  -7.370  24.024  0.00  0.00    -0.303 OA
ATOM     27  H   UNL     1       3.812  -7.949  23.650  0.00  0.00    +0.222 HD
ENDBRANCH  24  26
BRANCH  24  28
ATOM     28  O   UNL     1       5.404  -6.260  22.077  0.00  0.00    -0.303 OA
ATOM     29  H   UNL     1       5.956  -5.476  21.900  0.00  0.00    +0.222 HD
ENDBRANCH  24  28
ENDBRANCH  23  24
ENDBRANCH  22  23
ENDBRANCH   4  22
TORSDOF 8
ENDMDL
MODEL 3
REMARK VINA RESULT:      -6.7      2.429      3.830
REMARK  Name = 
REMARK  8 active torsions:
REMARK  status: ('A' for Active; 'I' for Inactive)
REMARK    1  A    between atoms: N_6  and  C_11
REMARK    2  A    between atoms: C_14  and  C_16
REMARK    3  A    between atoms: C_16  and  O_17
REMARK    4  A    between atoms: O_17  and  P_18
REMARK    5  A    between atoms: P_18  and  O_19
REMARK    6  A    between atoms: P_18  and  O_20
REMARK    7  A    between atoms: C_22  and  O_24
REMARK    8  A    between atoms: C_25  and  O_27
REMARK                            x       y       z     vdW  Elec       q    Type
REMARK                         _______ _______ _______ _____ _____    ______ ____
ROOT
ATOM      1  C   UNL     1       6.765  -2.085  22.594  0.00  0.00    +0.252 C 
ATOM      2  C   UNL     1       6.869  -3.559  22.171  0.00  0.00    +0.195 C 
ATOM      3  C   UNL     1       6.977  -4.349  23.476  0.00  0.00    +0.178 C 
ATOM      4  C   UNL     1       7.005  -3.276  24.558  0.00  0.00    +0.178 C 
ATOM      5  O   UNL     1       6.395  -2.108  23.991  0.00  0.00    -0.346 OA
ENDROOT
BRANCH   1  13
ATOM      6  N   UNL     1       9.634   3.764  22.997  0.00  0.00    -0.327 N 
ATOM      7  H   UNL     1      10.461   3.866  22.426  0.00  0.00    +0.145 HD
ATOM      8  H   UNL     1       8.887   4.432  22.863  0.00  0.00    +0.145 HD
ATOM      9  C   UNL     1       9.138   2.479  22.874  0.00  0.00    +0.215 A 
ATOM     10  N   UNL     1       9.998   1.539  22.484  0.00  0.00    -0.193 NA
ATOM     11  C   UNL     1       9.449   0.318  22.388  0.00  0.00    +0.183 A 
ATOM     12  C   UNL     1       8.110   0.056  22.627  0.00  0.00    +0.108 A 
ATOM     13  N   UNL     1       7.978  -1.297  22.414  0.00  0.00    -0.298 N 
ATOM     14  C   UNL     1       9.228  -1.781  22.108  0.00  0.00    +0.204 A 
ATOM     15  C   UNL     1       7.281   1.087  22.993  0.00  0.00    +0.144 A 
ATOM     16  N   UNL     1      10.124  -0.822  22.047  0.00  0.00    -0.216 NA
ATOM     17  N   UNL     1       7.824   2.317  23.107  0.00  0.00    -0.221 NA
ENDBRANCH   1  13
BRANCH   2  18
ATOM     18  O   UNL     1       5.681  -3.944  21.455  0.00  0.00    -0.385 OA
ATOM     19  H   UNL     1       5.823  -3.807  20.499  0.00  0.00    +0.210 HD
ENDBRANCH   2  18
BRANCH   3  20
ATOM     20  O   UNL     1       8.172  -5.121  23.500  0.00  0.00    -0.386 OA
ATOM     21  H   UNL     1       8.666  -4.924  22.681  0.00  0.00    +0.210 HD
ENDBRANCH   3  20
BRANCH   4  22
ATOM     22  C   UNL     1       6.269  -3.679  25.826  0.00  0.00    +0.206 C 
BRANCH  22  23
ATOM     23  O   UNL     1       6.390  -5.081  26.048  0.00  0.00    -0.284 OA
BRANCH  23  24
ATOM     24  P   UNL     1       6.367  -5.435  27.741  0.00  0.00    +0.472 P 
ATOM     25  O   UNL     1       6.347  -5.752  29.256  0.00  0.00    -0.228 OA
BRANCH  24  26
ATOM     26  O   UNL     1       7.918  -5.900  27.498  0.00  0.00    -0.303 OA
ATOM     27  H   UNL     1       7.959  -6.764  27.050  0.00  0.00    +0.222 HD
ENDBRANCH  24  26
BRANCH  24  28
ATOM     28  O   UNL     1       5.708  -6.841  27.231  0.00  0.00    -0.303 OA
ATOM     29  H   UNL     1       5.636  -7.415  28.016  0.00  0.00    +0.222 HD
ENDBRANCH  24  28
ENDBRANCH  23  24
ENDBRANCH  22  23
ENDBRANCH   4  22
TORSDOF 8
ENDMDL
MODEL 4
REMARK VINA RESULT:      -6.6      4.655      6.696
REMARK  Name = 
REMARK  8 active torsions:
REMARK  status: ('A' for Active; 'I' for Inactive)
REMARK    1  A    between atoms: N_6  and  C_11
REMARK    2  A    between atoms: C_14  and  C_16
REMARK    3  A    between atoms: C_16  and  O_17
REMARK    4  A    between atoms: O_17  and  P_18
REMARK    5  A    between atoms: P_18  and  O_19
REMARK    6  A    between atoms: P_18  and  O_20
REMARK    7  A    between atoms: C_22  and  O_24
REMARK    8  A    between atoms: C_25  and  O_27
REMARK                            x       y       z     vdW  Elec       q    Type
REMARK                         _______ _______ _______ _____ _____    ______ ____
ROOT
ATOM      1  C   UNL     1       9.152   0.586  24.424  0.00  0.00    +0.252 C 
ATOM      2  C   UNL     1       9.904   1.631  23.583  0.00  0.00    +0.195 C 
ATOM      3  C   UNL     1       8.898   2.108  22.535  0.00  0.00    +0.178 C 
ATOM      4  C   UNL     1       7.663   1.253  22.791  0.00  0.00    +0.178 C 
ATOM      5  O   UNL     1       7.750   0.804  24.149  0.00  0.00    -0.346 OA
ENDROOT
BRANCH   1  13
ATOM      6  N   UNL     1       8.628  -5.672  26.207  0.00  0.00    -0.327 N 
ATOM      7  H   UNL     1       9.358  -6.272  25.851  0.00  0.00    +0.145 HD
ATOM      8  H   UNL     1       8.489  -5.648  27.208  0.00  0.00    +0.145 HD
ATOM      9  C   UNL     1       8.807  -4.386  25.731  0.00  0.00    +0.215 A 
ATOM     10  N   UNL     1       9.516  -4.255  24.610  0.00  0.00    -0.193 NA
ATOM     11  C   UNL     1       9.649  -2.982  24.206  0.00  0.00    +0.183 A 
ATOM     12  C   UNL     1       9.140  -1.897  24.902  0.00  0.00    +0.108 A 
ATOM     13  N   UNL     1       9.502  -0.803  24.150  0.00  0.00    -0.298 N 
ATOM     14  C   UNL     1      10.157  -1.276  23.038  0.00  0.00    +0.204 A 
ATOM     15  C   UNL     1       8.449  -2.114  26.068  0.00  0.00    +0.144 A 
ATOM     16  N   UNL     1      10.294  -2.583  23.068  0.00  0.00    -0.216 NA
ATOM     17  N   UNL     1       8.297  -3.391  26.477  0.00  0.00    -0.221 NA
ENDBRANCH   1  13
BRANCH   2  18
ATOM     18  O   UNL     1      10.305   2.730  24.423  0.00  0.00    -0.385 OA
ATOM     19  H   UNL     1      11.018   2.436  25.020  0.00  0.00    +0.210 HD
ENDBRANCH   2  18
BRANCH   3  20
ATOM     20  O   UNL     1       9.400   1.890  21.221  0.00  0.00    -0.386 OA
ATOM     21  H   UNL     1       8.714   1.411  20.719  0.00  0.00    +0.210 HD
ENDBRANCH   3  20
BRANCH   4  22
ATOM     22  C   UNL     1       6.357   2.003  22.577  0.00  0.00    +0.206 C 
BRANCH  22  23
ATOM     23  O   UNL     1       6.131   2.923  23.640  0.00  0.00    -0.284 OA
BRANCH  23  24
ATOM     24  P   UNL     1       4.477   2.877  24.147  0.00  0.00    +0.472 P 
ATOM     25  O   UNL     1       2.998   2.835  24.600  0.00  0.00    -0.228 OA
BRANCH  24  26
ATOM     26  O   UNL     1       4.800   1.310  24.496  0.00  0.00    -0.303 OA
ATOM     27  H   UNL     1       5.463   1.237  25.205  0.00  0.00    +0.222 HD
ENDBRANCH  24  26
BRANCH  24  28
ATOM     28  O   UNL     1       4.209   2.623  22.555  0.00  0.00    -0.303 OA
ATOM     29  H   UNL     1       3.242   2.572  22.440  0.00  0.00    +0.222 HD
ENDBRANCH  24  28
ENDBRANCH  23  24
ENDBRANCH  22  23
ENDBRANCH   4  22
TORSDOF 8
ENDMDL
MODEL 5
REMARK VINA RESULT:      -6.5      4.836      7.482
REMARK  Name = 
REMARK  8 active torsions:
REMARK  status: ('A' for Active; 'I' for Inactive)
REMARK    1  A    between atoms: N_6  and  C_11
REMARK    2  A    between atoms: C_14  and  C_16
REMARK    3  A    between atoms: C_16  and  O_17
REMARK    4  A    between atoms: O_17  and  P_18
REMARK    5  A    between atoms: P_18  and  O_19
REMARK    6  A    between atoms: P_18  and  O_20
REMARK    7  A    between atoms: C_22  and  O_24
REMARK    8  A    between atoms: C_25  and  O_27
REMARK                            x       y       z     vdW  Elec       q    Type
REMARK                         _______ _______ _______ _____ _____    ______ ____
ROOT
ATOM      1  C   UNL     1       9.355  -2.158  23.616  0.00  0.00    +0.252 C 
ATOM      2  C   UNL     1       9.222  -1.440  22.263  0.00  0.00    +0.195 C 
ATOM      3  C   UNL     1       9.043   0.040  22.605  0.00  0.00    +0.178 C 
ATOM      4  C   UNL     1       9.007   0.066  24.129  0.00  0.00    +0.178 C 
ATOM      5  O   UNL     1       9.671  -1.124  24.574  0.00  0.00    -0.346 OA
ENDROOT
BRANCH   1  13
ATOM      6  N   UNL     1       6.663  -6.116  28.054  0.00  0.00    -0.327 N 
ATOM      7  H   UNL     1       5.857  -6.628  27.725  0.00  0.00    +0.145 HD
ATOM      8  H   UNL     1       7.434  -6.649  28.432  0.00  0.00    +0.145 HD
ATOM      9  C   UNL     1       7.121  -5.277  27.055  0.00  0.00    +0.215 A 
ATOM     10  N   UNL     1       6.243  -4.928  26.115  0.00  0.00    -0.193 NA
ATOM     11  C   UNL     1       6.756  -4.113  25.180  0.00  0.00    +0.183 A 
ATOM     12  C   UNL     1       8.078  -3.701  25.160  0.00  0.00    +0.108 A 
ATOM     13  N   UNL     1       8.173  -2.893  24.050  0.00  0.00    -0.298 N 
ATOM     14  C   UNL     1       6.918  -2.823  23.494  0.00  0.00    +0.204 A 
ATOM     15  C   UNL     1       8.929  -4.132  26.148  0.00  0.00    +0.144 A 
ATOM     16  N   UNL     1       6.055  -3.581  24.133  0.00  0.00    -0.216 NA
ATOM     17  N   UNL     1       8.422  -4.941  27.102  0.00  0.00    -0.221 NA
ENDBRANCH   1  13
BRANCH   2  18
ATOM     18  O   UNL     1      10.424  -1.629  21.493  0.00  0.00    -0.385 OA
ATOM     19  H   UNL     1      11.195  -1.609  22.090  0.00  0.00    +0.210 HD
ENDBRANCH   2  18
BRANCH   3  20
ATOM     20  O   UNL     1       7.825   0.537  22.062  0.00  0.00    -0.386 OA
ATOM     21  H   UNL     1       7.900   0.502  21.089  0.00  0.00    +0.210 HD
ENDBRANCH   3  20
BRANCH   4  22
ATOM     22  C   UNL     1       9.683   1.290  24.726  0.00  0.00    +0.206 C 
BRANCH  22  23
ATOM     23  O   UNL     1      10.060   2.202  23.699  0.00  0.00    -0.284 OA
BRANCH  23  24
ATOM     24  P   UNL     1       9.246   3.715  23.896  0.00  0.00    +0.472 P 
ATOM     25  O   UNL     1       8.516   5.069  24.072  0.00  0.00    -0.228 OA
BRANCH  24  26
ATOM     26  O   UNL     1       8.665   3.410  22.396  0.00  0.00    -0.303 OA
ATOM     27  H   UNL     1       7.794   3.826  22.266  0.00  0.00    +0.222 HD
ENDBRANCH  24  26
BRANCH  24  28
ATOM     28  O   UNL     1      10.675   4.320  23.382  0.00  0.00    -0.303 OA
ATOM     29  H   UNL     1      10.522   5.262  23.182  0.00  0.00    +0.222 HD
ENDBRANCH  24  28
ENDBRANCH  23  24
ENDBRANCH  22  23
ENDBRANCH   4  22
TORSDOF 8
ENDMDL
MODEL 6
REMARK VINA RESULT:      -6.4      4.335      7.036
REMARK  Name = 
REMARK  8 active torsions:
REMARK  status: ('A' for Active; 'I' for Inactive)
REMARK    1  A    between atoms: N_6  and  C_11
REMARK    2  A    between atoms: C_14  and  C_16
REMARK    3  A    between atoms: C_16  and  O_17
REMARK    4  A    between atoms: O_17  and  P_18
REMARK    5  A    between atoms: P_18  and  O_19
REMARK    6  A    between atoms: P_18  and  O_20
REMARK    7  A    between atoms: C_22  and  O_24
REMARK    8  A    between atoms: C_25  and  O_27
REMARK                            x       y       z     vdW  Elec       q    Type
REMARK                         _______ _______ _______ _____ _____    ______ ____
ROOT
ATOM      1  C   UNL     1       6.775  -4.224  25.446  0.00  0.00    +0.252 C 
ATOM      2  C   UNL     1       7.767  -5.332  25.836  0.00  0.00    +0.195 C 
ATOM      3  C   UNL     1       9.069  -4.984  25.114  0.00  0.00    +0.178 C 
ATOM      4  C   UNL     1       8.720  -3.746  24.297  0.00  0.00    +0.178 C 
ATOM      5  O   UNL     1       7.585  -3.143  24.933  0.00  0.00    -0.346 OA
ENDROOT
BRANCH   1  13
ATOM      6  N   UNL     1       2.037  -8.378  23.743  0.00  0.00    -0.327 N 
ATOM      7  H   UNL     1       1.837  -8.404  22.753  0.00  0.00    +0.145 HD
ATOM      8  H   UNL     1       2.279  -9.250  24.194  0.00  0.00    +0.145 HD
ATOM      9  C   UNL     1       3.016  -7.435  23.997  0.00  0.00    +0.215 A 
ATOM     10  N   UNL     1       3.162  -6.464  23.096  0.00  0.00    -0.193 NA
ATOM     11  C   UNL     1       4.127  -5.586  23.407  0.00  0.00    +0.183 A 
ATOM     12  C   UNL     1       4.930  -5.691  24.531  0.00  0.00    +0.108 A 
ATOM     13  N   UNL     1       5.771  -4.604  24.460  0.00  0.00    -0.298 N 
ATOM     14  C   UNL     1       5.410  -3.887  23.344  0.00  0.00    +0.204 A 
ATOM     15  C   UNL     1       4.738  -6.741  25.394  0.00  0.00    +0.144 A 
ATOM     16  N   UNL     1       4.449  -4.479  22.670  0.00  0.00    -0.216 NA
ATOM     17  N   UNL     1       3.761  -7.624  25.100  0.00  0.00    -0.221 NA
ENDBRANCH   1  13
BRANCH   2  18
ATOM     18  O   UNL     1       7.971  -5.320  27.261  0.00  0.00    -0.385 OA
ATOM     19  H   UNL     1       8.435  -6.136  27.527  0.00  0.00    +0.210 HD
ENDBRANCH   2  18
BRANCH   3  20
ATOM     20  O   UNL     1       9.474  -6.052  24.265  0.00  0.00    -0.386 OA
ATOM     21  H   UNL     1       8.665  -6.465  23.905  0.00  0.00    +0.210 HD
ENDBRANCH   3  20
BRANCH   4  22
ATOM     22  C   UNL     1       9.858  -2.741  24.210  0.00  0.00    +0.206 C 
BRANCH  22  23
ATOM     23  O   UNL     1      10.032  -2.300  22.867  0.00  0.00    -0.284 OA
BRANCH  23  24
ATOM     24  P   UNL     1       9.232  -0.787  22.613  0.00  0.00    +0.472 P 
ATOM     25  O   UNL     1       8.517   0.567  22.385  0.00  0.00    -0.228 OA
BRANCH  24  26
ATOM     26  O   UNL     1       9.859  -0.897  21.105  0.00  0.00    -0.303 OA
ATOM     27  H   UNL     1       9.164  -0.809  20.428  0.00  0.00    +0.222 HD
ENDBRANCH  24  26
BRANCH  24  28
ATOM     28  O   UNL     1      10.591  -0.186  23.295  0.00  0.00    -0.303 OA
ATOM     29  H   UNL     1      10.803  -0.766  24.050  0.00  0.00    +0.222 HD
ENDBRANCH  24  28
ENDBRANCH  23  24
ENDBRANCH  22  23
ENDBRANCH   4  22
TORSDOF 8
ENDMDL
MODEL 7
REMARK VINA RESULT:      -6.4      4.845      6.913
REMARK  Name = 
REMARK  8 active torsions:
REMARK  status: ('A' for Active; 'I' for Inactive)
REMARK    1  A    between atoms: N_6  and  C_11
REMARK    2  A    between atoms: C_14  and  C_16
REMARK    3  A    between atoms: C_16  and  O_17
REMARK    4  A    between atoms: O_17  and  P_18
REMARK    5  A    between atoms: P_18  and  O_19
REMARK    6  A    between atoms: P_18  and  O_20
REMARK    7  A    between atoms: C_22  and  O_24
REMARK    8  A    between atoms: C_25  and  O_27
REMARK                            x       y       z     vdW  Elec       q    Type
REMARK                         _______ _______ _______ _____ _____    ______ ____
ROOT
ATOM      1  C   UNL     1       7.700  -0.784  24.278  0.00  0.00    +0.252 C 
ATOM      2  C   UNL     1       8.835  -0.054  25.013  0.00  0.00    +0.195 C 
ATOM      3  C   UNL     1       9.578   0.733  23.933  0.00  0.00    +0.178 C 
ATOM      4  C   UNL     1       8.872   0.345  22.640  0.00  0.00    +0.178 C 
ATOM      5  O   UNL     1       7.562  -0.107  23.009  0.00  0.00    -0.346 OA
ENDROOT
BRANCH   1  13
ATOM      6  N   UNL     1       5.655  -6.276  21.402  0.00  0.00    -0.327 N 
ATOM      7  H   UNL     1       5.984  -7.126  21.839  0.00  0.00    +0.145 HD
ATOM      8  H   UNL     1       4.657  -6.161  21.298  0.00  0.00    +0.145 HD
ATOM      9  C   UNL     1       6.185  -5.180  22.058  0.00  0.00    +0.215 A 
ATOM     10  N   UNL     1       7.309  -5.378  22.746  0.00  0.00    -0.193 NA
ATOM     11  C   UNL     1       7.766  -4.272  23.355  0.00  0.00    +0.183 A 
ATOM     12  C   UNL     1       7.118  -3.048  23.315  0.00  0.00    +0.108 A 
ATOM     13  N   UNL     1       7.914  -2.209  24.060  0.00  0.00    -0.298 N 
ATOM     14  C   UNL     1       9.004  -2.943  24.466  0.00  0.00    +0.204 A 
ATOM     15  C   UNL     1       5.945  -2.935  22.610  0.00  0.00    +0.144 A 
ATOM     16  N   UNL     1       8.918  -4.199  24.088  0.00  0.00    -0.216 NA
ATOM     17  N   UNL     1       5.482  -4.036  21.982  0.00  0.00    -0.221 NA
ENDBRANCH   1  13
BRANCH   2  18
ATOM     18  O   UNL     1       8.280   0.847  25.990  0.00  0.00    -0.385 OA
ATOM     19  H   UNL     1       8.996   1.385  26.377  0.00  0.00    +0.210 HD
ENDBRANCH   2  18
BRANCH   3  20
ATOM     20  O   UNL     1      10.950   0.358  23.892  0.00  0.00    -0.386 OA
ATOM     21  H   UNL     1      11.092  -0.319  24.581  0.00  0.00    +0.210 HD
ENDBRANCH   3  20
BRANCH   4  22
ATOM     22  C   UNL     1       8.762   1.490  21.646  0.00  0.00    +0.206 C 
BRANCH  22  23
ATOM     23  O   UNL     1       7.458   2.061  21.684  0.00  0.00    -0.284 OA
BRANCH  23  24
ATOM     24  P   UNL     1       7.475   3.566  22.536  0.00  0.00    +0.472 P 
ATOM     25  O   UNL     1       7.489   4.912  23.299  0.00  0.00    -0.228 OA
BRANCH  24  26
ATOM     26  O   UNL     1       6.786   2.701  23.744  0.00  0.00    -0.303 OA
ATOM     27  H   UNL     1       6.888   3.152  24.601  0.00  0.00    +0.222 HD
ENDBRANCH  24  26
BRANCH  24  28
ATOM     28  O   UNL     1       6.082   3.812  21.716  0.00  0.00    -0.303 OA
ATOM     29  H   UNL     1       5.989   4.777  21.610  0.00  0.00    +0.222 HD
ENDBRANCH  24  28
ENDBRANCH  23  24
ENDBRANCH  22  23
ENDBRANCH   4  22
TORSDOF 8
ENDMDL
MODEL 8
REMARK VINA RESULT:      -6.4      4.559      7.166
REMARK  Name = 
REMARK  8 active torsions:
REMARK  status: ('A' for Active; 'I' for Inactive)
REMARK    1  A    between atoms: N_6  and  C_11
REMARK    2  A    between atoms: C_14  and  C_16
REMARK    3  A    between atoms: C_16  and  O_17
REMARK    4  A    between atoms: O_17  and  P_18
REMARK    5  A    between atoms: P_18  and  O_19
REMARK    6  A    between atoms: P_18  and  O_20
REMARK    7  A    between atoms: C_22  and  O_24
REMARK    8  A    between atoms: C_25  and  O_27
REMARK                            x       y       z     vdW  Elec       q    Type
REMARK                         _______ _______ _______ _____ _____    ______ ____
ROOT
ATOM      1  C   UNL     1       6.990  -1.911  23.778  0.00  0.00    +0.252 C 
ATOM      2  C   UNL     1       8.238  -2.087  24.659  0.00  0.00    +0.195 C 
ATOM      3  C   UNL     1       9.429  -1.866  23.726  0.00  0.00    +0.178 C 
ATOM      4  C   UNL     1       8.793  -1.655  22.358  0.00  0.00    +0.178 C 
ATOM      5  O   UNL     1       7.447  -1.219  22.595  0.00  0.00    -0.346 OA
ENDROOT
BRANCH   1  13
ATOM      6  N   UNL     1       4.191  -7.469  25.748  0.00  0.00    -0.327 N 
ATOM      7  H   UNL     1       4.146  -8.189  25.041  0.00  0.00    +0.145 HD
ATOM      8  H   UNL     1       4.648  -7.697  26.620  0.00  0.00    +0.145 HD
ATOM      9  C   UNL     1       4.754  -6.325  25.213  0.00  0.00    +0.215 A 
ATOM     10  N   UNL     1       4.685  -6.186  23.889  0.00  0.00    -0.193 NA
ATOM     11  C   UNL     1       5.250  -5.054  23.440  0.00  0.00    +0.183 A 
ATOM     12  C   UNL     1       5.884  -4.133  24.258  0.00  0.00    +0.108 A 
ATOM     13  N   UNL     1       6.314  -3.145  23.401  0.00  0.00    -0.298 N 
ATOM     14  C   UNL     1       5.886  -3.491  22.141  0.00  0.00    +0.204 A 
ATOM     15  C   UNL     1       5.941  -4.367  25.610  0.00  0.00    +0.144 A 
ATOM     16  N   UNL     1       5.278  -4.656  22.131  0.00  0.00    -0.216 NA
ATOM     17  N   UNL     1       5.365  -5.494  26.075  0.00  0.00    -0.221 NA
ENDBRANCH   1  13
BRANCH   2  18
ATOM     18  O   UNL     1       8.236  -1.098  25.705  0.00  0.00    -0.385 OA
ATOM     19  H   UNL     1       9.090  -1.125  26.176  0.00  0.00    +0.210 HD
ENDBRANCH   2  18
BRANCH   3  20
ATOM     20  O   UNL     1      10.279  -3.008  23.717  0.00  0.00    -0.386 OA
ATOM     21  H   UNL     1      11.075  -2.786  24.238  0.00  0.00    +0.210 HD
ENDBRANCH   3  20
BRANCH   4  22
ATOM     22  C   UNL     1       9.525  -0.631  21.505  0.00  0.00    +0.206 C 
BRANCH  22  23
ATOM     23  O   UNL     1      10.087   0.390  22.324  0.00  0.00    -0.284 OA
BRANCH  23  24
ATOM     24  P   UNL     1       9.105   1.814  22.285  0.00  0.00    +0.472 P 
ATOM     25  O   UNL     1       8.226   3.088  22.249  0.00  0.00    -0.228 OA
BRANCH  24  26
ATOM     26  O   UNL     1       8.622   1.242  20.829  0.00  0.00    -0.303 OA
ATOM     27  H   UNL     1       9.336   1.310  20.170  0.00  0.00    +0.222 HD
ENDBRANCH  24  26
BRANCH  24  28
ATOM     28  O   UNL     1      10.480   2.500  21.727  0.00  0.00    -0.303 OA
ATOM     29  H   UNL     1      10.219   3.093  20.998  0.00  0.00    +0.222 HD
ENDBRANCH  24  28
ENDBRANCH  23  24
ENDBRANCH  22  23
ENDBRANCH   4  22
TORSDOF 8
ENDMDL
MODEL 9
REMARK VINA RESULT:      -6.3      1.838      2.222
REMARK  Name = 
REMARK  8 active torsions:
REMARK  status: ('A' for Active; 'I' for Inactive)
REMARK    1  A    between atoms: N_6  and  C_11
REMARK    2  A    between atoms: C_14  and  C_16
REMARK    3  A    between atoms: C_16  and  O_17
REMARK    4  A    between atoms: O_17  and  P_18
REMARK    5  A    between atoms: P_18  and  O_19
REMARK    6  A    between atoms: P_18  and  O_20
REMARK    7  A    between atoms: C_22  and  O_24
REMARK    8  A    between atoms: C_25  and  O_27
REMARK                            x       y       z     vdW  Elec       q    Type
REMARK                         _______ _______ _______ _____ _____    ______ ____
ROOT
ATOM      1  C   UNL     1       8.793  -3.750  24.108  0.00  0.00    +0.252 C 
ATOM      2  C   UNL     1       9.109  -4.714  25.263  0.00  0.00    +0.195 C 
ATOM      3  C   UNL     1       7.756  -5.056  25.888  0.00  0.00    +0.178 C 
ATOM      4  C   UNL     1       6.761  -4.210  25.103  0.00  0.00    +0.178 C 
ATOM      5  O   UNL     1       7.381  -3.910  23.845  0.00  0.00    -0.346 OA
ENDROOT
BRANCH   1  13
ATOM      6  N   UNL     1      10.099   2.142  21.620  0.00  0.00    -0.327 N 
ATOM      7  H   UNL     1      10.574   2.769  22.254  0.00  0.00    +0.145 HD
ATOM      8  H   UNL     1      10.538   1.958  20.728  0.00  0.00    +0.145 HD
ATOM      9  C   UNL     1       9.829   0.947  22.261  0.00  0.00    +0.215 A 
ATOM     10  N   UNL     1       9.774   0.980  23.592  0.00  0.00    -0.193 NA
ATOM     11  C   UNL     1       9.507  -0.212  24.147  0.00  0.00    +0.183 A 
ATOM     12  C   UNL     1       9.345  -1.381  23.419  0.00  0.00    +0.108 A 
ATOM     13  N   UNL     1       9.095  -2.348  24.365  0.00  0.00    -0.298 N 
ATOM     14  C   UNL     1       9.072  -1.719  25.588  0.00  0.00    +0.204 A 
ATOM     15  C   UNL     1       9.451  -1.336  22.051  0.00  0.00    +0.144 A 
ATOM     16  N   UNL     1       9.358  -0.440  25.488  0.00  0.00    -0.216 NA
ATOM     17  N   UNL     1       9.705  -0.140  21.480  0.00  0.00    -0.221 NA
ENDBRANCH   1  13
BRANCH   2  18
ATOM     18  O   UNL     1       9.733  -5.904  24.745  0.00  0.00    -0.385 OA
ATOM     19  H   UNL     1      10.508  -6.127  25.293  0.00  0.00    +0.210 HD
ENDBRANCH   2  18
BRANCH   3  20
ATOM     20  O   UNL     1       7.737  -4.709  27.268  0.00  0.00    -0.386 OA
ATOM     21  H   UNL     1       8.547  -5.074  27.674  0.00  0.00    +0.210 HD
ENDBRANCH   3  20
BRANCH   4  22
ATOM     22  C   UNL     1       5.430  -4.907  24.870  0.00  0.00    +0.206 C 
BRANCH  22  23
ATOM     23  O   UNL     1       4.417  -3.955  24.558  0.00  0.00    -0.284 OA
BRANCH  23  24
ATOM     24  P   UNL     1       3.897  -3.127  25.985  0.00  0.00    +0.472 P 
ATOM     25  O   UNL     1       3.431  -2.386  27.262  0.00  0.00    -0.228 OA
BRANCH  24  26
ATOM     26  O   UNL     1       2.446  -3.077  25.229  0.00  0.00    -0.303 OA
ATOM     27  H   UNL     1       2.095  -2.169  25.201  0.00  0.00    +0.222 HD
ENDBRANCH  24  26
BRANCH  24  28
ATOM     28  O   UNL     1       4.514  -1.827  25.210  0.00  0.00    -0.303 OA
ATOM     29  H   UNL     1       5.483  -1.885  25.298  0.00  0.00    +0.222 HD
ENDBRANCH  24  28
ENDBRANCH  23  24
ENDBRANCH  22  23
ENDBRANCH   4  22
TORSDOF 8
ENDMDL
