MODEL 1
REMARK VINA RESULT:      -6.5      0.000      0.000
REMARK  Name = 
REMARK  11 active torsions:
REMARK  status: ('A' for Active; 'I' for Inactive)
REMARK    1  A    between atoms: C_2  and  C_3
REMARK    2  A    between atoms: C_2  and  C_5
REMARK    3  A    between atoms: C_2  and  C_7
REMARK    4  A    between atoms: C_3  and  C_4
REMARK    5  A    between atoms: C_7  and  C_9
REMARK    6  A    between atoms: C_7  and  C_23
REMARK    7  A    between atoms: C_9  and  N_10
REMARK    8  A    between atoms: N_10  and  S_11
REMARK    9  A    between atoms: S_11  and  C_14
REMARK   10  A    between atoms: C_17  and  N_20
REMARK   11  A    between atoms: C_23  and  O_24
REMARK                            x       y       z     vdW  Elec       q    Type
REMARK                         _______ _______ _______ _____ _____    ______ ____
ROOT
ATOM      1  N   UNL     1       8.745  -2.141  24.642  0.00  0.00    -0.189 NA
ATOM      2  H   UNL     1       9.546  -2.341  25.263  0.00  0.00    +0.148 HD
ENDROOT
BRANCH   1   3
ATOM      3  S   UNL     1       9.362  -1.873  23.083  0.00  0.00    +0.058 S 
ATOM      4  O   UNL     1       8.268  -1.996  22.148  0.00  0.00    -0.153 OA
ATOM      5  O   UNL     1      10.573  -2.654  22.967  0.00  0.00    -0.153 OA
BRANCH   3   6
ATOM      6  C   UNL     1       9.849  -0.163  23.165  0.00  0.00    +0.106 A 
ATOM      7  C   UNL     1       9.782   0.632  22.015  0.00  0.00    +0.035 A 
ATOM      8  C   UNL     1      10.111   1.986  22.093  0.00  0.00    +0.086 A 
ATOM      9  C   UNL     1      10.509   2.532  23.323  0.00  0.00    +0.273 A 
ATOM     10  C   UNL     1      10.603   1.725  24.469  0.00  0.00    +0.086 A 
ATOM     11  C   UNL     1      10.276   0.369  24.386  0.00  0.00    +0.035 A 
BRANCH   9  12
ATOM     12  N   UNL     1      10.817   3.965  23.415  0.00  0.00    +0.080 N 
ATOM     13  O   UNL     1       9.888   4.738  23.689  0.00  0.00    +0.041 OA
ATOM     14  O   UNL     1      11.991   4.314  23.222  0.00  0.00    -0.576 OA
ENDBRANCH   9  12
ENDBRANCH   3   6
ENDBRANCH   1   3
BRANCH   1  15
ATOM     15  C   UNL     1       7.647  -3.128  24.758  0.00  0.00    +0.121 C 
BRANCH  15  16
ATOM     16  C   UNL     1       8.121  -4.568  24.450  0.00  0.00    +0.123 C 
BRANCH  16  17
ATOM     17  C   UNL     1       9.106  -4.966  25.529  0.00  0.00    +0.310 C 
ATOM     18  O   UNL     1       9.148  -4.446  26.635  0.00  0.00    -0.251 OA
BRANCH  17  19
ATOM     19  O   UNL     1       9.926  -5.980  25.184  0.00  0.00    -0.480 OA
ATOM     20  H   UNL     1      10.853  -5.900  25.483  0.00  0.00    +0.295 HD
ENDBRANCH  17  19
ENDBRANCH  16  17
BRANCH  16  21
ATOM     21  C   UNL     1       6.979  -5.605  24.353  0.00  0.00    +0.067 C 
BRANCH  21  22
ATOM     22  C   UNL     1       6.046  -5.487  25.540  0.00  0.00    +0.227 C 
ATOM     23  O   UNL     1       5.983  -6.330  26.432  0.00  0.00    -0.301 OA
ENDBRANCH  21  22
BRANCH  21  24
ATOM     24  C   UNL     1       6.138  -5.540  23.059  0.00  0.00    +0.008 C 
ATOM     25  C   UNL     1       6.840  -6.017  21.790  0.00  0.00    +0.004 C 
ENDBRANCH  21  24
ENDBRANCH  16  21
ENDBRANCH  15  16
ENDBRANCH   1  15
TORSDOF 10
ENDMDL
MODEL 2
REMARK VINA RESULT:      -6.4      3.066      7.689
REMARK  Name = 
REMARK  11 active torsions:
REMARK  status: ('A' for Active; 'I' for Inactive)
REMARK    1  A    between atoms: C_2  and  C_3
REMARK    2  A    between atoms: C_2  and  C_5
REMARK    3  A    between atoms: C_2  and  C_7
REMARK    4  A    between atoms: C_3  and  C_4
REMARK    5  A    between atoms: C_7  and  C_9
REMARK    6  A    between atoms: C_7  and  C_23
REMARK    7  A    between atoms: C_9  and  N_10
REMARK    8  A    between atoms: N_10  and  S_11
REMARK    9  A    between atoms: S_11  and  C_14
REMARK   10  A    between atoms: C_17  and  N_20
REMARK   11  A    between atoms: C_23  and  O_24
REMARK                            x       y       z     vdW  Elec       q    Type
REMARK                         _______ _______ _______ _____ _____    ______ ____
ROOT
ATOM      1  N   UNL     1       7.684  -3.558  22.313  0.00  0.00    -0.189 NA
ATOM      2  H   UNL     1       8.464  -3.876  22.912  0.00  0.00    +0.148 HD
ENDROOT
BRANCH   1   3
ATOM      3  S   UNL     1       6.529  -4.803  22.275  0.00  0.00    +0.058 S 
ATOM      4  O   UNL     1       7.098  -5.909  21.541  0.00  0.00    -0.153 OA
ATOM      5  O   UNL     1       5.267  -4.198  21.914  0.00  0.00    -0.153 OA
BRANCH   3   6
ATOM      6  C   UNL     1       6.418  -5.258  23.992  0.00  0.00    +0.106 A 
ATOM      7  C   UNL     1       7.502  -5.019  24.844  0.00  0.00    +0.035 A 
ATOM      8  C   UNL     1       7.393  -5.326  26.202  0.00  0.00    +0.086 A 
ATOM      9  C   UNL     1       6.198  -5.874  26.694  0.00  0.00    +0.273 A 
ATOM     10  C   UNL     1       5.122  -6.139  25.831  0.00  0.00    +0.086 A 
ATOM     11  C   UNL     1       5.236  -5.833  24.473  0.00  0.00    +0.035 A 
BRANCH   9  12
ATOM     12  N   UNL     1       6.068  -6.160  28.128  0.00  0.00    +0.080 N 
ATOM     13  O   UNL     1       6.135  -5.204  28.915  0.00  0.00    +0.041 OA
ATOM     14  O   UNL     1       5.891  -7.339  28.465  0.00  0.00    -0.576 OA
ENDBRANCH   9  12
ENDBRANCH   3   6
ENDBRANCH   1   3
BRANCH   1  15
ATOM     15  C   UNL     1       7.188  -2.206  22.658  0.00  0.00    +0.121 C 
BRANCH  15  16
ATOM     16  C   UNL     1       8.320  -1.280  23.161  0.00  0.00    +0.123 C 
BRANCH  16  17
ATOM     17  C   UNL     1       9.639  -1.921  22.782  0.00  0.00    +0.310 C 
ATOM     18  O   UNL     1      10.288  -2.634  23.536  0.00  0.00    -0.251 OA
BRANCH  17  19
ATOM     19  O   UNL     1      10.034  -1.671  21.517  0.00  0.00    -0.480 OA
ATOM     20  H   UNL     1      10.929  -1.293  21.417  0.00  0.00    +0.295 HD
ENDBRANCH  17  19
ENDBRANCH  16  17
BRANCH  16  21
ATOM     21  C   UNL     1       8.248   0.166  22.618  0.00  0.00    +0.067 C 
BRANCH  21  22
ATOM     22  C   UNL     1       6.869   0.753  22.841  0.00  0.00    +0.227 C 
ATOM     23  O   UNL     1       6.543   1.871  22.450  0.00  0.00    -0.301 OA
ENDBRANCH  21  22
BRANCH  21  24
ATOM     24  C   UNL     1       9.297   1.141  23.197  0.00  0.00    +0.008 C 
ATOM     25  C   UNL     1      10.151   1.877  22.169  0.00  0.00    +0.004 C 
ENDBRANCH  21  24
ENDBRANCH  16  21
ENDBRANCH  15  16
ENDBRANCH   1  15
TORSDOF 10
ENDMDL
MODEL 3
REMARK VINA RESULT:      -6.4      1.088      1.788
REMARK  Name = 
REMARK  11 active torsions:
REMARK  status: ('A' for Active; 'I' for Inactive)
REMARK    1  A    between atoms: C_2  and  C_3
REMARK    2  A    between atoms: C_2  and  C_5
REMARK    3  A    between atoms: C_2  and  C_7
REMARK    4  A    between atoms: C_3  and  C_4
REMARK    5  A    between atoms: C_7  and  C_9
REMARK    6  A    between atoms: C_7  and  C_23
REMARK    7  A    between atoms: C_9  and  N_10
REMARK    8  A    between atoms: N_10  and  S_11
REMARK    9  A    between atoms: S_11  and  C_14
REMARK   10  A    between atoms: C_17  and  N_20
REMARK   11  A    between atoms: C_23  and  O_24
REMARK                            x       y       z     vdW  Elec       q    Type
REMARK                         _______ _______ _______ _____ _____    ______ ____
ROOT
ATOM      1  N   UNL     1       8.662  -2.330  24.719  0.00  0.00    -0.189 NA
ATOM      2  H   UNL     1       9.414  -2.745  25.294  0.00  0.00    +0.148 HD
ENDROOT
BRANCH   1   3
ATOM      3  S   UNL     1       9.306  -2.023  23.179  0.00  0.00    +0.058 S 
ATOM      4  O   UNL     1       8.252  -2.227  22.212  0.00  0.00    -0.153 OA
ATOM      5  O   UNL     1      10.573  -2.715  23.104  0.00  0.00    -0.153 OA
BRANCH   3   6
ATOM      6  C   UNL     1       9.666  -0.282  23.267  0.00  0.00    +0.106 A 
ATOM      7  C   UNL     1       9.889   0.317  24.512  0.00  0.00    +0.035 A 
ATOM      8  C   UNL     1      10.226   1.670  24.575  0.00  0.00    +0.086 A 
ATOM      9  C   UNL     1      10.333   2.413  23.389  0.00  0.00    +0.273 A 
ATOM     10  C   UNL     1      10.081   1.816  22.143  0.00  0.00    +0.086 A 
ATOM     11  C   UNL     1       9.741   0.462  22.084  0.00  0.00    +0.035 A 
BRANCH   9  12
ATOM     12  N   UNL     1      10.726   3.827  23.452  0.00  0.00    +0.080 N 
ATOM     13  O   UNL     1      11.925   4.100  23.291  0.00  0.00    +0.041 OA
ATOM     14  O   UNL     1       9.834   4.663  23.653  0.00  0.00    -0.576 OA
ENDBRANCH   9  12
ENDBRANCH   3   6
ENDBRANCH   1   3
BRANCH   1  15
ATOM     15  C   UNL     1       7.393  -3.093  24.766  0.00  0.00    +0.121 C 
BRANCH  15  16
ATOM     16  C   UNL     1       7.630  -4.604  25.000  0.00  0.00    +0.123 C 
BRANCH  16  17
ATOM     17  C   UNL     1       8.968  -4.756  25.693  0.00  0.00    +0.310 C 
ATOM     18  O   UNL     1       9.144  -4.535  26.883  0.00  0.00    -0.251 OA
BRANCH  17  19
ATOM     19  O   UNL     1       9.960  -5.197  24.892  0.00  0.00    -0.480 OA
ATOM     20  H   UNL     1       9.777  -6.020  24.400  0.00  0.00    +0.295 HD
ENDBRANCH  17  19
ENDBRANCH  16  17
BRANCH  16  21
ATOM     21  C   UNL     1       6.517  -5.302  25.816  0.00  0.00    +0.067 C 
BRANCH  21  22
ATOM     22  C   UNL     1       5.801  -4.306  26.705  0.00  0.00    +0.227 C 
ATOM     23  O   UNL     1       5.905  -4.302  27.929  0.00  0.00    -0.301 OA
ENDBRANCH  21  22
BRANCH  21  24
ATOM     24  C   UNL     1       5.464  -6.060  24.978  0.00  0.00    +0.008 C 
ATOM     25  C   UNL     1       4.493  -6.932  25.770  0.00  0.00    +0.004 C 
ENDBRANCH  21  24
ENDBRANCH  16  21
ENDBRANCH  15  16
ENDBRANCH   1  15
TORSDOF 10
ENDMDL
MODEL 4
REMARK VINA RESULT:      -6.3      1.362      2.041
REMARK  Name = 
REMARK  11 active torsions:
REMARK  status: ('A' for Active; 'I' for Inactive)
REMARK    1  A    between atoms: C_2  and  C_3
REMARK    2  A    between atoms: C_2  and  C_5
REMARK    3  A    between atoms: C_2  and  C_7
REMARK    4  A    between atoms: C_3  and  C_4
REMARK    5  A    between atoms: C_7  and  C_9
REMARK    6  A    between atoms: C_7  and  C_23
REMARK    7  A    between atoms: C_9  and  N_10
REMARK    8  A    between atoms: N_10  and  S_11
REMARK    9  A    between atoms: S_11  and  C_14
REMARK   10  A    between atoms: C_17  and  N_20
REMARK   11  A    between atoms: C_23  and  O_24
REMARK                            x       y       z     vdW  Elec       q    Type
REMARK                         _______ _______ _______ _____ _____    ______ ____
ROOT
ATOM      1  N   UNL     1       7.823  -2.041  24.072  0.00  0.00    -0.189 NA
ATOM      2  H   UNL     1       7.725  -1.086  24.456  0.00  0.00    +0.148 HD
ENDROOT
BRANCH   1   3
ATOM      3  S   UNL     1       9.183  -2.046  23.055  0.00  0.00    +0.058 S 
ATOM      4  O   UNL     1       8.726  -2.305  21.709  0.00  0.00    -0.153 OA
ATOM      5  O   UNL     1      10.191  -2.855  23.702  0.00  0.00    -0.153 OA
BRANCH   3   6
ATOM      6  C   UNL     1       9.727  -0.355  23.155  0.00  0.00    +0.106 A 
ATOM      7  C   UNL     1       9.658   0.463  22.021  0.00  0.00    +0.035 A 
ATOM      8  C   UNL     1      10.033   1.804  22.114  0.00  0.00    +0.086 A 
ATOM      9  C   UNL     1      10.479   2.314  23.343  0.00  0.00    +0.273 A 
ATOM     10  C   UNL     1      10.574   1.484  24.472  0.00  0.00    +0.086 A 
ATOM     11  C   UNL     1      10.201   0.142  24.374  0.00  0.00    +0.035 A 
BRANCH   9  12
ATOM     12  N   UNL     1      10.836   3.734  23.453  0.00  0.00    +0.080 N 
ATOM     13  O   UNL     1       9.928   4.540  23.701  0.00  0.00    +0.041 OA
ATOM     14  O   UNL     1      12.027   4.041  23.298  0.00  0.00    -0.576 OA
ENDBRANCH   9  12
ENDBRANCH   3   6
ENDBRANCH   1   3
BRANCH   1  15
ATOM     15  C   UNL     1       7.763  -3.102  25.103  0.00  0.00    +0.121 C 
BRANCH  15  16
ATOM     16  C   UNL     1       6.565  -4.057  24.890  0.00  0.00    +0.123 C 
BRANCH  16  17
ATOM     17  C   UNL     1       6.410  -4.272  23.399  0.00  0.00    +0.310 C 
ATOM     18  O   UNL     1       5.488  -3.813  22.740  0.00  0.00    -0.251 OA
BRANCH  17  19
ATOM     19  O   UNL     1       7.402  -4.993  22.837  0.00  0.00    -0.480 OA
ATOM     20  H   UNL     1       7.545  -4.847  21.882  0.00  0.00    +0.295 HD
ENDBRANCH  17  19
ENDBRANCH  16  17
BRANCH  16  21
ATOM     21  C   UNL     1       6.696  -5.413  25.621  0.00  0.00    +0.067 C 
BRANCH  21  22
ATOM     22  C   UNL     1       7.592  -5.282  26.836  0.00  0.00    +0.227 C 
ATOM     23  O   UNL     1       7.414  -5.917  27.873  0.00  0.00    -0.301 OA
ENDBRANCH  21  22
BRANCH  21  24
ATOM     24  C   UNL     1       5.363  -6.057  26.059  0.00  0.00    +0.008 C 
ATOM     25  C   UNL     1       4.615  -6.830  24.977  0.00  0.00    +0.004 C 
ENDBRANCH  21  24
ENDBRANCH  16  21
ENDBRANCH  15  16
ENDBRANCH   1  15
TORSDOF 10
ENDMDL
MODEL 5
REMARK VINA RESULT:      -6.3      2.389      3.629
REMARK  Name = 
REMARK  11 active torsions:
REMARK  status: ('A' for Active; 'I' for Inactive)
REMARK    1  A    between atoms: C_2  and  C_3
REMARK    2  A    between atoms: C_2  and  C_5
REMARK    3  A    between atoms: C_2  and  C_7
REMARK    4  A    between atoms: C_3  and  C_4
REMARK    5  A    between atoms: C_7  and  C_9
REMARK    6  A    between atoms: C_7  and  C_23
REMARK    7  A    between atoms: C_9  and  N_10
REMARK    8  A    between atoms: N_10  and  S_11
REMARK    9  A    between atoms: S_11  and  C_14
REMARK   10  A    between atoms: C_17  and  N_20
REMARK   11  A    between atoms: C_23  and  O_24
REMARK                            x       y       z     vdW  Elec       q    Type
REMARK                         _______ _______ _______ _____ _____    ______ ____
ROOT
ATOM      1  N   UNL     1       5.913  -3.770  24.009  0.00  0.00    -0.189 NA
ATOM      2  H   UNL     1       5.777  -2.826  24.407  0.00  0.00    +0.148 HD
ENDROOT
BRANCH   1   3
ATOM      3  S   UNL     1       6.469  -3.577  22.416  0.00  0.00    +0.058 S 
ATOM      4  O   UNL     1       5.327  -3.279  21.583  0.00  0.00    -0.153 OA
ATOM      5  O   UNL     1       7.363  -4.680  22.143  0.00  0.00    -0.153 OA
BRANCH   3   6
ATOM      6  C   UNL     1       7.472  -2.113  22.548  0.00  0.00    +0.106 A 
ATOM      7  C   UNL     1       6.913  -0.933  23.053  0.00  0.00    +0.035 A 
ATOM      8  C   UNL     1       7.715   0.198  23.208  0.00  0.00    +0.086 A 
ATOM      9  C   UNL     1       9.071   0.140  22.851  0.00  0.00    +0.273 A 
ATOM     10  C   UNL     1       9.622  -1.037  22.318  0.00  0.00    +0.086 A 
ATOM     11  C   UNL     1       8.816  -2.167  22.162  0.00  0.00    +0.035 A 
BRANCH   9  12
ATOM     12  N   UNL     1       9.925   1.318  23.051  0.00  0.00    +0.080 N 
ATOM     13  O   UNL     1      10.200   2.006  22.057  0.00  0.00    +0.041 OA
ATOM     14  O   UNL     1      10.313   1.558  24.203  0.00  0.00    -0.576 OA
ENDBRANCH   9  12
ENDBRANCH   3   6
ENDBRANCH   1   3
BRANCH   1  15
ATOM     15  C   UNL     1       6.701  -4.672  24.880  0.00  0.00    +0.121 C 
BRANCH  15  16
ATOM     16  C   UNL     1       7.146  -3.976  26.189  0.00  0.00    +0.123 C 
BRANCH  16  17
ATOM     17  C   UNL     1       6.932  -4.956  27.323  0.00  0.00    +0.310 C 
ATOM     18  O   UNL     1       5.946  -4.950  28.048  0.00  0.00    -0.251 OA
BRANCH  17  19
ATOM     19  O   UNL     1       7.912  -5.874  27.456  0.00  0.00    -0.480 OA
ATOM     20  H   UNL     1       8.375  -5.882  28.315  0.00  0.00    +0.295 HD
ENDBRANCH  17  19
ENDBRANCH  16  17
BRANCH  16  21
ATOM     21  C   UNL     1       8.609  -3.476  26.177  0.00  0.00    +0.067 C 
BRANCH  21  22
ATOM     22  C   UNL     1       9.383  -4.112  25.041  0.00  0.00    +0.227 C 
ATOM     23  O   UNL     1      10.026  -5.151  25.166  0.00  0.00    -0.301 OA
ENDBRANCH  21  22
BRANCH  21  24
ATOM     24  C   UNL     1       8.780  -1.943  26.089  0.00  0.00    +0.008 C 
ATOM     25  C   UNL     1       7.657  -1.116  26.710  0.00  0.00    +0.004 C 
ENDBRANCH  21  24
ENDBRANCH  16  21
ENDBRANCH  15  16
ENDBRANCH   1  15
TORSDOF 10
ENDMDL
MODEL 6
REMARK VINA RESULT:      -6.1      3.089      7.375
REMARK  Name = 
REMARK  11 active torsions:
REMARK  status: ('A' for Active; 'I' for Inactive)
REMARK    1  A    between atoms: C_2  and  C_3
REMARK    2  A    between atoms: C_2  and  C_5
REMARK    3  A    between atoms: C_2  and  C_7
REMARK    4  A    between atoms: C_3  and  C_4
REMARK    5  A    between atoms: C_7  and  C_9
REMARK    6  A    between atoms: C_7  and  C_23
REMARK    7  A    between atoms: C_9  and  N_10
REMARK    8  A    between atoms: N_10  and  S_11
REMARK    9  A    between atoms: S_11  and  C_14
REMARK   10  A    between atoms: C_17  and  N_20
REMARK   11  A    between atoms: C_23  and  O_24
REMARK                            x       y       z     vdW  Elec       q    Type
REMARK                         _______ _______ _______ _____ _____    ______ ____
ROOT
ATOM      1  N   UNL     1       7.688  -3.234  22.171  0.00  0.00    -0.189 NA
ATOM      2  H   UNL     1       8.590  -3.660  22.441  0.00  0.00    +0.148 HD
ENDROOT
BRANCH   1   3
ATOM      3  S   UNL     1       6.526  -4.472  22.142  0.00  0.00    +0.058 S 
ATOM      4  O   UNL     1       7.102  -5.601  21.450  0.00  0.00    -0.153 OA
ATOM      5  O   UNL     1       5.276  -3.869  21.739  0.00  0.00    -0.153 OA
BRANCH   3   6
ATOM      6  C   UNL     1       6.376  -4.881  23.868  0.00  0.00    +0.106 A 
ATOM      7  C   UNL     1       5.105  -5.038  24.434  0.00  0.00    +0.035 A 
ATOM      8  C   UNL     1       4.989  -5.414  25.773  0.00  0.00    +0.086 A 
ATOM      9  C   UNL     1       6.148  -5.625  26.536  0.00  0.00    +0.273 A 
ATOM     10  C   UNL     1       7.421  -5.438  25.973  0.00  0.00    +0.086 A 
ATOM     11  C   UNL     1       7.534  -5.060  24.633  0.00  0.00    +0.035 A 
BRANCH   9  12
ATOM     12  N   UNL     1       6.028  -6.058  27.934  0.00  0.00    +0.080 N 
ATOM     13  O   UNL     1       6.274  -5.226  28.819  0.00  0.00    +0.041 OA
ATOM     14  O   UNL     1       5.678  -7.228  28.145  0.00  0.00    -0.576 OA
ENDBRANCH   9  12
ENDBRANCH   3   6
ENDBRANCH   1   3
BRANCH   1  15
ATOM     15  C   UNL     1       7.348  -2.026  22.956  0.00  0.00    +0.121 C 
BRANCH  15  16
ATOM     16  C   UNL     1       8.527  -1.551  23.838  0.00  0.00    +0.123 C 
BRANCH  16  17
ATOM     17  C   UNL     1       9.791  -2.182  23.292  0.00  0.00    +0.310 C 
ATOM     18  O   UNL     1      10.372  -1.781  22.292  0.00  0.00    -0.251 OA
BRANCH  17  19
ATOM     19  O   UNL     1      10.256  -3.216  24.023  0.00  0.00    -0.480 OA
ATOM     20  H   UNL     1       9.797  -4.069  23.895  0.00  0.00    +0.295 HD
ENDBRANCH  17  19
ENDBRANCH  16  17
BRANCH  16  21
ATOM     21  C   UNL     1       8.683  -0.015  23.918  0.00  0.00    +0.067 C 
BRANCH  21  22
ATOM     22  C   UNL     1       7.374   0.635  24.318  0.00  0.00    +0.227 C 
ATOM     23  O   UNL     1       6.826   0.434  25.399  0.00  0.00    -0.301 OA
ENDBRANCH  21  22
BRANCH  21  24
ATOM     24  C   UNL     1       9.791   0.486  24.870  0.00  0.00    +0.008 C 
ATOM     25  C   UNL     1      10.920   1.276  24.212  0.00  0.00    +0.004 C 
ENDBRANCH  21  24
ENDBRANCH  16  21
ENDBRANCH  15  16
ENDBRANCH   1  15
TORSDOF 10
ENDMDL
MODEL 7
REMARK VINA RESULT:      -6.1      2.795      3.877
REMARK  Name = 
REMARK  11 active torsions:
REMARK  status: ('A' for Active; 'I' for Inactive)
REMARK    1  A    between atoms: C_2  and  C_3
REMARK    2  A    between atoms: C_2  and  C_5
REMARK    3  A    between atoms: C_2  and  C_7
REMARK    4  A    between atoms: C_3  and  C_4
REMARK    5  A    between atoms: C_7  and  C_9
REMARK    6  A    between atoms: C_7  and  C_23
REMARK    7  A    between atoms: C_9  and  N_10
REMARK    8  A    between atoms: N_10  and  S_11
REMARK    9  A    between atoms: S_11  and  C_14
REMARK   10  A    between atoms: C_17  and  N_20
REMARK   11  A    between atoms: C_23  and  O_24
REMARK                            x       y       z     vdW  Elec       q    Type
REMARK                         _______ _______ _______ _____ _____    ______ ____
ROOT
ATOM      1  N   UNL     1       7.616  -4.925  23.716  0.00  0.00    -0.189 NA
ATOM      2  H   UNL     1       7.621  -4.472  22.787  0.00  0.00    +0.148 HD
ENDROOT
BRANCH   1   3
ATOM      3  S   UNL     1       8.634  -4.021  24.731  0.00  0.00    +0.058 S 
ATOM      4  O   UNL     1       9.945  -4.626  24.693  0.00  0.00    -0.153 OA
ATOM      5  O   UNL     1       7.914  -3.804  25.966  0.00  0.00    -0.153 OA
BRANCH   3   6
ATOM      6  C   UNL     1       8.706  -2.456  23.887  0.00  0.00    +0.106 A 
ATOM      7  C   UNL     1       8.697  -1.268  24.627  0.00  0.00    +0.035 A 
ATOM      8  C   UNL     1       8.811  -0.044  23.968  0.00  0.00    +0.086 A 
ATOM      9  C   UNL     1       8.927  -0.019  22.569  0.00  0.00    +0.273 A 
ATOM     10  C   UNL     1       8.906  -1.211  21.827  0.00  0.00    +0.086 A 
ATOM     11  C   UNL     1       8.790  -2.435  22.490  0.00  0.00    +0.035 A 
BRANCH   9  12
ATOM     12  N   UNL     1       9.085   1.267  21.877  0.00  0.00    +0.080 N 
ATOM     13  O   UNL     1       8.073   1.783  21.381  0.00  0.00    +0.041 OA
ATOM     14  O   UNL     1      10.220   1.762  21.838  0.00  0.00    -0.576 OA
ENDBRANCH   9  12
ENDBRANCH   3   6
ENDBRANCH   1   3
BRANCH   1  15
ATOM     15  C   UNL     1       6.256  -5.211  24.226  0.00  0.00    +0.121 C 
BRANCH  15  16
ATOM     16  C   UNL     1       5.184  -5.122  23.114  0.00  0.00    +0.123 C 
BRANCH  16  17
ATOM     17  C   UNL     1       5.834  -5.555  21.816  0.00  0.00    +0.310 C 
ATOM     18  O   UNL     1       5.969  -4.820  20.847  0.00  0.00    -0.251 OA
BRANCH  17  19
ATOM     19  O   UNL     1       6.294  -6.823  21.822  0.00  0.00    -0.480 OA
ATOM     20  H   UNL     1       5.942  -7.407  21.122  0.00  0.00    +0.295 HD
ENDBRANCH  17  19
ENDBRANCH  16  17
BRANCH  16  21
ATOM     21  C   UNL     1       3.915  -5.961  23.387  0.00  0.00    +0.067 C 
BRANCH  21  22
ATOM     22  C   UNL     1       4.104  -6.836  24.609  0.00  0.00    +0.227 C 
ATOM     23  O   UNL     1       3.674  -7.985  24.686  0.00  0.00    -0.301 OA
ENDBRANCH  21  22
BRANCH  21  24
ATOM     24  C   UNL     1       2.613  -5.148  23.562  0.00  0.00    +0.008 C 
ATOM     25  C   UNL     1       1.375  -5.730  22.887  0.00  0.00    +0.004 C 
ENDBRANCH  21  24
ENDBRANCH  16  21
ENDBRANCH  15  16
ENDBRANCH   1  15
TORSDOF 10
ENDMDL
MODEL 8
REMARK VINA RESULT:      -6.0      2.565      8.221
REMARK  Name = 
REMARK  11 active torsions:
REMARK  status: ('A' for Active; 'I' for Inactive)
REMARK    1  A    between atoms: C_2  and  C_3
REMARK    2  A    between atoms: C_2  and  C_5
REMARK    3  A    between atoms: C_2  and  C_7
REMARK    4  A    between atoms: C_3  and  C_4
REMARK    5  A    between atoms: C_7  and  C_9
REMARK    6  A    between atoms: C_7  and  C_23
REMARK    7  A    between atoms: C_9  and  N_10
REMARK    8  A    between atoms: N_10  and  S_11
REMARK    9  A    between atoms: S_11  and  C_14
REMARK   10  A    between atoms: C_17  and  N_20
REMARK   11  A    between atoms: C_23  and  O_24
REMARK                            x       y       z     vdW  Elec       q    Type
REMARK                         _______ _______ _______ _____ _____    ______ ____
ROOT
ATOM      1  N   UNL     1       8.680   0.812  24.109  0.00  0.00    -0.189 NA
ATOM      2  H   UNL     1       8.321   0.839  23.140  0.00  0.00    +0.148 HD
ENDROOT
BRANCH   1   3
ATOM      3  S   UNL     1      10.007  -0.247  24.134  0.00  0.00    +0.058 S 
ATOM      4  O   UNL     1      10.973   0.277  25.071  0.00  0.00    -0.153 OA
ATOM      5  O   UNL     1      10.340  -0.540  22.758  0.00  0.00    -0.153 OA
BRANCH   3   6
ATOM      6  C   UNL     1       9.291  -1.724  24.823  0.00  0.00    +0.106 A 
ATOM      7  C   UNL     1       8.526  -1.642  25.993  0.00  0.00    +0.035 A 
ATOM      8  C   UNL     1       7.919  -2.791  26.501  0.00  0.00    +0.086 A 
ATOM      9  C   UNL     1       8.088  -4.016  25.835  0.00  0.00    +0.273 A 
ATOM     10  C   UNL     1       8.880  -4.100  24.679  0.00  0.00    +0.086 A 
ATOM     11  C   UNL     1       9.488  -2.948  24.174  0.00  0.00    +0.035 A 
BRANCH   9  12
ATOM     12  N   UNL     1       7.418  -5.218  26.347  0.00  0.00    +0.080 N 
ATOM     13  O   UNL     1       7.754  -5.633  27.466  0.00  0.00    +0.041 OA
ATOM     14  O   UNL     1       6.550  -5.741  25.633  0.00  0.00    -0.576 OA
ENDBRANCH   9  12
ENDBRANCH   3   6
ENDBRANCH   1   3
BRANCH   1  15
ATOM     15  C   UNL     1       8.894   2.154  24.698  0.00  0.00    +0.121 C 
BRANCH  15  16
ATOM     16  C   UNL     1       9.368   3.184  23.645  0.00  0.00    +0.123 C 
BRANCH  16  17
ATOM     17  C   UNL     1       8.891   2.706  22.289  0.00  0.00    +0.310 C 
ATOM     18  O   UNL     1       7.737   2.818  21.898  0.00  0.00    -0.251 OA
BRANCH  17  19
ATOM     19  O   UNL     1       9.859   2.170  21.518  0.00  0.00    -0.480 OA
ATOM     20  H   UNL     1       9.824   1.200  21.404  0.00  0.00    +0.295 HD
ENDBRANCH  17  19
ENDBRANCH  16  17
BRANCH  16  21
ATOM     21  C   UNL     1       8.885   4.629  23.908  0.00  0.00    +0.067 C 
BRANCH  21  22
ATOM     22  C   UNL     1       7.940   4.670  25.092  0.00  0.00    +0.227 C 
ATOM     23  O   UNL     1       7.015   5.474  25.185  0.00  0.00    -0.301 OA
ENDBRANCH  21  22
BRANCH  21  24
ATOM     24  C   UNL     1      10.006   5.666  24.138  0.00  0.00    +0.008 C 
ATOM     25  C   UNL     1      11.361   5.321  23.528  0.00  0.00    +0.004 C 
ENDBRANCH  21  24
ENDBRANCH  16  21
ENDBRANCH  15  16
ENDBRANCH   1  15
TORSDOF 10
ENDMDL
MODEL 9
REMARK VINA RESULT:      -5.8      3.421      7.731
REMARK  Name = 
REMARK  11 active torsions:
REMARK  status: ('A' for Active; 'I' for Inactive)
REMARK    1  A    between atoms: C_2  and  C_3
REMARK    2  A    between atoms: C_2  and  C_5
REMARK    3  A    between atoms: C_2  and  C_7
REMARK    4  A    between atoms: C_3  and  C_4
REMARK    5  A    between atoms: C_7  and  C_9
REMARK    6  A    between atoms: C_7  and  C_23
REMARK    7  A    between atoms: C_9  and  N_10
REMARK    8  A    between atoms: N_10  and  S_11
REMARK    9  A    between atoms: S_11  and  C_14
REMARK   10  A    between atoms: C_17  and  N_20
REMARK   11  A    between atoms: C_23  and  O_24
REMARK                            x       y       z     vdW  Elec       q    Type
REMARK                         _______ _______ _______ _____ _____    ______ ____
ROOT
ATOM      1  N   UNL     1       5.937  -2.364  23.302  0.00  0.00    -0.189 NA
ATOM      2  H   UNL     1       4.984  -2.027  23.085  0.00  0.00    +0.148 HD
ENDROOT
BRANCH   1   3
ATOM      3  S   UNL     1       5.962  -4.039  23.024  0.00  0.00    +0.058 S 
ATOM      4  O   UNL     1       7.232  -4.366  22.417  0.00  0.00    -0.153 OA
ATOM      5  O   UNL     1       4.698  -4.385  22.415  0.00  0.00    -0.153 OA
BRANCH   3   6
ATOM      6  C   UNL     1       5.940  -4.691  24.680  0.00  0.00    +0.106 A 
ATOM      7  C   UNL     1       5.226  -5.864  24.953  0.00  0.00    +0.035 A 
ATOM      8  C   UNL     1       5.256  -6.405  26.239  0.00  0.00    +0.086 A 
ATOM      9  C   UNL     1       5.996  -5.763  27.243  0.00  0.00    +0.273 A 
ATOM     10  C   UNL     1       6.688  -4.571  26.973  0.00  0.00    +0.086 A 
ATOM     11  C   UNL     1       6.654  -4.031  25.685  0.00  0.00    +0.035 A 
BRANCH   9  12
ATOM     12  N   UNL     1       6.060  -6.353  28.587  0.00  0.00    +0.080 N 
ATOM     13  O   UNL     1       5.758  -7.549  28.706  0.00  0.00    +0.041 OA
ATOM     14  O   UNL     1       6.419  -5.620  29.520  0.00  0.00    -0.576 OA
ENDBRANCH   9  12
ENDBRANCH   3   6
ENDBRANCH   1   3
BRANCH   1  15
ATOM     15  C   UNL     1       7.006  -1.569  22.655  0.00  0.00    +0.121 C 
BRANCH  15  16
ATOM     16  C   UNL     1       7.460  -0.379  23.532  0.00  0.00    +0.123 C 
BRANCH  16  17
ATOM     17  C   UNL     1       6.464  -0.236  24.664  0.00  0.00    +0.310 C 
ATOM     18  O   UNL     1       6.634  -0.706  25.781  0.00  0.00    -0.251 OA
BRANCH  17  19
ATOM     19  O   UNL     1       5.370   0.490  24.352  0.00  0.00    -0.480 OA
ATOM     20  H   UNL     1       4.517   0.131  24.664  0.00  0.00    +0.295 HD
ENDBRANCH  17  19
ENDBRANCH  16  17
BRANCH  16  21
ATOM     21  C   UNL     1       8.895  -0.513  24.091  0.00  0.00    +0.067 C 
BRANCH  21  22
ATOM     22  C   UNL     1       9.662  -1.586  23.345  0.00  0.00    +0.227 C 
ATOM     23  O   UNL     1      10.026  -2.638  23.866  0.00  0.00    -0.301 OA
ENDBRANCH  21  22
BRANCH  21  24
ATOM     24  C   UNL     1       9.731   0.786  24.080  0.00  0.00    +0.008 C 
ATOM     25  C   UNL     1      11.154   0.660  24.616  0.00  0.00    +0.004 C 
ENDBRANCH  21  24
ENDBRANCH  16  21
ENDBRANCH  15  16
ENDBRANCH   1  15
TORSDOF 10
ENDMDL
