MODEL 1
REMARK VINA RESULT:      -5.2      0.000      0.000
REMARK  Name = 
REMARK  3 active torsions:
REMARK  status: ('A' for Active; 'I' for Inactive)
REMARK    1  A    between atoms: C_2  and  C_4
REMARK    2  A    between atoms: C_8  and  O_9
REMARK    3  A    between atoms: C_10  and  O_11
REMARK                            x       y       z     vdW  Elec       q    Type
REMARK                         _______ _______ _______ _____ _____    ______ ____
ROOT
ATOM      1  C   UNL     1       9.785  -0.889  23.427  0.00  0.00    +0.081 A 
ATOM      2  C   UNL     1       9.785  -0.038  22.321  0.00  0.00    +0.171 A 
ATOM      3  C   UNL     1      10.073   1.320  22.479  0.00  0.00    +0.159 A 
ATOM      4  C   UNL     1      10.391   1.846  23.727  0.00  0.00    +0.049 A 
ATOM      5  C   UNL     1      10.399   1.002  24.837  0.00  0.00    +0.005 A 
ATOM      6  C   UNL     1      10.087  -0.355  24.690  0.00  0.00    +0.017 A 
ENDROOT
BRANCH   1  10
ATOM      7  N   UNL     1       8.390  -2.717  22.624  0.00  0.00    -0.325 N 
ATOM      8  H   UNL     1       7.723  -2.016  22.315  0.00  0.00    +0.145 HD
ATOM      9  H   UNL     1       8.110  -3.686  22.651  0.00  0.00    +0.145 HD
ATOM     10  C   UNL     1       9.481  -2.343  23.353  0.00  0.00    +0.245 C 
ATOM     11  O   UNL     1      10.190  -3.177  23.904  0.00  0.00    -0.270 OA
ENDBRANCH   1  10
BRANCH   2  12
ATOM     12  O   UNL     1       9.489  -0.481  21.054  0.00  0.00    -0.503 OA
ATOM     13  H   UNL     1      10.285  -0.263  20.527  0.00  0.00    +0.292 HD
ENDBRANCH   2  12
BRANCH   3  14
ATOM     14  O   UNL     1      10.025   2.105  21.358  0.00  0.00    -0.503 OA
ATOM     15  H   UNL     1      10.015   1.520  20.580  0.00  0.00    +0.292 HD
ENDBRANCH   3  14
TORSDOF 3
ENDMDL
MODEL 2
REMARK VINA RESULT:      -5.0      2.511      3.954
REMARK  Name = 
REMARK  3 active torsions:
REMARK  status: ('A' for Active; 'I' for Inactive)
REMARK    1  A    between atoms: C_2  and  C_4
REMARK    2  A    between atoms: C_8  and  O_9
REMARK    3  A    between atoms: C_10  and  O_11
REMARK                            x       y       z     vdW  Elec       q    Type
REMARK                         _______ _______ _______ _____ _____    ______ ____
ROOT
ATOM      1  C   UNL     1      10.008   1.794  23.615  0.00  0.00    +0.081 A 
ATOM      2  C   UNL     1       9.779   1.183  22.382  0.00  0.00    +0.171 A 
ATOM      3  C   UNL     1       9.805  -0.210  22.272  0.00  0.00    +0.159 A 
ATOM      4  C   UNL     1      10.030  -1.013  23.386  0.00  0.00    +0.049 A 
ATOM      5  C   UNL     1      10.255  -0.410  24.623  0.00  0.00    +0.005 A 
ATOM      6  C   UNL     1      10.256   0.985  24.735  0.00  0.00    +0.017 A 
ENDROOT
BRANCH   1  10
ATOM      7  N   UNL     1      10.970   3.989  23.174  0.00  0.00    -0.325 N 
ATOM      8  H   UNL     1      11.751   3.511  22.734  0.00  0.00    +0.145 HD
ATOM      9  H   UNL     1      11.050   4.972  23.386  0.00  0.00    +0.145 HD
ATOM     10  C   UNL     1      10.009   3.268  23.821  0.00  0.00    +0.245 C 
ATOM     11  O   UNL     1       9.171   3.819  24.525  0.00  0.00    -0.270 OA
ENDBRANCH   1  10
BRANCH   2  12
ATOM     12  O   UNL     1       9.542   1.905  21.237  0.00  0.00    -0.503 OA
ATOM     13  H   UNL     1      10.237   1.609  20.613  0.00  0.00    +0.292 HD
ENDBRANCH   2  12
BRANCH   3  14
ATOM     14  O   UNL     1       9.604  -0.744  21.028  0.00  0.00    -0.503 OA
ATOM     15  H   UNL     1       9.550  -0.011  20.390  0.00  0.00    +0.292 HD
ENDBRANCH   3  14
TORSDOF 3
ENDMDL
MODEL 3
REMARK VINA RESULT:      -4.8      1.844      2.444
REMARK  Name = 
REMARK  3 active torsions:
REMARK  status: ('A' for Active; 'I' for Inactive)
REMARK    1  A    between atoms: C_2  and  C_4
REMARK    2  A    between atoms: C_8  and  O_9
REMARK    3  A    between atoms: C_10  and  O_11
REMARK                            x       y       z     vdW  Elec       q    Type
REMARK                         _______ _______ _______ _____ _____    ______ ____
ROOT
ATOM      1  C   UNL     1       9.685  -1.022  23.563  0.00  0.00    +0.081 A 
ATOM      2  C   UNL     1      10.115   0.196  24.090  0.00  0.00    +0.171 A 
ATOM      3  C   UNL     1      10.227   1.319  23.266  0.00  0.00    +0.159 A 
ATOM      4  C   UNL     1       9.889   1.256  21.918  0.00  0.00    +0.049 A 
ATOM      5  C   UNL     1       9.452   0.044  21.384  0.00  0.00    +0.005 A 
ATOM      6  C   UNL     1       9.362  -1.091  22.198  0.00  0.00    +0.017 A 
ENDROOT
BRANCH   1  10
ATOM      7  N   UNL     1       8.741  -2.217  25.464  0.00  0.00    -0.325 N 
ATOM      8  H   UNL     1       8.415  -1.320  25.812  0.00  0.00    +0.145 HD
ATOM      9  H   UNL     1       8.719  -3.020  26.074  0.00  0.00    +0.145 HD
ATOM     10  C   UNL     1       9.546  -2.268  24.363  0.00  0.00    +0.245 C 
ATOM     11  O   UNL     1      10.111  -3.306  24.040  0.00  0.00    -0.270 OA
ENDBRANCH   1  10
BRANCH   2  12
ATOM     12  O   UNL     1      10.462   0.343  25.412  0.00  0.00    -0.503 OA
ATOM     13  H   UNL     1       9.823  -0.221  25.896  0.00  0.00    +0.292 HD
ENDBRANCH   2  12
BRANCH   3  14
ATOM     14  O   UNL     1      10.686   2.475  23.840  0.00  0.00    -0.503 OA
ATOM     15  H   UNL     1       9.967   2.849  24.380  0.00  0.00    +0.292 HD
ENDBRANCH   3  14
TORSDOF 3
ENDMDL
MODEL 4
REMARK VINA RESULT:      -4.7      2.034      3.643
REMARK  Name = 
REMARK  3 active torsions:
REMARK  status: ('A' for Active; 'I' for Inactive)
REMARK    1  A    between atoms: C_2  and  C_4
REMARK    2  A    between atoms: C_8  and  O_9
REMARK    3  A    between atoms: C_10  and  O_11
REMARK                            x       y       z     vdW  Elec       q    Type
REMARK                         _______ _______ _______ _____ _____    ______ ____
ROOT
ATOM      1  C   UNL     1       9.333   0.278  22.911  0.00  0.00    +0.081 A 
ATOM      2  C   UNL     1       9.761  -1.048  22.833  0.00  0.00    +0.171 A 
ATOM      3  C   UNL     1       9.746  -1.860  23.971  0.00  0.00    +0.159 A 
ATOM      4  C   UNL     1       9.282  -1.377  25.191  0.00  0.00    +0.049 A 
ATOM      5  C   UNL     1       8.847  -0.055  25.276  0.00  0.00    +0.005 A 
ATOM      6  C   UNL     1       8.883   0.771  24.146  0.00  0.00    +0.017 A 
ENDROOT
BRANCH   1  10
ATOM      7  N   UNL     1      10.243   2.223  21.761  0.00  0.00    -0.325 N 
ATOM      8  H   UNL     1      10.769   2.423  22.607  0.00  0.00    +0.145 HD
ATOM      9  H   UNL     1      10.182   2.926  21.040  0.00  0.00    +0.145 HD
ATOM     10  C   UNL     1       9.324   1.214  21.756  0.00  0.00    +0.245 C 
ATOM     11  O   UNL     1       8.540   1.078  20.824  0.00  0.00    -0.270 OA
ENDBRANCH   1  10
BRANCH   2  12
ATOM     12  O   UNL     1      10.226  -1.602  21.665  0.00  0.00    -0.503 OA
ATOM     13  H   UNL     1       9.466  -1.549  21.050  0.00  0.00    +0.292 HD
ENDBRANCH   2  12
BRANCH   3  14
ATOM     14  O   UNL     1      10.208  -3.141  23.833  0.00  0.00    -0.503 OA
ATOM     15  H   UNL     1       9.497  -3.678  23.443  0.00  0.00    +0.292 HD
ENDBRANCH   3  14
TORSDOF 3
ENDMDL
MODEL 5
REMARK VINA RESULT:      -4.7      2.747      4.451
REMARK  Name = 
REMARK  3 active torsions:
REMARK  status: ('A' for Active; 'I' for Inactive)
REMARK    1  A    between atoms: C_2  and  C_4
REMARK    2  A    between atoms: C_8  and  O_9
REMARK    3  A    between atoms: C_10  and  O_11
REMARK                            x       y       z     vdW  Elec       q    Type
REMARK                         _______ _______ _______ _____ _____    ______ ____
ROOT
ATOM      1  C   UNL     1       9.923   1.503  23.178  0.00  0.00    +0.081 A 
ATOM      2  C   UNL     1      10.044   0.391  24.012  0.00  0.00    +0.171 A 
ATOM      3  C   UNL     1       9.855  -0.896  23.500  0.00  0.00    +0.159 A 
ATOM      4  C   UNL     1       9.572  -1.097  22.153  0.00  0.00    +0.049 A 
ATOM      5  C   UNL     1       9.456   0.008  21.311  0.00  0.00    +0.005 A 
ATOM      6  C   UNL     1       9.618   1.301  21.822  0.00  0.00    +0.017 A 
ENDROOT
BRANCH   1  10
ATOM      7  N   UNL     1      11.085   3.640  23.047  0.00  0.00    -0.325 N 
ATOM      8  H   UNL     1      11.778   3.179  22.464  0.00  0.00    +0.145 HD
ATOM      9  H   UNL     1      11.285   4.556  23.420  0.00  0.00    +0.145 HD
ATOM     10  C   UNL     1      10.098   2.906  23.638  0.00  0.00    +0.245 C 
ATOM     11  O   UNL     1       9.375   3.395  24.498  0.00  0.00    -0.270 OA
ENDBRANCH   1  10
BRANCH   2  12
ATOM     12  O   UNL     1      10.328   0.505  25.352  0.00  0.00    -0.503 OA
ATOM     13  H   UNL     1       9.593   0.035  25.798  0.00  0.00    +0.292 HD
ENDBRANCH   2  12
BRANCH   3  14
ATOM     14  O   UNL     1       9.955  -1.941  24.379  0.00  0.00    -0.503 OA
ATOM     15  H   UNL     1       9.215  -1.879  25.007  0.00  0.00    +0.292 HD
ENDBRANCH   3  14
TORSDOF 3
ENDMDL
MODEL 6
REMARK VINA RESULT:      -4.7      1.745      2.150
REMARK  Name = 
REMARK  3 active torsions:
REMARK  status: ('A' for Active; 'I' for Inactive)
REMARK    1  A    between atoms: C_2  and  C_4
REMARK    2  A    between atoms: C_8  and  O_9
REMARK    3  A    between atoms: C_10  and  O_11
REMARK                            x       y       z     vdW  Elec       q    Type
REMARK                         _______ _______ _______ _____ _____    ______ ____
ROOT
ATOM      1  C   UNL     1       9.515   0.472  23.090  0.00  0.00    +0.081 A 
ATOM      2  C   UNL     1       9.698   1.801  22.706  0.00  0.00    +0.171 A 
ATOM      3  C   UNL     1       9.291   2.839  23.549  0.00  0.00    +0.159 A 
ATOM      4  C   UNL     1       8.724   2.573  24.791  0.00  0.00    +0.049 A 
ATOM      5  C   UNL     1       8.543   1.248  25.185  0.00  0.00    +0.005 A 
ATOM      6  C   UNL     1       8.925   0.204  24.335  0.00  0.00    +0.017 A 
ENDROOT
BRANCH   1  10
ATOM      7  N   UNL     1       9.477  -0.707  20.959  0.00  0.00    -0.325 N 
ATOM      8  H   UNL     1       8.767  -0.047  20.655  0.00  0.00    +0.145 HD
ATOM      9  H   UNL     1       9.646  -1.537  20.410  0.00  0.00    +0.145 HD
ATOM     10  C   UNL     1       9.909  -0.693  22.253  0.00  0.00    +0.245 C 
ATOM     11  O   UNL     1      10.610  -1.595  22.696  0.00  0.00    -0.270 OA
ENDBRANCH   1  10
BRANCH   2  12
ATOM     12  O   UNL     1      10.256   2.147  21.498  0.00  0.00    -0.503 OA
ATOM     13  H   UNL     1      10.499   3.090  21.603  0.00  0.00    +0.292 HD
ENDBRANCH   2  12
BRANCH   3  14
ATOM     14  O   UNL     1       9.470   4.119  23.098  0.00  0.00    -0.503 OA
ATOM     15  H   UNL     1       9.723   4.674  23.857  0.00  0.00    +0.292 HD
ENDBRANCH   3  14
TORSDOF 3
ENDMDL
MODEL 7
REMARK VINA RESULT:      -4.5      2.118      2.889
REMARK  Name = 
REMARK  3 active torsions:
REMARK  status: ('A' for Active; 'I' for Inactive)
REMARK    1  A    between atoms: C_2  and  C_4
REMARK    2  A    between atoms: C_8  and  O_9
REMARK    3  A    between atoms: C_10  and  O_11
REMARK                            x       y       z     vdW  Elec       q    Type
REMARK                         _______ _______ _______ _____ _____    ______ ____
ROOT
ATOM      1  C   UNL     1       9.339  -0.610  24.938  0.00  0.00    +0.081 A 
ATOM      2  C   UNL     1       9.650  -1.386  23.820  0.00  0.00    +0.171 A 
ATOM      3  C   UNL     1      10.037  -0.774  22.625  0.00  0.00    +0.159 A 
ATOM      4  C   UNL     1      10.147   0.610  22.531  0.00  0.00    +0.049 A 
ATOM      5  C   UNL     1       9.843   1.392  23.644  0.00  0.00    +0.005 A 
ATOM      6  C   UNL     1       9.430   0.788  24.836  0.00  0.00    +0.017 A 
ENDROOT
BRANCH   1  10
ATOM      7  N   UNL     1       8.905  -0.333  27.319  0.00  0.00    -0.325 N 
ATOM      8  H   UNL     1       9.356   0.575  27.252  0.00  0.00    +0.145 HD
ATOM      9  H   UNL     1       8.718  -0.725  28.230  0.00  0.00    +0.145 HD
ATOM     10  C   UNL     1       8.909  -1.175  26.245  0.00  0.00    +0.245 C 
ATOM     11  O   UNL     1       8.552  -2.342  26.354  0.00  0.00    -0.270 OA
ENDBRANCH   1  10
BRANCH   2  12
ATOM     12  O   UNL     1       9.573  -2.758  23.835  0.00  0.00    -0.503 OA
ATOM     13  H   UNL     1       8.612  -2.948  23.845  0.00  0.00    +0.292 HD
ENDBRANCH   2  12
BRANCH   3  14
ATOM     14  O   UNL     1      10.298  -1.592  21.558  0.00  0.00    -0.503 OA
ATOM     15  H   UNL     1      10.640  -1.041  20.833  0.00  0.00    +0.292 HD
ENDBRANCH   3  14
TORSDOF 3
ENDMDL
MODEL 8
REMARK VINA RESULT:      -4.4      2.423      2.799
REMARK  Name = 
REMARK  3 active torsions:
REMARK  status: ('A' for Active; 'I' for Inactive)
REMARK    1  A    between atoms: C_2  and  C_4
REMARK    2  A    between atoms: C_8  and  O_9
REMARK    3  A    between atoms: C_10  and  O_11
REMARK                            x       y       z     vdW  Elec       q    Type
REMARK                         _______ _______ _______ _____ _____    ______ ____
ROOT
ATOM      1  C   UNL     1       8.620  -0.690  22.532  0.00  0.00    +0.081 A 
ATOM      2  C   UNL     1       7.376  -0.077  22.688  0.00  0.00    +0.171 A 
ATOM      3  C   UNL     1       7.209   1.270  22.357  0.00  0.00    +0.159 A 
ATOM      4  C   UNL     1       8.263   2.018  21.843  0.00  0.00    +0.049 A 
ATOM      5  C   UNL     1       9.508   1.413  21.679  0.00  0.00    +0.005 A 
ATOM      6  C   UNL     1       9.689   0.071  22.032  0.00  0.00    +0.017 A 
ENDROOT
BRANCH   1  10
ATOM      7  N   UNL     1      10.020  -2.383  23.584  0.00  0.00    -0.325 N 
ATOM      8  H   UNL     1      10.725  -1.663  23.707  0.00  0.00    +0.145 HD
ATOM      9  H   UNL     1      10.271  -3.350  23.729  0.00  0.00    +0.145 HD
ATOM     10  C   UNL     1       8.890  -2.113  22.868  0.00  0.00    +0.245 C 
ATOM     11  O   UNL     1       8.123  -3.009  22.536  0.00  0.00    -0.270 OA
ENDBRANCH   1  10
BRANCH   2  12
ATOM     12  O   UNL     1       6.284  -0.749  23.183  0.00  0.00    -0.503 OA
ATOM     13  H   UNL     1       6.087  -0.303  24.033  0.00  0.00    +0.292 HD
ENDBRANCH   2  12
BRANCH   3  14
ATOM     14  O   UNL     1       5.971   1.818  22.564  0.00  0.00    -0.503 OA
ATOM     15  H   UNL     1       5.548   1.337  23.297  0.00  0.00    +0.292 HD
ENDBRANCH   3  14
TORSDOF 3
ENDMDL
MODEL 9
REMARK VINA RESULT:      -4.4      3.215      4.627
REMARK  Name = 
REMARK  3 active torsions:
REMARK  status: ('A' for Active; 'I' for Inactive)
REMARK    1  A    between atoms: C_2  and  C_4
REMARK    2  A    between atoms: C_8  and  O_9
REMARK    3  A    between atoms: C_10  and  O_11
REMARK                            x       y       z     vdW  Elec       q    Type
REMARK                         _______ _______ _______ _____ _____    ______ ____
ROOT
ATOM      1  C   UNL     1       8.668   2.087  22.659  0.00  0.00    +0.081 A 
ATOM      2  C   UNL     1       9.231   1.843  23.912  0.00  0.00    +0.171 A 
ATOM      3  C   UNL     1      10.046   0.725  24.110  0.00  0.00    +0.159 A 
ATOM      4  C   UNL     1      10.334  -0.147  23.065  0.00  0.00    +0.049 A 
ATOM      5  C   UNL     1       9.780   0.093  21.808  0.00  0.00    +0.005 A 
ATOM      6  C   UNL     1       8.943   1.196  21.609  0.00  0.00    +0.017 A 
ENDROOT
BRANCH   1  10
ATOM      7  N   UNL     1       8.263   4.489  22.648  0.00  0.00    -0.325 N 
ATOM      8  H   UNL     1       9.102   4.590  23.212  0.00  0.00    +0.145 HD
ATOM      9  H   UNL     1       7.637   5.275  22.551  0.00  0.00    +0.145 HD
ATOM     10  C   UNL     1       7.783   3.245  22.361  0.00  0.00    +0.245 C 
ATOM     11  O   UNL     1       6.675   3.095  21.858  0.00  0.00    -0.270 OA
ENDBRANCH   1  10
BRANCH   2  12
ATOM     12  O   UNL     1       9.001   2.659  24.993  0.00  0.00    -0.503 OA
ATOM     13  H   UNL     1       9.746   2.475  25.601  0.00  0.00    +0.292 HD
ENDBRANCH   2  12
BRANCH   3  14
ATOM     14  O   UNL     1      10.541   0.526  25.371  0.00  0.00    -0.503 OA
ATOM     15  H   UNL     1       9.790   0.358  25.967  0.00  0.00    +0.292 HD
ENDBRANCH   3  14
TORSDOF 3
ENDMDL
