MODEL 1
REMARK VINA RESULT:      -6.0      0.000      0.000
REMARK  Name = 
REMARK  10 active torsions:
REMARK  status: ('A' for Active; 'I' for Inactive)
REMARK    1  A    between atoms: C_1  and  O_2
REMARK    2  A    between atoms: O_2  and  C_3
REMARK    3  A    between atoms: C_5  and  C_6
REMARK    4  A    between atoms: C_6  and  O_7
REMARK    5  A    between atoms: C_6  and  C_8
REMARK    6  A    between atoms: C_8  and  N_9
REMARK    7  A    between atoms: C_10  and  C_12
REMARK    8  A    between atoms: C_12  and  N_13
REMARK    9  A    between atoms: C_14  and  O_15
REMARK   10  A    between atoms: O_15  and  C_16
REMARK                            x       y       z     vdW  Elec       q    Type
REMARK                         _______ _______ _______ _____ _____    ______ ____
ROOT
ATOM      1  C   UNL     1       9.010  -5.320  25.252  0.00  0.00    +0.165 C 
ENDROOT
BRANCH   1   6
ATOM      2  C   UNL     1       9.500  -1.966  23.425  0.00  0.00    +0.121 A 
ATOM      3  C   UNL     1       8.485  -2.009  22.478  0.00  0.00    +0.049 A 
ATOM      4  C   UNL     1       7.640  -3.120  22.403  0.00  0.00    +0.049 A 
ATOM      5  C   UNL     1       7.804  -4.200  23.284  0.00  0.00    +0.126 A 
ATOM      6  C   UNL     1       8.807  -4.162  24.268  0.00  0.00    +0.027 A 
ATOM      7  C   UNL     1       9.630  -3.019  24.325  0.00  0.00    +0.055 A 
BRANCH   2   9
ATOM      8  C   UNL     1      10.254  -0.086  24.633  0.00  0.00    +0.277 C 
ATOM      9  O   UNL     1      10.290  -0.847  23.424  0.00  0.00    -0.495 OA
ENDBRANCH   2   9
BRANCH   5  10
ATOM     10  O   UNL     1       7.032  -5.337  23.250  0.00  0.00    -0.495 OA
ATOM     11  C   UNL     1       6.998  -6.077  22.035  0.00  0.00    +0.277 C 
ENDBRANCH   5  10
ENDBRANCH   1   6
BRANCH   1  12
ATOM     12  O   UNL     1      10.410  -5.586  25.433  0.00  0.00    -0.386 OA
ATOM     13  H   UNL     1      10.779  -4.858  25.962  0.00  0.00    +0.210 HD
ENDBRANCH   1  12
BRANCH   1  14
ATOM     14  C   UNL     1       8.433  -5.059  26.659  0.00  0.00    +0.140 C 
BRANCH  14  15
ATOM     15  N   UNL     1       7.392  -5.973  27.072  0.00  0.00    -0.311 N 
ATOM     16  H   UNL     1       7.579  -6.638  27.821  0.00  0.00    +0.149 HD
ATOM     17  C   UNL     1       6.070  -5.647  26.851  0.00  0.00    +0.227 C 
ATOM     18  O   UNL     1       5.718  -4.642  26.235  0.00  0.00    -0.274 OA
BRANCH  17  19
ATOM     19  C   UNL     1       5.065  -6.623  27.461  0.00  0.00    +0.174 C 
BRANCH  19  20
ATOM     20  N   UNL     1       5.711  -7.497  28.457  0.00  0.00    -0.322 NA
ATOM     21  H   UNL     1       5.023  -7.732  29.172  0.00  0.00    +0.119 HD
ATOM     22  H   UNL     1       5.944  -8.379  27.995  0.00  0.00    +0.119 HD
ENDBRANCH  19  20
ENDBRANCH  17  19
ENDBRANCH  14  15
ENDBRANCH   1  14
TORSDOF 8
ENDMDL
MODEL 2
REMARK VINA RESULT:      -5.7      1.504      3.474
REMARK  Name = 
REMARK  10 active torsions:
REMARK  status: ('A' for Active; 'I' for Inactive)
REMARK    1  A    between atoms: C_1  and  O_2
REMARK    2  A    between atoms: O_2  and  C_3
REMARK    3  A    between atoms: C_5  and  C_6
REMARK    4  A    between atoms: C_6  and  O_7
REMARK    5  A    between atoms: C_6  and  C_8
REMARK    6  A    between atoms: C_8  and  N_9
REMARK    7  A    between atoms: C_10  and  C_12
REMARK    8  A    between atoms: C_12  and  N_13
REMARK    9  A    between atoms: C_14  and  O_15
REMARK   10  A    between atoms: O_15  and  C_16
REMARK                            x       y       z     vdW  Elec       q    Type
REMARK                         _______ _______ _______ _____ _____    ______ ____
ROOT
ATOM      1  C   UNL     1       8.854  -5.354  25.081  0.00  0.00    +0.165 C 
ENDROOT
BRANCH   1   6
ATOM      2  C   UNL     1       5.947  -4.694  22.645  0.00  0.00    +0.121 A 
ATOM      3  C   UNL     1       6.268  -3.434  22.156  0.00  0.00    +0.049 A 
ATOM      4  C   UNL     1       7.413  -2.774  22.612  0.00  0.00    +0.049 A 
ATOM      5  C   UNL     1       8.251  -3.376  23.563  0.00  0.00    +0.126 A 
ATOM      6  C   UNL     1       7.958  -4.662  24.048  0.00  0.00    +0.027 A 
ATOM      7  C   UNL     1       6.805  -5.305  23.554  0.00  0.00    +0.055 A 
BRANCH   2   9
ATOM      8  C   UNL     1       3.797  -5.529  23.135  0.00  0.00    +0.277 C 
ATOM      9  O   UNL     1       4.803  -5.266  22.155  0.00  0.00    -0.495 OA
ENDBRANCH   2   9
BRANCH   5  10
ATOM     10  O   UNL     1       9.375  -2.776  24.079  0.00  0.00    -0.495 OA
ATOM     11  C   UNL     1      10.135  -1.939  23.215  0.00  0.00    +0.277 C 
ENDBRANCH   5  10
ENDBRANCH   1   6
BRANCH   1  12
ATOM     12  O   UNL     1      10.240  -5.137  24.770  0.00  0.00    -0.386 OA
ATOM     13  H   UNL     1      10.329  -4.219  24.459  0.00  0.00    +0.210 HD
ENDBRANCH   1  12
BRANCH   1  14
ATOM     14  C   UNL     1       8.652  -4.854  26.527  0.00  0.00    +0.140 C 
BRANCH  14  15
ATOM     15  N   UNL     1       7.939  -5.764  27.394  0.00  0.00    -0.311 N 
ATOM     16  H   UNL     1       8.463  -6.426  27.964  0.00  0.00    +0.149 HD
ATOM     17  C   UNL     1       6.674  -5.436  27.836  0.00  0.00    +0.227 C 
ATOM     18  O   UNL     1       6.068  -4.433  27.461  0.00  0.00    -0.274 OA
BRANCH  17  19
ATOM     19  C   UNL     1       6.086  -6.408  28.859  0.00  0.00    +0.174 C 
BRANCH  19  20
ATOM     20  N   UNL     1       5.282  -7.452  28.197  0.00  0.00    -0.322 NA
ATOM     21  H   UNL     1       5.910  -8.045  27.656  0.00  0.00    +0.119 HD
ATOM     22  H   UNL     1       4.891  -8.054  28.925  0.00  0.00    +0.119 HD
ENDBRANCH  19  20
ENDBRANCH  17  19
ENDBRANCH  14  15
ENDBRANCH   1  14
TORSDOF 8
ENDMDL
MODEL 3
REMARK VINA RESULT:      -5.5      2.500      5.660
REMARK  Name = 
REMARK  10 active torsions:
REMARK  status: ('A' for Active; 'I' for Inactive)
REMARK    1  A    between atoms: C_1  and  O_2
REMARK    2  A    between atoms: O_2  and  C_3
REMARK    3  A    between atoms: C_5  and  C_6
REMARK    4  A    between atoms: C_6  and  O_7
REMARK    5  A    between atoms: C_6  and  C_8
REMARK    6  A    between atoms: C_8  and  N_9
REMARK    7  A    between atoms: C_10  and  C_12
REMARK    8  A    between atoms: C_12  and  N_13
REMARK    9  A    between atoms: C_14  and  O_15
REMARK   10  A    between atoms: O_15  and  C_16
REMARK                            x       y       z     vdW  Elec       q    Type
REMARK                         _______ _______ _______ _____ _____    ______ ____
ROOT
ATOM      1  C   UNL     1       9.013  -4.574  25.613  0.00  0.00    +0.165 C 
ENDROOT
BRANCH   1   6
ATOM      2  C   UNL     1       5.839  -5.589  23.685  0.00  0.00    +0.121 A 
ATOM      3  C   UNL     1       5.033  -6.080  24.705  0.00  0.00    +0.049 A 
ATOM      4  C   UNL     1       5.503  -6.105  26.021  0.00  0.00    +0.049 A 
ATOM      5  C   UNL     1       6.789  -5.632  26.328  0.00  0.00    +0.126 A 
ATOM      6  C   UNL     1       7.607  -5.106  25.314  0.00  0.00    +0.027 A 
ATOM      7  C   UNL     1       7.095  -5.081  24.001  0.00  0.00    +0.055 A 
BRANCH   2   9
ATOM      8  C   UNL     1       6.269  -5.655  21.368  0.00  0.00    +0.277 C 
ATOM      9  O   UNL     1       5.307  -5.611  22.423  0.00  0.00    -0.495 OA
ENDBRANCH   2   9
BRANCH   5  10
ATOM     10  O   UNL     1       7.329  -5.654  27.592  0.00  0.00    -0.495 OA
ATOM     11  C   UNL     1       6.489  -6.069  28.663  0.00  0.00    +0.277 C 
ENDBRANCH   5  10
ENDBRANCH   1   6
BRANCH   1  12
ATOM     12  O   UNL     1       9.922  -5.660  25.849  0.00  0.00    -0.386 OA
ATOM     13  H   UNL     1       9.447  -6.332  26.368  0.00  0.00    +0.210 HD
ENDBRANCH   1  12
BRANCH   1  14
ATOM     14  C   UNL     1       9.625  -3.736  24.471  0.00  0.00    +0.140 C 
BRANCH  14  15
ATOM     15  N   UNL     1       9.409  -2.311  24.575  0.00  0.00    -0.311 N 
ATOM     16  H   UNL     1       9.199  -1.901  25.484  0.00  0.00    +0.149 HD
ATOM     17  C   UNL     1       9.956  -1.468  23.629  0.00  0.00    +0.227 C 
ATOM     18  O   UNL     1      10.558  -1.870  22.635  0.00  0.00    -0.274 OA
BRANCH  17  19
ATOM     19  C   UNL     1       9.780   0.021  23.928  0.00  0.00    +0.174 C 
BRANCH  19  20
ATOM     20  N   UNL     1      10.461   0.394  25.182  0.00  0.00    -0.322 NA
ATOM     21  H   UNL     1      11.212   1.046  24.956  0.00  0.00    +0.119 HD
ATOM     22  H   UNL     1       9.798   0.922  25.753  0.00  0.00    +0.119 HD
ENDBRANCH  19  20
ENDBRANCH  17  19
ENDBRANCH  14  15
ENDBRANCH   1  14
TORSDOF 8
ENDMDL
MODEL 4
REMARK VINA RESULT:      -5.3      5.055      7.827
REMARK  Name = 
REMARK  10 active torsions:
REMARK  status: ('A' for Active; 'I' for Inactive)
REMARK    1  A    between atoms: C_1  and  O_2
REMARK    2  A    between atoms: O_2  and  C_3
REMARK    3  A    between atoms: C_5  and  C_6
REMARK    4  A    between atoms: C_6  and  O_7
REMARK    5  A    between atoms: C_6  and  C_8
REMARK    6  A    between atoms: C_8  and  N_9
REMARK    7  A    between atoms: C_10  and  C_12
REMARK    8  A    between atoms: C_12  and  N_13
REMARK    9  A    between atoms: C_14  and  O_15
REMARK   10  A    between atoms: O_15  and  C_16
REMARK                            x       y       z     vdW  Elec       q    Type
REMARK                         _______ _______ _______ _____ _____    ______ ____
ROOT
ATOM      1  C   UNL     1      10.316   1.563  22.580  0.00  0.00    +0.165 C 
ENDROOT
BRANCH   1   6
ATOM      2  C   UNL     1       9.515  -2.067  23.582  0.00  0.00    +0.121 A 
ATOM      3  C   UNL     1       8.130  -2.091  23.477  0.00  0.00    +0.049 A 
ATOM      4  C   UNL     1       7.434  -0.939  23.098  0.00  0.00    +0.049 A 
ATOM      5  C   UNL     1       8.125   0.250  22.816  0.00  0.00    +0.126 A 
ATOM      6  C   UNL     1       9.528   0.285  22.889  0.00  0.00    +0.027 A 
ATOM      7  C   UNL     1      10.198  -0.899  23.258  0.00  0.00    +0.055 A 
BRANCH   2   9
ATOM      8  C   UNL     1       9.353  -4.033  24.874  0.00  0.00    +0.277 C 
ATOM      9  O   UNL     1      10.118  -3.234  23.970  0.00  0.00    -0.495 OA
ENDBRANCH   2   9
BRANCH   5  10
ATOM     10  O   UNL     1       7.508   1.427  22.468  0.00  0.00    -0.495 OA
ATOM     11  C   UNL     1       6.286   1.752  23.120  0.00  0.00    +0.277 C 
ENDBRANCH   5  10
ENDBRANCH   1   6
BRANCH   1  12
ATOM     12  O   UNL     1       9.850   2.158  21.358  0.00  0.00    -0.386 OA
ATOM     13  H   UNL     1      10.136   3.088  21.360  0.00  0.00    +0.210 HD
ENDBRANCH   1  12
BRANCH   1  14
ATOM     14  C   UNL     1      10.199   2.653  23.665  0.00  0.00    +0.140 C 
BRANCH  14  15
ATOM     15  N   UNL     1       9.443   3.823  23.278  0.00  0.00    -0.311 N 
ATOM     16  H   UNL     1       9.265   3.999  22.290  0.00  0.00    +0.149 HD
ATOM     17  C   UNL     1       8.566   4.395  24.176  0.00  0.00    +0.227 C 
ATOM     18  O   UNL     1       8.447   4.014  25.339  0.00  0.00    -0.274 OA
BRANCH  17  19
ATOM     19  C   UNL     1       7.722   5.533  23.601  0.00  0.00    +0.174 C 
BRANCH  19  20
ATOM     20  N   UNL     1       8.380   6.142  22.430  0.00  0.00    -0.322 NA
ATOM     21  H   UNL     1       9.389   6.034  22.537  0.00  0.00    +0.119 HD
ATOM     22  H   UNL     1       8.129   5.590  21.607  0.00  0.00    +0.119 HD
ENDBRANCH  19  20
ENDBRANCH  17  19
ENDBRANCH  14  15
ENDBRANCH   1  14
TORSDOF 8
ENDMDL
MODEL 5
REMARK VINA RESULT:      -5.3      4.528      7.575
REMARK  Name = 
REMARK  10 active torsions:
REMARK  status: ('A' for Active; 'I' for Inactive)
REMARK    1  A    between atoms: C_1  and  O_2
REMARK    2  A    between atoms: O_2  and  C_3
REMARK    3  A    between atoms: C_5  and  C_6
REMARK    4  A    between atoms: C_6  and  O_7
REMARK    5  A    between atoms: C_6  and  C_8
REMARK    6  A    between atoms: C_8  and  N_9
REMARK    7  A    between atoms: C_10  and  C_12
REMARK    8  A    between atoms: C_12  and  N_13
REMARK    9  A    between atoms: C_14  and  O_15
REMARK   10  A    between atoms: O_15  and  C_16
REMARK                            x       y       z     vdW  Elec       q    Type
REMARK                         _______ _______ _______ _____ _____    ______ ____
ROOT
ATOM      1  C   UNL     1       9.792   1.549  23.068  0.00  0.00    +0.165 C 
ENDROOT
BRANCH   1   6
ATOM      2  C   UNL     1      11.743   4.840  23.505  0.00  0.00    +0.121 A 
ATOM      3  C   UNL     1      10.746   5.704  23.938  0.00  0.00    +0.049 A 
ATOM      4  C   UNL     1       9.433   5.248  24.081  0.00  0.00    +0.049 A 
ATOM      5  C   UNL     1       9.108   3.912  23.795  0.00  0.00    +0.126 A 
ATOM      6  C   UNL     1      10.108   3.016  23.382  0.00  0.00    +0.027 A 
ATOM      7  C   UNL     1      11.425   3.506  23.265  0.00  0.00    +0.055 A 
BRANCH   2   9
ATOM      8  C   UNL     1      13.383   5.695  22.042  0.00  0.00    +0.277 C 
ATOM      9  O   UNL     1      13.000   5.370  23.379  0.00  0.00    -0.495 OA
ENDBRANCH   2   9
BRANCH   5  10
ATOM     10  O   UNL     1       7.835   3.400  23.883  0.00  0.00    -0.495 OA
ATOM     11  C   UNL     1       6.996   3.889  24.923  0.00  0.00    +0.277 C 
ENDBRANCH   5  10
ENDBRANCH   1   6
BRANCH   1  12
ATOM     12  O   UNL     1       9.915   1.299  21.659  0.00  0.00    -0.386 OA
ATOM     13  H   UNL     1      10.818   0.978  21.498  0.00  0.00    +0.210 HD
ENDBRANCH   1  12
BRANCH   1  14
ATOM     14  C   UNL     1      10.723   0.539  23.770  0.00  0.00    +0.140 C 
BRANCH  14  15
ATOM     15  N   UNL     1      10.081  -0.675  24.220  0.00  0.00    -0.311 N 
ATOM     16  H   UNL     1       9.406  -0.631  24.982  0.00  0.00    +0.149 HD
ATOM     17  C   UNL     1       9.971  -1.747  23.359  0.00  0.00    +0.227 C 
ATOM     18  O   UNL     1      10.472  -1.765  22.237  0.00  0.00    -0.274 OA
BRANCH  17  19
ATOM     19  C   UNL     1       9.147  -2.915  23.902  0.00  0.00    +0.174 C 
BRANCH  19  20
ATOM     20  N   UNL     1       8.096  -3.311  22.946  0.00  0.00    -0.322 NA
ATOM     21  H   UNL     1       7.304  -3.677  23.474  0.00  0.00    +0.119 HD
ATOM     22  H   UNL     1       7.754  -2.463  22.488  0.00  0.00    +0.119 HD
ENDBRANCH  19  20
ENDBRANCH  17  19
ENDBRANCH  14  15
ENDBRANCH   1  14
TORSDOF 8
ENDMDL
MODEL 6
REMARK VINA RESULT:      -5.2      5.963      8.877
REMARK  Name = 
REMARK  10 active torsions:
REMARK  status: ('A' for Active; 'I' for Inactive)
REMARK    1  A    between atoms: C_1  and  O_2
REMARK    2  A    between atoms: O_2  and  C_3
REMARK    3  A    between atoms: C_5  and  C_6
REMARK    4  A    between atoms: C_6  and  O_7
REMARK    5  A    between atoms: C_6  and  C_8
REMARK    6  A    between atoms: C_8  and  N_9
REMARK    7  A    between atoms: C_10  and  C_12
REMARK    8  A    between atoms: C_12  and  N_13
REMARK    9  A    between atoms: C_14  and  O_15
REMARK   10  A    between atoms: O_15  and  C_16
REMARK                            x       y       z     vdW  Elec       q    Type
REMARK                         _______ _______ _______ _____ _____    ______ ____
ROOT
ATOM      1  C   UNL     1       9.931   2.002  22.986  0.00  0.00    +0.165 C 
ENDROOT
BRANCH   1   6
ATOM      2  C   UNL     1       6.520   1.838  24.764  0.00  0.00    +0.121 A 
ATOM      3  C   UNL     1       6.085   0.563  24.424  0.00  0.00    +0.049 A 
ATOM      4  C   UNL     1       6.872  -0.254  23.608  0.00  0.00    +0.049 A 
ATOM      5  C   UNL     1       8.111   0.200  23.127  0.00  0.00    +0.126 A 
ATOM      6  C   UNL     1       8.581   1.475  23.484  0.00  0.00    +0.027 A 
ATOM      7  C   UNL     1       7.768   2.266  24.322  0.00  0.00    +0.055 A 
BRANCH   2   9
ATOM      8  C   UNL     1       6.339   3.531  26.395  0.00  0.00    +0.277 C 
ATOM      9  O   UNL     1       5.684   2.577  25.557  0.00  0.00    -0.495 OA
ENDBRANCH   2   9
BRANCH   5  10
ATOM     10  O   UNL     1       8.924  -0.535  22.298  0.00  0.00    -0.495 OA
ATOM     11  C   UNL     1       8.657  -1.926  22.171  0.00  0.00    +0.277 C 
ENDBRANCH   5  10
ENDBRANCH   1   6
BRANCH   1  12
ATOM     12  O   UNL     1       9.909   2.173  21.560  0.00  0.00    -0.386 OA
ATOM     13  H   UNL     1       9.787   3.122  21.382  0.00  0.00    +0.210 HD
ENDBRANCH   1  12
BRANCH   1  14
ATOM     14  C   UNL     1      10.334   3.367  23.580  0.00  0.00    +0.140 C 
BRANCH  14  15
ATOM     15  N   UNL     1      11.586   3.901  23.093  0.00  0.00    -0.311 N 
ATOM     16  H   UNL     1      12.116   3.378  22.397  0.00  0.00    +0.149 HD
ATOM     17  C   UNL     1      11.818   5.259  23.155  0.00  0.00    +0.227 C 
ATOM     18  O   UNL     1      11.043   6.052  23.686  0.00  0.00    -0.274 OA
BRANCH  17  19
ATOM     19  C   UNL     1      13.112   5.713  22.479  0.00  0.00    +0.174 C 
BRANCH  19  20
ATOM     20  N   UNL     1      14.286   5.072  23.098  0.00  0.00    -0.322 NA
ATOM     21  H   UNL     1      15.056   5.741  23.094  0.00  0.00    +0.119 HD
ATOM     22  H   UNL     1      14.069   4.905  24.083  0.00  0.00    +0.119 HD
ENDBRANCH  19  20
ENDBRANCH  17  19
ENDBRANCH  14  15
ENDBRANCH   1  14
TORSDOF 8
ENDMDL
MODEL 7
REMARK VINA RESULT:      -5.2      3.550      6.136
REMARK  Name = 
REMARK  10 active torsions:
REMARK  status: ('A' for Active; 'I' for Inactive)
REMARK    1  A    between atoms: C_1  and  O_2
REMARK    2  A    between atoms: O_2  and  C_3
REMARK    3  A    between atoms: C_5  and  C_6
REMARK    4  A    between atoms: C_6  and  O_7
REMARK    5  A    between atoms: C_6  and  C_8
REMARK    6  A    between atoms: C_8  and  N_9
REMARK    7  A    between atoms: C_10  and  C_12
REMARK    8  A    between atoms: C_12  and  N_13
REMARK    9  A    between atoms: C_14  and  O_15
REMARK   10  A    between atoms: O_15  and  C_16
REMARK                            x       y       z     vdW  Elec       q    Type
REMARK                         _______ _______ _______ _____ _____    ______ ____
ROOT
ATOM      1  C   UNL     1       9.153  -2.866  24.361  0.00  0.00    +0.165 C 
ENDROOT
BRANCH   1   6
ATOM      2  C   UNL     1       6.220  -3.868  22.077  0.00  0.00    +0.121 A 
ATOM      3  C   UNL     1       5.124  -3.492  22.843  0.00  0.00    +0.049 A 
ATOM      4  C   UNL     1       5.311  -2.925  24.107  0.00  0.00    +0.049 A 
ATOM      5  C   UNL     1       6.605  -2.726  24.615  0.00  0.00    +0.126 A 
ATOM      6  C   UNL     1       7.726  -3.075  23.843  0.00  0.00    +0.027 A 
ATOM      7  C   UNL     1       7.501  -3.628  22.566  0.00  0.00    +0.055 A 
BRANCH   2   9
ATOM      8  C   UNL     1       6.183  -5.833  20.774  0.00  0.00    +0.277 C 
ATOM      9  O   UNL     1       5.950  -4.426  20.856  0.00  0.00    -0.495 OA
ENDBRANCH   2   9
BRANCH   5  10
ATOM     10  O   UNL     1       6.864  -2.204  25.859  0.00  0.00    -0.495 OA
ATOM     11  C   UNL     1       6.511  -2.988  26.993  0.00  0.00    +0.277 C 
ENDBRANCH   5  10
ENDBRANCH   1   6
BRANCH   1  12
ATOM     12  O   UNL     1       9.840  -4.123  24.466  0.00  0.00    -0.386 OA
ATOM     13  H   UNL     1       9.539  -4.552  25.286  0.00  0.00    +0.210 HD
ENDBRANCH   1  12
BRANCH   1  14
ATOM     14  C   UNL     1      10.026  -1.970  23.458  0.00  0.00    +0.140 C 
BRANCH  14  15
ATOM     15  N   UNL     1       9.619  -0.584  23.395  0.00  0.00    -0.311 N 
ATOM     16  H   UNL     1       9.894   0.053  24.141  0.00  0.00    +0.149 HD
ATOM     17  C   UNL     1       9.329  -0.014  22.173  0.00  0.00    +0.227 C 
ATOM     18  O   UNL     1       9.313  -0.649  21.120  0.00  0.00    -0.274 OA
BRANCH  17  19
ATOM     19  C   UNL     1       9.053   1.489  22.222  0.00  0.00    +0.174 C 
BRANCH  19  20
ATOM     20  N   UNL     1      10.169   2.252  21.635  0.00  0.00    -0.322 NA
ATOM     21  H   UNL     1       9.900   3.235  21.595  0.00  0.00    +0.119 HD
ATOM     22  H   UNL     1      10.956   2.207  22.287  0.00  0.00    +0.119 HD
ENDBRANCH  19  20
ENDBRANCH  17  19
ENDBRANCH  14  15
ENDBRANCH   1  14
TORSDOF 8
ENDMDL
MODEL 8
REMARK VINA RESULT:      -5.2      3.436      6.397
REMARK  Name = 
REMARK  10 active torsions:
REMARK  status: ('A' for Active; 'I' for Inactive)
REMARK    1  A    between atoms: C_1  and  O_2
REMARK    2  A    between atoms: O_2  and  C_3
REMARK    3  A    between atoms: C_5  and  C_6
REMARK    4  A    between atoms: C_6  and  O_7
REMARK    5  A    between atoms: C_6  and  C_8
REMARK    6  A    between atoms: C_8  and  N_9
REMARK    7  A    between atoms: C_10  and  C_12
REMARK    8  A    between atoms: C_12  and  N_13
REMARK    9  A    between atoms: C_14  and  O_15
REMARK   10  A    between atoms: O_15  and  C_16
REMARK                            x       y       z     vdW  Elec       q    Type
REMARK                         _______ _______ _______ _____ _____    ______ ____
ROOT
ATOM      1  C   UNL     1       9.668  -2.267  23.652  0.00  0.00    +0.165 C 
ENDROOT
BRANCH   1   6
ATOM      2  C   UNL     1       6.622  -4.218  22.335  0.00  0.00    +0.121 A 
ATOM      3  C   UNL     1       6.154  -4.828  23.492  0.00  0.00    +0.049 A 
ATOM      4  C   UNL     1       6.819  -4.634  24.706  0.00  0.00    +0.049 A 
ATOM      5  C   UNL     1       7.960  -3.819  24.772  0.00  0.00    +0.126 A 
ATOM      6  C   UNL     1       8.431  -3.170  23.617  0.00  0.00    +0.027 A 
ATOM      7  C   UNL     1       7.726  -3.375  22.413  0.00  0.00    +0.055 A 
BRANCH   2   9
ATOM      8  C   UNL     1       6.089  -5.785  20.655  0.00  0.00    +0.277 C 
ATOM      9  O   UNL     1       5.920  -4.469  21.186  0.00  0.00    -0.495 OA
ENDBRANCH   2   9
BRANCH   5  10
ATOM     10  O   UNL     1       8.681  -3.606  25.922  0.00  0.00    -0.495 OA
ATOM     11  C   UNL     1       9.180  -4.747  26.611  0.00  0.00    +0.277 C 
ENDBRANCH   5  10
ENDBRANCH   1   6
BRANCH   1  12
ATOM     12  O   UNL     1      10.054  -1.890  22.321  0.00  0.00    -0.386 OA
ATOM     13  H   UNL     1       9.318  -2.120  21.728  0.00  0.00    +0.210 HD
ENDBRANCH   1  12
BRANCH   1  14
ATOM     14  C   UNL     1       9.467  -0.952  24.434  0.00  0.00    +0.140 C 
BRANCH  14  15
ATOM     15  N   UNL     1       9.500   0.248  23.630  0.00  0.00    -0.311 N 
ATOM     16  H   UNL     1       8.635   0.605  23.227  0.00  0.00    +0.149 HD
ATOM     17  C   UNL     1      10.521   1.160  23.806  0.00  0.00    +0.227 C 
ATOM     18  O   UNL     1      11.471   0.969  24.563  0.00  0.00    -0.274 OA
BRANCH  17  19
ATOM     19  C   UNL     1      10.365   2.451  23.002  0.00  0.00    +0.174 C 
BRANCH  19  20
ATOM     20  N   UNL     1       9.950   2.166  21.617  0.00  0.00    -0.322 NA
ATOM     21  H   UNL     1      10.789   2.063  21.046  0.00  0.00    +0.119 HD
ATOM     22  H   UNL     1       9.495   1.250  21.608  0.00  0.00    +0.119 HD
ENDBRANCH  19  20
ENDBRANCH  17  19
ENDBRANCH  14  15
ENDBRANCH   1  14
TORSDOF 8
ENDMDL
MODEL 9
REMARK VINA RESULT:      -5.2      3.444      5.976
REMARK  Name = 
REMARK  10 active torsions:
REMARK  status: ('A' for Active; 'I' for Inactive)
REMARK    1  A    between atoms: C_1  and  O_2
REMARK    2  A    between atoms: O_2  and  C_3
REMARK    3  A    between atoms: C_5  and  C_6
REMARK    4  A    between atoms: C_6  and  O_7
REMARK    5  A    between atoms: C_6  and  C_8
REMARK    6  A    between atoms: C_8  and  N_9
REMARK    7  A    between atoms: C_10  and  C_12
REMARK    8  A    between atoms: C_12  and  N_13
REMARK    9  A    between atoms: C_14  and  O_15
REMARK   10  A    between atoms: O_15  and  C_16
REMARK                            x       y       z     vdW  Elec       q    Type
REMARK                         _______ _______ _______ _____ _____    ______ ____
ROOT
ATOM      1  C   UNL     1       9.780  -0.044  25.030  0.00  0.00    +0.165 C 
ENDROOT
BRANCH   1   6
ATOM      2  C   UNL     1      10.717   3.382  23.544  0.00  0.00    +0.121 A 
ATOM      3  C   UNL     1       9.619   4.155  23.901  0.00  0.00    +0.049 A 
ATOM      4  C   UNL     1       8.557   3.584  24.610  0.00  0.00    +0.049 A 
ATOM      5  C   UNL     1       8.590   2.228  24.972  0.00  0.00    +0.126 A 
ATOM      6  C   UNL     1       9.705   1.437  24.644  0.00  0.00    +0.027 A 
ATOM      7  C   UNL     1      10.765   2.050  23.944  0.00  0.00    +0.055 A 
BRANCH   2   9
ATOM      8  C   UNL     1      12.122   5.269  23.387  0.00  0.00    +0.277 C 
ATOM      9  O   UNL     1      11.707   4.015  22.842  0.00  0.00    -0.495 OA
ENDBRANCH   2   9
BRANCH   5  10
ATOM     10  O   UNL     1       7.572   1.591  25.640  0.00  0.00    -0.495 OA
ATOM     11  C   UNL     1       6.951   2.285  26.716  0.00  0.00    +0.277 C 
ENDBRANCH   5  10
ENDBRANCH   1   6
BRANCH   1  12
ATOM     12  O   UNL     1       9.425  -0.223  26.410  0.00  0.00    -0.386 OA
ATOM     13  H   UNL     1       8.454  -0.233  26.463  0.00  0.00    +0.210 HD
ENDBRANCH   1  12
BRANCH   1  14
ATOM     14  C   UNL     1       8.835  -0.955  24.218  0.00  0.00    +0.140 C 
BRANCH  14  15
ATOM     15  N   UNL     1       8.568  -2.244  24.814  0.00  0.00    -0.311 N 
ATOM     16  H   UNL     1       7.626  -2.460  25.139  0.00  0.00    +0.149 HD
ATOM     17  C   UNL     1       9.376  -3.319  24.506  0.00  0.00    +0.227 C 
ATOM     18  O   UNL     1      10.382  -3.226  23.805  0.00  0.00    -0.274 OA
BRANCH  17  19
ATOM     19  C   UNL     1       8.905  -4.654  25.083  0.00  0.00    +0.174 C 
BRANCH  19  20
ATOM     20  N   UNL     1      10.034  -5.589  25.245  0.00  0.00    -0.322 NA
ATOM     21  H   UNL     1      10.703  -5.415  24.495  0.00  0.00    +0.119 HD
ATOM     22  H   UNL     1      10.519  -5.346  26.111  0.00  0.00    +0.119 HD
ENDBRANCH  19  20
ENDBRANCH  17  19
ENDBRANCH  14  15
ENDBRANCH   1  14
TORSDOF 8
ENDMDL
