MODEL 1
REMARK VINA RESULT:      -7.3      0.000      0.000
REMARK  Name = 
REMARK  6 active torsions:
REMARK  status: ('A' for Active; 'I' for Inactive)
REMARK    1  A    between atoms: C_5  and  C_8
REMARK    2  A    between atoms: C_8  and  C_10
REMARK    3  A    between atoms: C_10  and  C_11
REMARK    4  A    between atoms: C_11  and  C_12
REMARK    5  A    between atoms: C_12  and  N_13
REMARK    6  A    between atoms: C_16  and  N_19
REMARK                            x       y       z     vdW  Elec       q    Type
REMARK                         _______ _______ _______ _____ _____    ______ ____
ROOT
ATOM      1  N   UNL     1       5.988   2.357  24.253  0.00  0.00    -0.298 NA
ATOM      2  C   UNL     1       6.413   1.693  23.040  0.00  0.00    +0.113 C 
ATOM      3  C   UNL     1       6.821   0.259  23.190  0.00  0.00    +0.010 C 
ATOM      4  C   UNL     1       6.668  -0.499  24.294  0.00  0.00    +0.027 C 
ATOM      5  C   UNL     1       5.990   0.143  25.485  0.00  0.00    +0.069 C 
ATOM      6  C   UNL     1       5.351   1.524  25.251  0.00  0.00    +0.091 C 
ENDROOT
BRANCH   4   7
ATOM      7  N   UNL     1       7.089  -1.838  24.365  0.00  0.00    -0.265 N 
ATOM      8  C   UNL     1       6.861  -2.922  23.454  0.00  0.00    +0.074 A 
ATOM      9  C   UNL     1       7.576  -4.035  23.905  0.00  0.00    +0.067 A 
ATOM     10  C   UNL     1       7.624  -5.245  23.243  0.00  0.00    +0.028 A 
ATOM     11  C   UNL     1       6.900  -5.347  22.057  0.00  0.00    +0.002 A 
ATOM     12  C   UNL     1       6.148  -4.258  21.592  0.00  0.00    +0.002 A 
ATOM     13  N   UNL     1       8.204  -3.710  25.088  0.00  0.00    -0.306 N 
ATOM     14  H   UNL     1       8.777  -4.310  25.659  0.00  0.00    +0.170 HD
ATOM     15  C   UNL     1       6.119  -3.041  22.293  0.00  0.00    +0.028 A 
ATOM     16  C   UNL     1       7.923  -2.382  25.422  0.00  0.00    +0.332 A 
ATOM     17  O   UNL     1       8.343  -1.866  26.448  0.00  0.00    -0.246 OA
ENDBRANCH   4   7
BRANCH   1  18
ATOM     18  C   UNL     1       6.726   3.528  24.691  0.00  0.00    +0.085 C 
BRANCH  18  19
ATOM     19  C   UNL     1       8.239   3.378  24.863  0.00  0.00    +0.023 C 
BRANCH  19  20
ATOM     20  C   UNL     1       9.051   4.077  23.780  0.00  0.00    +0.081 C 
BRANCH  20  21
ATOM     21  C   UNL     1      10.353   3.360  23.492  0.00  0.00    +0.163 C 
ATOM     22  O   UNL     1      11.435   3.941  23.481  0.00  0.00    -0.292 OA
BRANCH  21  27
ATOM     23  F   UNL     1      10.195  -2.192  22.651  0.00  0.00    -0.205 F 
ATOM     24  C   UNL     1      10.231  -0.867  22.838  0.00  0.00    +0.123 A 
ATOM     25  C   UNL     1       9.932  -0.018  21.778  0.00  0.00    +0.039 A 
ATOM     26  C   UNL     1       9.967   1.365  21.968  0.00  0.00    +0.014 A 
ATOM     27  C   UNL     1      10.305   1.892  23.224  0.00  0.00    +0.018 A 
ATOM     28  C   UNL     1      10.603   1.020  24.282  0.00  0.00    +0.014 A 
ATOM     29  C   UNL     1      10.566  -0.361  24.088  0.00  0.00    +0.039 A 
ENDBRANCH  21  27
ENDBRANCH  20  21
ENDBRANCH  19  20
ENDBRANCH  18  19
ENDBRANCH   1  18
TORSDOF 6
ENDMDL
MODEL 2
REMARK VINA RESULT:      -7.1      2.859      4.469
REMARK  Name = 
REMARK  6 active torsions:
REMARK  status: ('A' for Active; 'I' for Inactive)
REMARK    1  A    between atoms: C_5  and  C_8
REMARK    2  A    between atoms: C_8  and  C_10
REMARK    3  A    between atoms: C_10  and  C_11
REMARK    4  A    between atoms: C_11  and  C_12
REMARK    5  A    between atoms: C_12  and  N_13
REMARK    6  A    between atoms: C_16  and  N_19
REMARK                            x       y       z     vdW  Elec       q    Type
REMARK                         _______ _______ _______ _____ _____    ______ ____
ROOT
ATOM      1  N   UNL     1       9.607  -0.395  22.389  0.00  0.00    -0.298 NA
ATOM      2  C   UNL     1      10.187  -0.366  23.714  0.00  0.00    +0.113 C 
ATOM      3  C   UNL     1       9.733  -1.445  24.649  0.00  0.00    +0.010 C 
ATOM      4  C   UNL     1       8.982  -2.516  24.322  0.00  0.00    +0.027 C 
ATOM      5  C   UNL     1       8.587  -2.664  22.869  0.00  0.00    +0.069 C 
ATOM      6  C   UNL     1       9.255  -1.700  21.871  0.00  0.00    +0.091 C 
ENDROOT
BRANCH   4   7
ATOM      7  N   UNL     1       8.582  -3.483  25.259  0.00  0.00    -0.265 N 
ATOM      8  C   UNL     1       7.434  -3.508  26.119  0.00  0.00    +0.074 A 
ATOM      9  C   UNL     1       7.414  -4.733  26.792  0.00  0.00    +0.067 A 
ATOM     10  C   UNL     1       6.420  -5.119  27.667  0.00  0.00    +0.028 A 
ATOM     11  C   UNL     1       5.384  -4.214  27.889  0.00  0.00    +0.002 A 
ATOM     12  C   UNL     1       5.390  -2.964  27.252  0.00  0.00    +0.002 A 
ATOM     13  N   UNL     1       8.529  -5.458  26.428  0.00  0.00    -0.306 N 
ATOM     14  H   UNL     1       8.798  -6.370  26.759  0.00  0.00    +0.170 HD
ATOM     15  C   UNL     1       6.419  -2.602  26.369  0.00  0.00    +0.028 A 
ATOM     16  C   UNL     1       9.286  -4.729  25.506  0.00  0.00    +0.332 A 
ATOM     17  O   UNL     1      10.341  -5.148  25.055  0.00  0.00    -0.246 OA
ENDBRANCH   4   7
BRANCH   1  18
ATOM     18  C   UNL     1       8.844   0.758  21.946  0.00  0.00    +0.085 C 
BRANCH  18  19
ATOM     19  C   UNL     1       7.576   1.102  22.731  0.00  0.00    +0.023 C 
BRANCH  19  20
ATOM     20  C   UNL     1       7.465   2.576  23.100  0.00  0.00    +0.081 C 
BRANCH  20  21
ATOM     21  C   UNL     1       8.354   2.939  24.270  0.00  0.00    +0.163 C 
ATOM     22  O   UNL     1       8.135   2.541  25.411  0.00  0.00    -0.292 OA
BRANCH  21  27
ATOM     23  F   UNL     1      12.746   6.322  23.364  0.00  0.00    -0.205 F 
ATOM     24  C   UNL     1      11.707   5.506  23.574  0.00  0.00    +0.123 A 
ATOM     25  C   UNL     1      11.828   4.154  23.275  0.00  0.00    +0.039 A 
ATOM     26  C   UNL     1      10.746   3.297  23.493  0.00  0.00    +0.014 A 
ATOM     27  C   UNL     1       9.544   3.804  24.009  0.00  0.00    +0.018 A 
ATOM     28  C   UNL     1       9.440   5.171  24.305  0.00  0.00    +0.014 A 
ATOM     29  C   UNL     1      10.523   6.023  24.087  0.00  0.00    +0.039 A 
ENDBRANCH  21  27
ENDBRANCH  20  21
ENDBRANCH  19  20
ENDBRANCH  18  19
ENDBRANCH   1  18
TORSDOF 6
ENDMDL
MODEL 3
REMARK VINA RESULT:      -7.0      3.300      4.912
REMARK  Name = 
REMARK  6 active torsions:
REMARK  status: ('A' for Active; 'I' for Inactive)
REMARK    1  A    between atoms: C_5  and  C_8
REMARK    2  A    between atoms: C_8  and  C_10
REMARK    3  A    between atoms: C_10  and  C_11
REMARK    4  A    between atoms: C_11  and  C_12
REMARK    5  A    between atoms: C_12  and  N_13
REMARK    6  A    between atoms: C_16  and  N_19
REMARK                            x       y       z     vdW  Elec       q    Type
REMARK                         _______ _______ _______ _____ _____    ______ ____
ROOT
ATOM      1  N   UNL     1       9.158  -2.114  24.387  0.00  0.00    -0.298 NA
ATOM      2  C   UNL     1       7.785  -1.730  24.633  0.00  0.00    +0.113 C 
ATOM      3  C   UNL     1       6.753  -2.775  24.338  0.00  0.00    +0.010 C 
ATOM      4  C   UNL     1       6.993  -4.067  24.037  0.00  0.00    +0.027 C 
ATOM      5  C   UNL     1       8.438  -4.517  24.026  0.00  0.00    +0.069 C 
ATOM      6  C   UNL     1       9.475  -3.515  24.568  0.00  0.00    +0.091 C 
ENDROOT
BRANCH   4   7
ATOM      7  N   UNL     1       5.970  -4.989  23.758  0.00  0.00    -0.265 N 
ATOM      8  C   UNL     1       5.203  -5.808  24.652  0.00  0.00    +0.074 A 
ATOM      9  C   UNL     1       4.228  -6.477  23.908  0.00  0.00    +0.067 A 
ATOM     10  C   UNL     1       3.279  -7.317  24.455  0.00  0.00    +0.028 A 
ATOM     11  C   UNL     1       3.317  -7.503  25.835  0.00  0.00    +0.002 A 
ATOM     12  C   UNL     1       4.302  -6.868  26.607  0.00  0.00    +0.002 A 
ATOM     13  N   UNL     1       4.382  -6.153  22.577  0.00  0.00    -0.306 N 
ATOM     14  H   UNL     1       3.840  -6.493  21.800  0.00  0.00    +0.170 HD
ATOM     15  C   UNL     1       5.255  -6.022  26.017  0.00  0.00    +0.028 A 
ATOM     16  C   UNL     1       5.447  -5.259  22.431  0.00  0.00    +0.332 A 
ATOM     17  O   UNL     1       5.802  -4.845  21.337  0.00  0.00    -0.246 OA
ENDBRANCH   4   7
BRANCH   1  18
ATOM     18  C   UNL     1       9.926  -1.346  23.423  0.00  0.00    +0.085 C 
BRANCH  18  19
ATOM     19  C   UNL     1       9.412  -1.316  21.983  0.00  0.00    +0.023 C 
BRANCH  19  20
ATOM     20  C   UNL     1       9.395   0.077  21.366  0.00  0.00    +0.081 C 
BRANCH  20  21
ATOM     21  C   UNL     1       8.499   1.028  22.131  0.00  0.00    +0.163 C 
ATOM     22  O   UNL     1       7.302   0.812  22.298  0.00  0.00    -0.292 OA
BRANCH  21  27
ATOM     23  F   UNL     1      10.642   5.734  24.325  0.00  0.00    -0.205 F 
ATOM     24  C   UNL     1      10.144   4.608  23.800  0.00  0.00    +0.123 A 
ATOM     25  C   UNL     1      11.009   3.582  23.437  0.00  0.00    +0.039 A 
ATOM     26  C   UNL     1      10.495   2.405  22.888  0.00  0.00    +0.014 A 
ATOM     27  C   UNL     1       9.111   2.264  22.705  0.00  0.00    +0.018 A 
ATOM     28  C   UNL     1       8.253   3.309  23.078  0.00  0.00    +0.014 A 
ATOM     29  C   UNL     1       8.772   4.484  23.626  0.00  0.00    +0.039 A 
ENDBRANCH  21  27
ENDBRANCH  20  21
ENDBRANCH  19  20
ENDBRANCH  18  19
ENDBRANCH   1  18
TORSDOF 6
ENDMDL
MODEL 4
REMARK VINA RESULT:      -7.0      2.663      6.702
REMARK  Name = 
REMARK  6 active torsions:
REMARK  status: ('A' for Active; 'I' for Inactive)
REMARK    1  A    between atoms: C_5  and  C_8
REMARK    2  A    between atoms: C_8  and  C_10
REMARK    3  A    between atoms: C_10  and  C_11
REMARK    4  A    between atoms: C_11  and  C_12
REMARK    5  A    between atoms: C_12  and  N_13
REMARK    6  A    between atoms: C_16  and  N_19
REMARK                            x       y       z     vdW  Elec       q    Type
REMARK                         _______ _______ _______ _____ _____    ______ ____
ROOT
ATOM      1  N   UNL     1       8.105  -4.558  26.115  0.00  0.00    -0.298 NA
ATOM      2  C   UNL     1       8.382  -4.864  24.729  0.00  0.00    +0.113 C 
ATOM      3  C   UNL     1       8.583  -3.683  23.828  0.00  0.00    +0.010 C 
ATOM      4  C   UNL     1       8.698  -2.397  24.217  0.00  0.00    +0.027 C 
ATOM      5  C   UNL     1       8.654  -2.119  25.704  0.00  0.00    +0.069 C 
ATOM      6  C   UNL     1       8.697  -3.344  26.636  0.00  0.00    +0.091 C 
ENDROOT
BRANCH   4   7
ATOM      7  N   UNL     1       8.873  -1.338  23.310  0.00  0.00    -0.265 N 
ATOM      8  C   UNL     1       8.042  -0.195  23.063  0.00  0.00    +0.074 A 
ATOM      9  C   UNL     1       8.694   0.632  22.145  0.00  0.00    +0.067 A 
ATOM     10  C   UNL     1       8.203   1.848  21.713  0.00  0.00    +0.028 A 
ATOM     11  C   UNL     1       6.974   2.254  22.230  0.00  0.00    +0.002 A 
ATOM     12  C   UNL     1       6.280   1.432  23.131  0.00  0.00    +0.002 A 
ATOM     13  N   UNL     1       9.877   0.033  21.767  0.00  0.00    -0.306 N 
ATOM     14  H   UNL     1      10.553   0.381  21.106  0.00  0.00    +0.170 HD
ATOM     15  C   UNL     1       6.808   0.199  23.546  0.00  0.00    +0.028 A 
ATOM     16  C   UNL     1      10.024  -1.184  22.439  0.00  0.00    +0.332 A 
ATOM     17  O   UNL     1      10.982  -1.919  22.250  0.00  0.00    -0.246 OA
ENDBRANCH   4   7
BRANCH   1  18
ATOM     18  C   UNL     1       6.851  -5.020  26.685  0.00  0.00    +0.085 C 
BRANCH  18  19
ATOM     19  C   UNL     1       5.770  -3.970  26.943  0.00  0.00    +0.023 C 
BRANCH  19  20
ATOM     20  C   UNL     1       4.371  -4.417  26.537  0.00  0.00    +0.081 C 
BRANCH  20  21
ATOM     21  C   UNL     1       3.930  -3.792  25.231  0.00  0.00    +0.163 C 
ATOM     22  O   UNL     1       3.027  -2.962  25.172  0.00  0.00    -0.292 OA
BRANCH  21  27
ATOM     23  F   UNL     1       6.539  -5.496  20.557  0.00  0.00    -0.205 F 
ATOM     24  C   UNL     1       5.921  -5.077  21.668  0.00  0.00    +0.123 A 
ATOM     25  C   UNL     1       5.798  -3.713  21.909  0.00  0.00    +0.039 A 
ATOM     26  C   UNL     1       5.154  -3.271  23.067  0.00  0.00    +0.014 A 
ATOM     27  C   UNL     1       4.635  -4.202  23.980  0.00  0.00    +0.018 A 
ATOM     28  C   UNL     1       4.767  -5.574  23.719  0.00  0.00    +0.014 A 
ATOM     29  C   UNL     1       5.412  -6.011  22.561  0.00  0.00    +0.039 A 
ENDBRANCH  21  27
ENDBRANCH  20  21
ENDBRANCH  19  20
ENDBRANCH  18  19
ENDBRANCH   1  18
TORSDOF 6
ENDMDL
MODEL 5
REMARK VINA RESULT:      -7.0      2.707      7.031
REMARK  Name = 
REMARK  6 active torsions:
REMARK  status: ('A' for Active; 'I' for Inactive)
REMARK    1  A    between atoms: C_5  and  C_8
REMARK    2  A    between atoms: C_8  and  C_10
REMARK    3  A    between atoms: C_10  and  C_11
REMARK    4  A    between atoms: C_11  and  C_12
REMARK    5  A    between atoms: C_12  and  N_13
REMARK    6  A    between atoms: C_16  and  N_19
REMARK                            x       y       z     vdW  Elec       q    Type
REMARK                         _______ _______ _______ _____ _____    ______ ____
ROOT
ATOM      1  N   UNL     1       5.896  -4.997  22.267  0.00  0.00    -0.298 NA
ATOM      2  C   UNL     1       5.665  -3.729  21.610  0.00  0.00    +0.113 C 
ATOM      3  C   UNL     1       6.542  -2.597  22.051  0.00  0.00    +0.010 C 
ATOM      4  C   UNL     1       7.616  -2.693  22.860  0.00  0.00    +0.027 C 
ATOM      5  C   UNL     1       7.995  -4.075  23.345  0.00  0.00    +0.069 C 
ATOM      6  C   UNL     1       7.252  -5.259  22.699  0.00  0.00    +0.091 C 
ENDROOT
BRANCH   4   7
ATOM      7  N   UNL     1       8.385  -1.580  23.242  0.00  0.00    -0.265 N 
ATOM      8  C   UNL     1       7.979  -0.354  23.867  0.00  0.00    +0.074 A 
ATOM      9  C   UNL     1       9.124   0.397  24.148  0.00  0.00    +0.067 A 
ATOM     10  C   UNL     1       9.110   1.617  24.794  0.00  0.00    +0.028 A 
ATOM     11  C   UNL     1       7.867   2.119  25.173  0.00  0.00    +0.002 A 
ATOM     12  C   UNL     1       6.696   1.403  24.880  0.00  0.00    +0.002 A 
ATOM     13  N   UNL     1      10.228  -0.284  23.681  0.00  0.00    -0.306 N 
ATOM     14  H   UNL     1      11.190   0.013  23.722  0.00  0.00    +0.170 HD
ATOM     15  C   UNL     1       6.747   0.166  24.218  0.00  0.00    +0.028 A 
ATOM     16  C   UNL     1       9.828  -1.491  23.102  0.00  0.00    +0.332 A 
ATOM     17  O   UNL     1      10.625  -2.261  22.587  0.00  0.00    -0.246 OA
ENDBRANCH   4   7
BRANCH   1  18
ATOM     18  C   UNL     1       4.801  -5.597  23.010  0.00  0.00    +0.085 C 
BRANCH  18  19
ATOM     19  C   UNL     1       5.162  -6.641  24.068  0.00  0.00    +0.023 C 
BRANCH  19  20
ATOM     20  C   UNL     1       4.435  -6.448  25.393  0.00  0.00    +0.081 C 
BRANCH  20  21
ATOM     21  C   UNL     1       5.395  -6.290  26.553  0.00  0.00    +0.163 C 
ATOM     22  O   UNL     1       5.479  -7.119  27.454  0.00  0.00    -0.292 OA
BRANCH  21  27
ATOM     23  F   UNL     1       8.832  -1.848  26.657  0.00  0.00    -0.205 F 
ATOM     24  C   UNL     1       8.003  -2.898  26.632  0.00  0.00    +0.123 A 
ATOM     25  C   UNL     1       6.637  -2.687  26.477  0.00  0.00    +0.039 A 
ATOM     26  C   UNL     1       5.767  -3.779  26.450  0.00  0.00    +0.014 A 
ATOM     27  C   UNL     1       6.273  -5.082  26.581  0.00  0.00    +0.018 A 
ATOM     28  C   UNL     1       7.653  -5.275  26.736  0.00  0.00    +0.014 A 
ATOM     29  C   UNL     1       8.519  -4.181  26.762  0.00  0.00    +0.039 A 
ENDBRANCH  21  27
ENDBRANCH  20  21
ENDBRANCH  19  20
ENDBRANCH  18  19
ENDBRANCH   1  18
TORSDOF 6
ENDMDL
MODEL 6
REMARK VINA RESULT:      -6.9      3.012      4.449
REMARK  Name = 
REMARK  6 active torsions:
REMARK  status: ('A' for Active; 'I' for Inactive)
REMARK    1  A    between atoms: C_5  and  C_8
REMARK    2  A    between atoms: C_8  and  C_10
REMARK    3  A    between atoms: C_10  and  C_11
REMARK    4  A    between atoms: C_11  and  C_12
REMARK    5  A    between atoms: C_12  and  N_13
REMARK    6  A    between atoms: C_16  and  N_19
REMARK                            x       y       z     vdW  Elec       q    Type
REMARK                         _______ _______ _______ _____ _____    ______ ____
ROOT
ATOM      1  N   UNL     1       9.014  -1.115  23.767  0.00  0.00    -0.298 NA
ATOM      2  C   UNL     1       9.568  -2.449  23.840  0.00  0.00    +0.113 C 
ATOM      3  C   UNL     1       8.582  -3.572  23.736  0.00  0.00    +0.010 C 
ATOM      4  C   UNL     1       7.278  -3.456  23.413  0.00  0.00    +0.027 C 
ATOM      5  C   UNL     1       6.765  -2.069  23.094  0.00  0.00    +0.069 C 
ATOM      6  C   UNL     1       7.823  -0.958  22.959  0.00  0.00    +0.091 C 
ENDROOT
BRANCH   4   7
ATOM      7  N   UNL     1       6.407  -4.558  23.347  0.00  0.00    -0.265 N 
ATOM      8  C   UNL     1       5.844  -5.347  24.404  0.00  0.00    +0.074 A 
ATOM      9  C   UNL     1       4.950  -6.262  23.842  0.00  0.00    +0.067 A 
ATOM     10  C   UNL     1       4.189  -7.151  24.574  0.00  0.00    +0.028 A 
ATOM     11  C   UNL     1       4.344  -7.127  25.959  0.00  0.00    +0.002 A 
ATOM     12  C   UNL     1       5.255  -6.240  26.553  0.00  0.00    +0.002 A 
ATOM     13  N   UNL     1       4.965  -6.114  22.472  0.00  0.00    -0.306 N 
ATOM     14  H   UNL     1       4.439  -6.644  21.795  0.00  0.00    +0.170 HD
ATOM     15  C   UNL     1       6.016  -5.351  25.777  0.00  0.00    +0.028 A 
ATOM     16  C   UNL     1       5.855  -5.096  22.117  0.00  0.00    +0.332 A 
ATOM     17  O   UNL     1       6.067  -4.795  20.952  0.00  0.00    -0.246 OA
ENDBRANCH   4   7
BRANCH   1  18
ATOM     18  C   UNL     1       9.210  -0.225  24.897  0.00  0.00    +0.085 C 
BRANCH  18  19
ATOM     19  C   UNL     1      10.419   0.712  24.850  0.00  0.00    +0.023 C 
BRANCH  19  20
ATOM     20  C   UNL     1      10.729   1.241  23.456  0.00  0.00    +0.081 C 
BRANCH  20  21
ATOM     21  C   UNL     1      10.516   2.737  23.353  0.00  0.00    +0.163 C 
ATOM     22  O   UNL     1      11.441   3.540  23.435  0.00  0.00    -0.292 OA
BRANCH  21  27
ATOM     23  F   UNL     1       5.254   4.477  22.437  0.00  0.00    -0.205 F 
ATOM     24  C   UNL     1       6.510   4.074  22.663  0.00  0.00    +0.123 A 
ATOM     25  C   UNL     1       7.307   4.784  23.553  0.00  0.00    +0.039 A 
ATOM     26  C   UNL     1       8.618   4.367  23.793  0.00  0.00    +0.014 A 
ATOM     27  C   UNL     1       9.125   3.236  23.135  0.00  0.00    +0.018 A 
ATOM     28  C   UNL     1       8.307   2.532  22.240  0.00  0.00    +0.014 A 
ATOM     29  C   UNL     1       6.997   2.952  22.004  0.00  0.00    +0.039 A 
ENDBRANCH  21  27
ENDBRANCH  20  21
ENDBRANCH  19  20
ENDBRANCH  18  19
ENDBRANCH   1  18
TORSDOF 6
ENDMDL
MODEL 7
REMARK VINA RESULT:      -6.9      2.405      7.628
REMARK  Name = 
REMARK  6 active torsions:
REMARK  status: ('A' for Active; 'I' for Inactive)
REMARK    1  A    between atoms: C_5  and  C_8
REMARK    2  A    between atoms: C_8  and  C_10
REMARK    3  A    between atoms: C_10  and  C_11
REMARK    4  A    between atoms: C_11  and  C_12
REMARK    5  A    between atoms: C_12  and  N_13
REMARK    6  A    between atoms: C_16  and  N_19
REMARK                            x       y       z     vdW  Elec       q    Type
REMARK                         _______ _______ _______ _____ _____    ______ ____
ROOT
ATOM      1  N   UNL     1       9.991  -0.498  23.012  0.00  0.00    -0.298 NA
ATOM      2  C   UNL     1       9.828   0.351  21.852  0.00  0.00    +0.113 C 
ATOM      3  C   UNL     1       9.868   1.826  22.112  0.00  0.00    +0.010 C 
ATOM      4  C   UNL     1      10.207   2.419  23.275  0.00  0.00    +0.027 C 
ATOM      5  C   UNL     1      10.618   1.516  24.417  0.00  0.00    +0.069 C 
ATOM      6  C   UNL     1      10.816   0.027  24.080  0.00  0.00    +0.091 C 
ENDROOT
BRANCH   4   7
ATOM      7  N   UNL     1      10.208   3.814  23.448  0.00  0.00    -0.265 N 
ATOM      8  C   UNL     1       9.110   4.715  23.653  0.00  0.00    +0.074 A 
ATOM      9  C   UNL     1       9.627   5.993  23.882  0.00  0.00    +0.067 A 
ATOM     10  C   UNL     1       8.854   7.101  24.165  0.00  0.00    +0.028 A 
ATOM     11  C   UNL     1       7.473   6.915  24.213  0.00  0.00    +0.002 A 
ATOM     12  C   UNL     1       6.922   5.650  23.959  0.00  0.00    +0.002 A 
ATOM     13  N   UNL     1      11.000   5.943  23.779  0.00  0.00    -0.306 N 
ATOM     14  H   UNL     1      11.648   6.709  23.876  0.00  0.00    +0.170 HD
ATOM     15  C   UNL     1       7.738   4.544  23.670  0.00  0.00    +0.028 A 
ATOM     16  C   UNL     1      11.405   4.635  23.497  0.00  0.00    +0.332 A 
ATOM     17  O   UNL     1      12.579   4.339  23.329  0.00  0.00    -0.246 OA
ENDBRANCH   4   7
BRANCH   1  18
ATOM     18  C   UNL     1       8.919  -1.417  23.349  0.00  0.00    +0.085 C 
BRANCH  18  19
ATOM     19  C   UNL     1       8.918  -2.006  24.761  0.00  0.00    +0.023 C 
BRANCH  19  20
ATOM     20  C   UNL     1       7.524  -2.248  25.324  0.00  0.00    +0.081 C 
BRANCH  20  21
ATOM     21  C   UNL     1       7.117  -3.704  25.233  0.00  0.00    +0.163 C 
ATOM     22  O   UNL     1       6.988  -4.413  26.226  0.00  0.00    -0.292 OA
BRANCH  21  27
ATOM     23  F   UNL     1       6.038  -5.737  20.109  0.00  0.00    -0.205 F 
ATOM     24  C   UNL     1       6.303  -5.263  21.332  0.00  0.00    +0.123 A 
ATOM     25  C   UNL     1       7.277  -5.881  22.108  0.00  0.00    +0.039 A 
ATOM     26  C   UNL     1       7.559  -5.390  23.385  0.00  0.00    +0.014 A 
ATOM     27  C   UNL     1       6.858  -4.279  23.879  0.00  0.00    +0.018 A 
ATOM     28  C   UNL     1       5.879  -3.668  23.082  0.00  0.00    +0.014 A 
ATOM     29  C   UNL     1       5.601  -4.162  21.806  0.00  0.00    +0.039 A 
ENDBRANCH  21  27
ENDBRANCH  20  21
ENDBRANCH  19  20
ENDBRANCH  18  19
ENDBRANCH   1  18
TORSDOF 6
ENDMDL
MODEL 8
REMARK VINA RESULT:      -6.9      2.855      6.688
REMARK  Name = 
REMARK  6 active torsions:
REMARK  status: ('A' for Active; 'I' for Inactive)
REMARK    1  A    between atoms: C_5  and  C_8
REMARK    2  A    between atoms: C_8  and  C_10
REMARK    3  A    between atoms: C_10  and  C_11
REMARK    4  A    between atoms: C_11  and  C_12
REMARK    5  A    between atoms: C_12  and  N_13
REMARK    6  A    between atoms: C_16  and  N_19
REMARK                            x       y       z     vdW  Elec       q    Type
REMARK                         _______ _______ _______ _____ _____    ______ ____
ROOT
ATOM      1  N   UNL     1       5.499  -3.312  27.247  0.00  0.00    -0.298 NA
ATOM      2  C   UNL     1       6.631  -4.145  26.905  0.00  0.00    +0.113 C 
ATOM      3  C   UNL     1       7.529  -3.615  25.828  0.00  0.00    +0.010 C 
ATOM      4  C   UNL     1       7.476  -2.383  25.284  0.00  0.00    +0.027 C 
ATOM      5  C   UNL     1       6.435  -1.431  25.830  0.00  0.00    +0.069 C 
ATOM      6  C   UNL     1       5.684  -1.884  27.096  0.00  0.00    +0.091 C 
ENDROOT
BRANCH   4   7
ATOM      7  N   UNL     1       8.346  -1.961  24.264  0.00  0.00    -0.265 N 
ATOM      8  C   UNL     1       8.268  -0.814  23.407  0.00  0.00    +0.074 A 
ATOM      9  C   UNL     1       9.427  -0.766  22.628  0.00  0.00    +0.067 A 
ATOM     10  C   UNL     1       9.711   0.236  21.722  0.00  0.00    +0.028 A 
ATOM     11  C   UNL     1       8.765   1.250  21.583  0.00  0.00    +0.002 A 
ATOM     12  C   UNL     1       7.577   1.216  22.329  0.00  0.00    +0.002 A 
ATOM     13  N   UNL     1      10.208  -1.863  22.924  0.00  0.00    -0.306 N 
ATOM     14  H   UNL     1      11.093  -2.111  22.513  0.00  0.00    +0.170 HD
ATOM     15  C   UNL     1       7.319   0.179  23.240  0.00  0.00    +0.028 A 
ATOM     16  C   UNL     1       9.581  -2.636  23.906  0.00  0.00    +0.332 A 
ATOM     17  O   UNL     1      10.064  -3.681  24.318  0.00  0.00    -0.246 OA
ENDBRANCH   4   7
BRANCH   1  18
ATOM     18  C   UNL     1       4.165  -3.862  27.082  0.00  0.00    +0.085 C 
BRANCH  18  19
ATOM     19  C   UNL     1       4.051  -5.374  26.882  0.00  0.00    +0.023 C 
BRANCH  19  20
ATOM     20  C   UNL     1       3.290  -5.771  25.623  0.00  0.00    +0.081 C 
BRANCH  20  21
ATOM     21  C   UNL     1       4.200  -6.376  24.575  0.00  0.00    +0.163 C 
ATOM     22  O   UNL     1       4.301  -7.590  24.414  0.00  0.00    -0.292 OA
BRANCH  21  27
ATOM     23  F   UNL     1       7.269  -3.025  21.274  0.00  0.00    -0.205 F 
ATOM     24  C   UNL     1       6.529  -3.813  22.063  0.00  0.00    +0.123 A 
ATOM     25  C   UNL     1       5.323  -3.338  22.566  0.00  0.00    +0.039 A 
ATOM     26  C   UNL     1       4.547  -4.157  23.389  0.00  0.00    +0.014 A 
ATOM     27  C   UNL     1       4.987  -5.451  23.706  0.00  0.00    +0.018 A 
ATOM     28  C   UNL     1       6.206  -5.914  23.189  0.00  0.00    +0.014 A 
ATOM     29  C   UNL     1       6.979  -5.092  22.366  0.00  0.00    +0.039 A 
ENDBRANCH  21  27
ENDBRANCH  20  21
ENDBRANCH  19  20
ENDBRANCH  18  19
ENDBRANCH   1  18
TORSDOF 6
ENDMDL
MODEL 9
REMARK VINA RESULT:      -6.9      3.087      7.190
REMARK  Name = 
REMARK  6 active torsions:
REMARK  status: ('A' for Active; 'I' for Inactive)
REMARK    1  A    between atoms: C_5  and  C_8
REMARK    2  A    between atoms: C_8  and  C_10
REMARK    3  A    between atoms: C_10  and  C_11
REMARK    4  A    between atoms: C_11  and  C_12
REMARK    5  A    between atoms: C_12  and  N_13
REMARK    6  A    between atoms: C_16  and  N_19
REMARK                            x       y       z     vdW  Elec       q    Type
REMARK                         _______ _______ _______ _____ _____    ______ ____
ROOT
ATOM      1  N   UNL     1       5.410  -5.549  27.584  0.00  0.00    -0.298 NA
ATOM      2  C   UNL     1       6.823  -5.755  27.817  0.00  0.00    +0.113 C 
ATOM      3  C   UNL     1       7.750  -4.929  26.978  0.00  0.00    +0.010 C 
ATOM      4  C   UNL     1       7.394  -3.911  26.168  0.00  0.00    +0.027 C 
ATOM      5  C   UNL     1       5.927  -3.544  26.123  0.00  0.00    +0.069 C 
ATOM      6  C   UNL     1       5.016  -4.221  27.163  0.00  0.00    +0.091 C 
ENDROOT
BRANCH   4   7
ATOM      7  N   UNL     1       8.322  -3.189  25.398  0.00  0.00    -0.265 N 
ATOM      8  C   UNL     1       8.442  -1.774  25.195  0.00  0.00    +0.074 A 
ATOM      9  C   UNL     1       9.590  -1.534  24.435  0.00  0.00    +0.067 A 
ATOM     10  C   UNL     1      10.041  -0.276  24.090  0.00  0.00    +0.028 A 
ATOM     11  C   UNL     1       9.286   0.810  24.528  0.00  0.00    +0.002 A 
ATOM     12  C   UNL     1       8.112   0.602  25.268  0.00  0.00    +0.002 A 
ATOM     13  N   UNL     1      10.169  -2.742  24.110  0.00  0.00    -0.306 N 
ATOM     14  H   UNL     1      10.996  -2.893  23.556  0.00  0.00    +0.170 HD
ATOM     15  C   UNL     1       7.680  -0.692  25.599  0.00  0.00    +0.028 A 
ATOM     16  C   UNL     1       9.420  -3.787  24.660  0.00  0.00    +0.332 A 
ATOM     17  O   UNL     1       9.715  -4.960  24.486  0.00  0.00    -0.246 OA
ENDBRANCH   4   7
BRANCH   1  18
ATOM     18  C   UNL     1       4.612  -6.682  27.150  0.00  0.00    +0.085 C 
BRANCH  18  19
ATOM     19  C   UNL     1       3.678  -6.465  25.958  0.00  0.00    +0.023 C 
BRANCH  19  20
ATOM     20  C   UNL     1       4.152  -7.139  24.677  0.00  0.00    +0.081 C 
BRANCH  20  21
ATOM     21  C   UNL     1       3.889  -6.287  23.453  0.00  0.00    +0.163 C 
ATOM     22  O   UNL     1       2.824  -6.324  22.842  0.00  0.00    -0.292 OA
BRANCH  21  27
ATOM     23  F   UNL     1       7.856  -2.684  21.768  0.00  0.00    -0.205 F 
ATOM     24  C   UNL     1       6.919  -3.553  22.165  0.00  0.00    +0.123 A 
ATOM     25  C   UNL     1       7.196  -4.915  22.145  0.00  0.00    +0.039 A 
ATOM     26  C   UNL     1       6.222  -5.826  22.559  0.00  0.00    +0.014 A 
ATOM     27  C   UNL     1       4.969  -5.364  22.992  0.00  0.00    +0.018 A 
ATOM     28  C   UNL     1       4.707  -3.986  23.006  0.00  0.00    +0.014 A 
ATOM     29  C   UNL     1       5.684  -3.079  22.591  0.00  0.00    +0.039 A 
ENDBRANCH  21  27
ENDBRANCH  20  21
ENDBRANCH  19  20
ENDBRANCH  18  19
ENDBRANCH   1  18
TORSDOF 6
ENDMDL
