MODEL 1
REMARK VINA RESULT:      -6.3      0.000      0.000
REMARK  Name = 
REMARK  9 active torsions:
REMARK  status: ('A' for Active; 'I' for Inactive)
REMARK    1  A    between atoms: C_2  and  C_4
REMARK    2  A    between atoms: N_6  and  C_9
REMARK    3  A    between atoms: C_12  and  C_14
REMARK    4  A    between atoms: C_14  and  O_15
REMARK    5  A    between atoms: O_15  and  P_16
REMARK    6  A    between atoms: P_16  and  O_17
REMARK    7  A    between atoms: P_16  and  O_18
REMARK    8  A    between atoms: C_20  and  O_22
REMARK    9  A    between atoms: C_23  and  O_25
REMARK                            x       y       z     vdW  Elec       q    Type
REMARK                         _______ _______ _______ _____ _____    ______ ____
ROOT
ATOM      1  C   UNL     1       6.750  -2.117  22.417  0.00  0.00    +0.270 C 
ATOM      2  C   UNL     1       6.804  -3.542  21.855  0.00  0.00    +0.196 C 
ATOM      3  C   UNL     1       6.839  -4.446  23.093  0.00  0.00    +0.178 C 
ATOM      4  C   UNL     1       6.809  -3.463  24.273  0.00  0.00    +0.178 C 
ATOM      5  O   UNL     1       6.245  -2.246  23.767  0.00  0.00    -0.344 OA
ENDROOT
BRANCH   1   9
ATOM      6  C   UNL     1       9.444   0.120  22.623  0.00  0.00    +0.236 A 
ATOM      7  N   UNL     1      10.161  -1.006  22.266  0.00  0.00    -0.211 NA
ATOM      8  C   UNL     1       9.247  -1.941  22.170  0.00  0.00    +0.223 A 
ATOM      9  N   UNL     1       8.026  -1.419  22.460  0.00  0.00    -0.220 N 
ATOM     10  N   UNL     1       8.119  -0.106  22.750  0.00  0.00    -0.142 NA
BRANCH   6  14
ATOM     11  N   UNL     1      10.128   2.225  21.704  0.00  0.00    -0.323 N 
ATOM     12  H   UNL     1       9.752   1.864  20.834  0.00  0.00    +0.145 HD
ATOM     13  H   UNL     1      10.479   3.164  21.771  0.00  0.00    +0.145 HD
ATOM     14  C   UNL     1      10.046   1.452  22.839  0.00  0.00    +0.281 C 
ATOM     15  O   UNL     1      10.435   1.885  23.918  0.00  0.00    -0.267 OA
ENDBRANCH   6  14
ENDBRANCH   1   9
BRANCH   2  16
ATOM     16  O   UNL     1       5.613  -3.811  21.086  0.00  0.00    -0.385 OA
ATOM     17  H   UNL     1       5.114  -2.983  20.975  0.00  0.00    +0.210 HD
ENDBRANCH   2  16
BRANCH   3  18
ATOM     18  O   UNL     1       8.012  -5.254  23.101  0.00  0.00    -0.386 OA
ATOM     19  H   UNL     1       8.222  -5.458  24.031  0.00  0.00    +0.210 HD
ENDBRANCH   3  18
BRANCH   4  20
ATOM     20  C   UNL     1       5.996  -3.972  25.456  0.00  0.00    +0.206 C 
BRANCH  20  21
ATOM     21  O   UNL     1       6.546  -5.207  25.865  0.00  0.00    -0.284 OA
BRANCH  21  22
ATOM     22  P   UNL     1       7.886  -5.173  26.729  0.00  0.00    +0.472 P 
ATOM     23  O   UNL     1       8.381  -3.831  27.139  0.00  0.00    -0.228 OA
BRANCH  22  24
ATOM     24  O   UNL     1       8.901  -6.038  25.859  0.00  0.00    -0.303 OA
ATOM     25  H   UNL     1       9.652  -5.497  25.549  0.00  0.00    +0.222 HD
ENDBRANCH  22  24
BRANCH  22  26
ATOM     26  O   UNL     1       7.536  -6.127  27.960  0.00  0.00    -0.303 OA
ATOM     27  H   UNL     1       8.284  -6.723  28.152  0.00  0.00    +0.222 HD
ENDBRANCH  22  26
ENDBRANCH  21  22
ENDBRANCH  20  21
ENDBRANCH   4  20
TORSDOF 9
ENDMDL
MODEL 2
REMARK VINA RESULT:      -6.3      2.056      3.598
REMARK  Name = 
REMARK  9 active torsions:
REMARK  status: ('A' for Active; 'I' for Inactive)
REMARK    1  A    between atoms: C_2  and  C_4
REMARK    2  A    between atoms: N_6  and  C_9
REMARK    3  A    between atoms: C_12  and  C_14
REMARK    4  A    between atoms: C_14  and  O_15
REMARK    5  A    between atoms: O_15  and  P_16
REMARK    6  A    between atoms: P_16  and  O_17
REMARK    7  A    between atoms: P_16  and  O_18
REMARK    8  A    between atoms: C_20  and  O_22
REMARK    9  A    between atoms: C_23  and  O_25
REMARK                            x       y       z     vdW  Elec       q    Type
REMARK                         _______ _______ _______ _____ _____    ______ ____
ROOT
ATOM      1  C   UNL     1       9.205  -2.608  23.420  0.00  0.00    +0.270 C 
ATOM      2  C   UNL     1       8.843  -3.493  24.619  0.00  0.00    +0.196 C 
ATOM      3  C   UNL     1       7.311  -3.533  24.623  0.00  0.00    +0.178 C 
ATOM      4  C   UNL     1       6.912  -2.659  23.424  0.00  0.00    +0.178 C 
ATOM      5  O   UNL     1       8.049  -2.634  22.551  0.00  0.00    -0.344 OA
ENDROOT
BRANCH   1   9
ATOM      6  C   UNL     1      10.024   0.801  23.525  0.00  0.00    +0.236 A 
ATOM      7  N   UNL     1      10.021   0.566  24.886  0.00  0.00    -0.211 NA
ATOM      8  C   UNL     1       9.706  -0.703  24.984  0.00  0.00    +0.223 A 
ATOM      9  N   UNL     1       9.517  -1.224  23.743  0.00  0.00    -0.220 N 
ATOM     10  N   UNL     1       9.716  -0.291  22.792  0.00  0.00    -0.142 NA
BRANCH   6  14
ATOM     11  N   UNL     1       9.976   2.209  21.586  0.00  0.00    -0.323 N 
ATOM     12  H   UNL     1       9.499   1.430  21.144  0.00  0.00    +0.145 HD
ATOM     13  H   UNL     1      10.111   3.079  21.103  0.00  0.00    +0.145 HD
ATOM     14  C   UNL     1      10.341   2.106  22.909  0.00  0.00    +0.281 C 
ATOM     15  O   UNL     1      10.864   3.052  23.487  0.00  0.00    -0.267 OA
ENDBRANCH   6  14
ENDBRANCH   1   9
BRANCH   2  16
ATOM     16  O   UNL     1       9.368  -4.823  24.423  0.00  0.00    -0.385 OA
ATOM     17  H   UNL     1       9.687  -4.905  23.508  0.00  0.00    +0.210 HD
ENDBRANCH   2  16
BRANCH   3  18
ATOM     18  O   UNL     1       6.790  -3.028  25.848  0.00  0.00    -0.386 OA
ATOM     19  H   UNL     1       7.179  -2.145  25.991  0.00  0.00    +0.210 HD
ENDBRANCH   3  18
BRANCH   4  20
ATOM     20  C   UNL     1       5.688  -3.180  22.683  0.00  0.00    +0.206 C 
BRANCH  20  21
ATOM     21  O   UNL     1       6.130  -3.824  21.506  0.00  0.00    -0.284 OA
BRANCH  21  22
ATOM     22  P   UNL     1       6.213  -5.416  21.517  0.00  0.00    +0.472 P 
ATOM     23  O   UNL     1       7.404  -6.017  22.176  0.00  0.00    -0.228 OA
BRANCH  22  24
ATOM     24  O   UNL     1       6.016  -5.801  19.984  0.00  0.00    -0.303 OA
ATOM     25  H   UNL     1       5.760  -6.738  19.885  0.00  0.00    +0.222 HD
ENDBRANCH  22  24
BRANCH  22  26
ATOM     26  O   UNL     1       4.831  -5.838  22.193  0.00  0.00    -0.303 OA
ATOM     27  H   UNL     1       4.312  -5.047  22.430  0.00  0.00    +0.222 HD
ENDBRANCH  22  26
ENDBRANCH  21  22
ENDBRANCH  20  21
ENDBRANCH   4  20
TORSDOF 9
ENDMDL
MODEL 3
REMARK VINA RESULT:      -6.2      3.264      6.636
REMARK  Name = 
REMARK  9 active torsions:
REMARK  status: ('A' for Active; 'I' for Inactive)
REMARK    1  A    between atoms: C_2  and  C_4
REMARK    2  A    between atoms: N_6  and  C_9
REMARK    3  A    between atoms: C_12  and  C_14
REMARK    4  A    between atoms: C_14  and  O_15
REMARK    5  A    between atoms: O_15  and  P_16
REMARK    6  A    between atoms: P_16  and  O_17
REMARK    7  A    between atoms: P_16  and  O_18
REMARK    8  A    between atoms: C_20  and  O_22
REMARK    9  A    between atoms: C_23  and  O_25
REMARK                            x       y       z     vdW  Elec       q    Type
REMARK                         _______ _______ _______ _____ _____    ______ ____
ROOT
ATOM      1  C   UNL     1       9.469  -1.454  22.765  0.00  0.00    +0.270 C 
ATOM      2  C   UNL     1       8.565  -0.698  21.785  0.00  0.00    +0.196 C 
ATOM      3  C   UNL     1       8.031   0.492  22.591  0.00  0.00    +0.178 C 
ATOM      4  C   UNL     1       8.669   0.320  23.978  0.00  0.00    +0.178 C 
ATOM      5  O   UNL     1       9.833  -0.495  23.785  0.00  0.00    -0.344 OA
ENDROOT
BRANCH   1   9
ATOM      6  C   UNL     1       8.572  -4.258  24.674  0.00  0.00    +0.236 A 
ATOM      7  N   UNL     1       7.495  -4.266  23.809  0.00  0.00    -0.211 NA
ATOM      8  C   UNL     1       7.709  -3.232  23.033  0.00  0.00    +0.223 A 
ATOM      9  N   UNL     1       8.858  -2.609  23.406  0.00  0.00    -0.220 N 
ATOM     10  N   UNL     1       9.433  -3.243  24.447  0.00  0.00    -0.142 NA
BRANCH   6  14
ATOM     11  N   UNL     1       9.902  -6.040  25.567  0.00  0.00    -0.323 N 
ATOM     12  H   UNL     1      10.505  -5.867  24.769  0.00  0.00    +0.145 HD
ATOM     13  H   UNL     1      10.149  -6.711  26.272  0.00  0.00    +0.145 HD
ATOM     14  C   UNL     1       8.786  -5.256  25.743  0.00  0.00    +0.281 C 
ATOM     15  O   UNL     1       8.071  -5.399  26.728  0.00  0.00    -0.267 OA
ENDBRANCH   6  14
ENDBRANCH   1   9
BRANCH   2  16
ATOM     16  O   UNL     1       9.344  -0.223  20.666  0.00  0.00    -0.385 OA
ATOM     17  H   UNL     1       9.343   0.750  20.671  0.00  0.00    +0.210 HD
ENDBRANCH   2  16
BRANCH   3  18
ATOM     18  O   UNL     1       6.608   0.471  22.650  0.00  0.00    -0.386 OA
ATOM     19  H   UNL     1       6.324  -0.457  22.547  0.00  0.00    +0.210 HD
ENDBRANCH   3  18
BRANCH   4  20
ATOM     20  C   UNL     1       9.050   1.642  24.630  0.00  0.00    +0.206 C 
BRANCH  20  21
ATOM     21  O   UNL     1      10.368   1.961  24.232  0.00  0.00    -0.284 OA
BRANCH  21  22
ATOM     22  P   UNL     1      10.562   3.160  23.198  0.00  0.00    +0.472 P 
ATOM     23  O   UNL     1      11.767   4.012  23.385  0.00  0.00    -0.228 OA
BRANCH  22  24
ATOM     24  O   UNL     1       9.167   3.927  23.265  0.00  0.00    -0.303 OA
ATOM     25  H   UNL     1       8.622   3.606  24.009  0.00  0.00    +0.222 HD
ENDBRANCH  22  24
BRANCH  22  26
ATOM     26  O   UNL     1      10.517   2.419  21.786  0.00  0.00    -0.303 OA
ATOM     27  H   UNL     1      10.523   3.069  21.059  0.00  0.00    +0.222 HD
ENDBRANCH  22  26
ENDBRANCH  21  22
ENDBRANCH  20  21
ENDBRANCH   4  20
TORSDOF 9
ENDMDL
MODEL 4
REMARK VINA RESULT:      -6.1      2.682      4.099
REMARK  Name = 
REMARK  9 active torsions:
REMARK  status: ('A' for Active; 'I' for Inactive)
REMARK    1  A    between atoms: C_2  and  C_4
REMARK    2  A    between atoms: N_6  and  C_9
REMARK    3  A    between atoms: C_12  and  C_14
REMARK    4  A    between atoms: C_14  and  O_15
REMARK    5  A    between atoms: O_15  and  P_16
REMARK    6  A    between atoms: P_16  and  O_17
REMARK    7  A    between atoms: P_16  and  O_18
REMARK    8  A    between atoms: C_20  and  O_22
REMARK    9  A    between atoms: C_23  and  O_25
REMARK                            x       y       z     vdW  Elec       q    Type
REMARK                         _______ _______ _______ _____ _____    ______ ____
ROOT
ATOM      1  C   UNL     1       8.523  -4.494  24.179  0.00  0.00    +0.270 C 
ATOM      2  C   UNL     1       8.915  -4.952  25.589  0.00  0.00    +0.196 C 
ATOM      3  C   UNL     1       7.584  -5.300  26.266  0.00  0.00    +0.178 C 
ATOM      4  C   UNL     1       6.529  -5.006  25.189  0.00  0.00    +0.178 C 
ATOM      5  O   UNL     1       7.216  -5.060  23.931  0.00  0.00    -0.344 OA
ENDROOT
BRANCH   1   9
ATOM      6  C   UNL     1       8.642  -0.992  24.347  0.00  0.00    +0.236 A 
ATOM      7  N   UNL     1       7.920  -1.100  23.175  0.00  0.00    -0.211 NA
ATOM      8  C   UNL     1       7.817  -2.393  22.988  0.00  0.00    +0.223 A 
ATOM      9  N   UNL     1       8.452  -3.052  23.994  0.00  0.00    -0.220 N 
ATOM     10  N   UNL     1       8.985  -2.186  24.877  0.00  0.00    -0.142 NA
BRANCH   6  14
ATOM     11  N   UNL     1      10.310   0.355  25.419  0.00  0.00    -0.323 N 
ATOM     12  H   UNL     1      10.925  -0.434  25.251  0.00  0.00    +0.145 HD
ATOM     13  H   UNL     1      10.655   1.210  25.818  0.00  0.00    +0.145 HD
ATOM     14  C   UNL     1       9.007   0.292  24.982  0.00  0.00    +0.281 C 
ATOM     15  O   UNL     1       8.257   1.252  25.116  0.00  0.00    -0.267 OA
ENDBRANCH   6  14
ENDBRANCH   1   9
BRANCH   2  16
ATOM     16  O   UNL     1       9.746  -6.129  25.509  0.00  0.00    -0.385 OA
ATOM     17  H   UNL     1       9.478  -6.754  26.204  0.00  0.00    +0.210 HD
ENDBRANCH   2  16
BRANCH   3  18
ATOM     18  O   UNL     1       7.386  -4.512  27.437  0.00  0.00    -0.386 OA
ATOM     19  H   UNL     1       8.263  -4.216  27.743  0.00  0.00    +0.210 HD
ENDBRANCH   3  18
BRANCH   4  20
ATOM     20  C   UNL     1       5.369  -5.993  25.202  0.00  0.00    +0.206 C 
BRANCH  20  21
ATOM     21  O   UNL     1       4.251  -5.360  24.615  0.00  0.00    -0.284 OA
BRANCH  21  22
ATOM     22  P   UNL     1       3.596  -6.048  23.334  0.00  0.00    +0.472 P 
ATOM     23  O   UNL     1       2.308  -5.477  22.856  0.00  0.00    -0.228 OA
BRANCH  22  24
ATOM     24  O   UNL     1       3.552  -7.590  23.731  0.00  0.00    -0.303 OA
ATOM     25  H   UNL     1       2.691  -7.990  23.503  0.00  0.00    +0.222 HD
ENDBRANCH  22  24
BRANCH  22  26
ATOM     26  O   UNL     1       4.768  -5.971  22.254  0.00  0.00    -0.303 OA
ATOM     27  H   UNL     1       4.404  -6.031  21.350  0.00  0.00    +0.222 HD
ENDBRANCH  22  26
ENDBRANCH  21  22
ENDBRANCH  20  21
ENDBRANCH   4  20
TORSDOF 9
ENDMDL
MODEL 5
REMARK VINA RESULT:      -6.1      2.190      3.270
REMARK  Name = 
REMARK  9 active torsions:
REMARK  status: ('A' for Active; 'I' for Inactive)
REMARK    1  A    between atoms: C_2  and  C_4
REMARK    2  A    between atoms: N_6  and  C_9
REMARK    3  A    between atoms: C_12  and  C_14
REMARK    4  A    between atoms: C_14  and  O_15
REMARK    5  A    between atoms: O_15  and  P_16
REMARK    6  A    between atoms: P_16  and  O_17
REMARK    7  A    between atoms: P_16  and  O_18
REMARK    8  A    between atoms: C_20  and  O_22
REMARK    9  A    between atoms: C_23  and  O_25
REMARK                            x       y       z     vdW  Elec       q    Type
REMARK                         _______ _______ _______ _____ _____    ______ ____
ROOT
ATOM      1  C   UNL     1       8.391  -4.179  23.793  0.00  0.00    +0.270 C 
ATOM      2  C   UNL     1       9.087  -4.846  24.985  0.00  0.00    +0.196 C 
ATOM      3  C   UNL     1       7.949  -5.199  25.950  0.00  0.00    +0.178 C 
ATOM      4  C   UNL     1       6.685  -4.699  25.235  0.00  0.00    +0.178 C 
ATOM      5  O   UNL     1       7.016  -4.625  23.841  0.00  0.00    -0.344 OA
ENDROOT
BRANCH   1   9
ATOM      6  C   UNL     1       8.893  -0.745  24.308  0.00  0.00    +0.236 A 
ATOM      7  N   UNL     1       7.862  -0.650  23.395  0.00  0.00    -0.211 NA
ATOM      8  C   UNL     1       7.584  -1.897  23.104  0.00  0.00    +0.223 A 
ATOM      9  N   UNL     1       8.411  -2.724  23.799  0.00  0.00    -0.220 N 
ATOM     10  N   UNL     1       9.254  -2.018  24.578  0.00  0.00    -0.142 NA
BRANCH   6  14
ATOM     11  N   UNL     1       8.684   1.239  25.636  0.00  0.00    -0.323 N 
ATOM     12  H   UNL     1       7.703   0.988  25.693  0.00  0.00    +0.145 HD
ATOM     13  H   UNL     1       9.052   2.025  26.142  0.00  0.00    +0.145 HD
ATOM     14  C   UNL     1       9.546   0.416  24.948  0.00  0.00    +0.281 C 
ATOM     15  O   UNL     1      10.747   0.659  24.913  0.00  0.00    -0.267 OA
ENDBRANCH   6  14
ENDBRANCH   1   9
BRANCH   2  16
ATOM     16  O   UNL     1       9.755  -6.050  24.552  0.00  0.00    -0.385 OA
ATOM     17  H   UNL     1       9.103  -6.770  24.497  0.00  0.00    +0.210 HD
ENDBRANCH   2  16
BRANCH   3  18
ATOM     18  O   UNL     1       8.135  -4.566  27.212  0.00  0.00    -0.386 OA
ATOM     19  H   UNL     1       7.831  -3.644  27.125  0.00  0.00    +0.210 HD
ENDBRANCH   3  18
BRANCH   4  20
ATOM     20  C   UNL     1       5.480  -5.606  25.445  0.00  0.00    +0.206 C 
BRANCH  20  21
ATOM     21  O   UNL     1       5.796  -6.522  26.473  0.00  0.00    -0.284 OA
BRANCH  21  22
ATOM     22  P   UNL     1       4.925  -6.470  27.808  0.00  0.00    +0.472 P 
ATOM     23  O   UNL     1       3.447  -6.500  27.640  0.00  0.00    -0.228 OA
BRANCH  22  24
ATOM     24  O   UNL     1       5.500  -5.194  28.568  0.00  0.00    -0.303 OA
ATOM     25  H   UNL     1       5.866  -4.543  27.939  0.00  0.00    +0.222 HD
ENDBRANCH  22  24
BRANCH  22  26
ATOM     26  O   UNL     1       5.496  -7.699  28.649  0.00  0.00    -0.303 OA
ATOM     27  H   UNL     1       6.461  -7.774  28.532  0.00  0.00    +0.222 HD
ENDBRANCH  22  26
ENDBRANCH  21  22
ENDBRANCH  20  21
ENDBRANCH   4  20
TORSDOF 9
ENDMDL
MODEL 6
REMARK VINA RESULT:      -6.0      2.197      3.543
REMARK  Name = 
REMARK  9 active torsions:
REMARK  status: ('A' for Active; 'I' for Inactive)
REMARK    1  A    between atoms: C_2  and  C_4
REMARK    2  A    between atoms: N_6  and  C_9
REMARK    3  A    between atoms: C_12  and  C_14
REMARK    4  A    between atoms: C_14  and  O_15
REMARK    5  A    between atoms: O_15  and  P_16
REMARK    6  A    between atoms: P_16  and  O_17
REMARK    7  A    between atoms: P_16  and  O_18
REMARK    8  A    between atoms: C_20  and  O_22
REMARK    9  A    between atoms: C_23  and  O_25
REMARK                            x       y       z     vdW  Elec       q    Type
REMARK                         _______ _______ _______ _____ _____    ______ ____
ROOT
ATOM      1  C   UNL     1       9.312  -2.227  24.374  0.00  0.00    +0.270 C 
ATOM      2  C   UNL     1       8.092  -2.177  25.300  0.00  0.00    +0.196 C 
ATOM      3  C   UNL     1       7.113  -3.197  24.706  0.00  0.00    +0.178 C 
ATOM      4  C   UNL     1       7.851  -3.749  23.477  0.00  0.00    +0.178 C 
ATOM      5  O   UNL     1       9.246  -3.507  23.704  0.00  0.00    -0.344 OA
ENDROOT
BRANCH   1   9
ATOM      6  C   UNL     1       9.016   0.631  22.361  0.00  0.00    +0.236 A 
ATOM      7  N   UNL     1       9.783  -0.129  21.499  0.00  0.00    -0.211 NA
ATOM      8  C   UNL     1       9.980  -1.246  22.155  0.00  0.00    +0.223 A 
ATOM      9  N   UNL     1       9.371  -1.176  23.369  0.00  0.00    -0.220 N 
ATOM     10  N   UNL     1       8.745   0.007  23.527  0.00  0.00    -0.142 NA
BRANCH   6  14
ATOM     11  N   UNL     1       9.388   2.998  22.410  0.00  0.00    -0.323 N 
ATOM     12  H   UNL     1      10.289   2.756  22.808  0.00  0.00    +0.145 HD
ATOM     13  H   UNL     1       9.151   3.950  22.193  0.00  0.00    +0.145 HD
ATOM     14  C   UNL     1       8.522   1.989  22.054  0.00  0.00    +0.281 C 
ATOM     15  O   UNL     1       7.452   2.247  21.515  0.00  0.00    -0.267 OA
ENDBRANCH   6  14
ENDBRANCH   1   9
BRANCH   2  16
ATOM     16  O   UNL     1       8.471  -2.581  26.633  0.00  0.00    -0.385 OA
ATOM     17  H   UNL     1       8.383  -1.818  27.231  0.00  0.00    +0.210 HD
ENDBRANCH   2  16
BRANCH   3  18
ATOM     18  O   UNL     1       5.880  -2.577  24.355  0.00  0.00    -0.386 OA
ATOM     19  H   UNL     1       6.075  -1.892  23.689  0.00  0.00    +0.210 HD
ENDBRANCH   3  18
BRANCH   4  20
ATOM     20  C   UNL     1       7.602  -5.234  23.245  0.00  0.00    +0.206 C 
BRANCH  20  21
ATOM     21  O   UNL     1       6.403  -5.583  23.905  0.00  0.00    -0.284 OA
BRANCH  21  22
ATOM     22  P   UNL     1       5.129  -5.915  23.004  0.00  0.00    +0.472 P 
ATOM     23  O   UNL     1       4.141  -4.819  22.819  0.00  0.00    -0.228 OA
BRANCH  22  24
ATOM     24  O   UNL     1       4.555  -7.247  23.663  0.00  0.00    -0.303 OA
ATOM     25  H   UNL     1       5.088  -7.518  24.435  0.00  0.00    +0.222 HD
ENDBRANCH  22  24
BRANCH  22  26
ATOM     26  O   UNL     1       5.784  -6.421  21.640  0.00  0.00    -0.303 OA
ATOM     27  H   UNL     1       5.237  -6.152  20.879  0.00  0.00    +0.222 HD
ENDBRANCH  22  26
ENDBRANCH  21  22
ENDBRANCH  20  21
ENDBRANCH   4  20
TORSDOF 9
ENDMDL
MODEL 7
REMARK VINA RESULT:      -6.0      3.548      6.672
REMARK  Name = 
REMARK  9 active torsions:
REMARK  status: ('A' for Active; 'I' for Inactive)
REMARK    1  A    between atoms: C_2  and  C_4
REMARK    2  A    between atoms: N_6  and  C_9
REMARK    3  A    between atoms: C_12  and  C_14
REMARK    4  A    between atoms: C_14  and  O_15
REMARK    5  A    between atoms: O_15  and  P_16
REMARK    6  A    between atoms: P_16  and  O_17
REMARK    7  A    between atoms: P_16  and  O_18
REMARK    8  A    between atoms: C_20  and  O_22
REMARK    9  A    between atoms: C_23  and  O_25
REMARK                            x       y       z     vdW  Elec       q    Type
REMARK                         _______ _______ _______ _____ _____    ______ ____
ROOT
ATOM      1  C   UNL     1       7.733  -1.342  23.749  0.00  0.00    +0.270 C 
ATOM      2  C   UNL     1       9.235  -1.575  23.954  0.00  0.00    +0.196 C 
ATOM      3  C   UNL     1       9.902  -0.868  22.768  0.00  0.00    +0.178 C 
ATOM      4  C   UNL     1       8.724  -0.287  21.970  0.00  0.00    +0.178 C 
ATOM      5  O   UNL     1       7.629  -0.183  22.890  0.00  0.00    -0.344 OA
ENDROOT
BRANCH   1   9
ATOM      6  C   UNL     1       6.569  -4.355  22.380  0.00  0.00    +0.236 A 
ATOM      7  N   UNL     1       5.491  -3.562  22.036  0.00  0.00    -0.211 NA
ATOM      8  C   UNL     1       5.804  -2.383  22.516  0.00  0.00    +0.223 A 
ATOM      9  N   UNL     1       7.013  -2.446  23.134  0.00  0.00    -0.220 N 
ATOM     10  N   UNL     1       7.527  -3.689  23.060  0.00  0.00    -0.142 NA
BRANCH   6  14
ATOM     11  N   UNL     1       5.487  -6.409  21.787  0.00  0.00    -0.323 N 
ATOM     12  H   UNL     1       4.634  -5.860  21.811  0.00  0.00    +0.145 HD
ATOM     13  H   UNL     1       5.480  -7.371  21.500  0.00  0.00    +0.145 HD
ATOM     14  C   UNL     1       6.688  -5.788  22.040  0.00  0.00    +0.281 C 
ATOM     15  O   UNL     1       7.741  -6.409  21.959  0.00  0.00    -0.267 OA
ENDBRANCH   6  14
ENDBRANCH   1   9
BRANCH   2  16
ATOM     16  O   UNL     1       9.662  -0.966  25.191  0.00  0.00    -0.385 OA
ATOM     17  H   UNL     1       9.720  -0.003  25.066  0.00  0.00    +0.210 HD
ENDBRANCH   2  16
BRANCH   3  18
ATOM     18  O   UNL     1      10.672  -1.783  21.995  0.00  0.00    -0.386 OA
ATOM     19  H   UNL     1      10.831  -1.371  21.126  0.00  0.00    +0.210 HD
ENDBRANCH   3  18
BRANCH   4  20
ATOM     20  C   UNL     1       9.030   1.072  21.355  0.00  0.00    +0.206 C 
BRANCH  20  21
ATOM     21  O   UNL     1      10.163   1.603  22.009  0.00  0.00    -0.284 OA
BRANCH  21  22
ATOM     22  P   UNL     1       9.919   2.658  23.180  0.00  0.00    +0.472 P 
ATOM     23  O   UNL     1       9.710   2.102  24.544  0.00  0.00    -0.228 OA
BRANCH  22  24
ATOM     24  O   UNL     1       8.727   3.553  22.619  0.00  0.00    -0.303 OA
ATOM     25  H   UNL     1       9.050   4.423  22.315  0.00  0.00    +0.222 HD
ENDBRANCH  22  24
BRANCH  22  26
ATOM     26  O   UNL     1      11.192   3.612  23.068  0.00  0.00    -0.303 OA
ATOM     27  H   UNL     1      11.028   4.456  23.528  0.00  0.00    +0.222 HD
ENDBRANCH  22  26
ENDBRANCH  21  22
ENDBRANCH  20  21
ENDBRANCH   4  20
TORSDOF 9
ENDMDL
MODEL 8
REMARK VINA RESULT:      -6.0      3.381      6.416
REMARK  Name = 
REMARK  9 active torsions:
REMARK  status: ('A' for Active; 'I' for Inactive)
REMARK    1  A    between atoms: C_2  and  C_4
REMARK    2  A    between atoms: N_6  and  C_9
REMARK    3  A    between atoms: C_12  and  C_14
REMARK    4  A    between atoms: C_14  and  O_15
REMARK    5  A    between atoms: O_15  and  P_16
REMARK    6  A    between atoms: P_16  and  O_17
REMARK    7  A    between atoms: P_16  and  O_18
REMARK    8  A    between atoms: C_20  and  O_22
REMARK    9  A    between atoms: C_23  and  O_25
REMARK                            x       y       z     vdW  Elec       q    Type
REMARK                         _______ _______ _______ _____ _____    ______ ____
ROOT
ATOM      1  C   UNL     1       9.453  -2.163  23.263  0.00  0.00    +0.270 C 
ATOM      2  C   UNL     1       8.626  -1.516  22.146  0.00  0.00    +0.196 C 
ATOM      3  C   UNL     1       7.968  -0.299  22.806  0.00  0.00    +0.178 C 
ATOM      4  C   UNL     1       8.467  -0.348  24.258  0.00  0.00    +0.178 C 
ATOM      5  O   UNL     1       9.674  -1.121  24.242  0.00  0.00    -0.344 OA
ENDROOT
BRANCH   1   9
ATOM      6  C   UNL     1       7.400  -4.744  24.460  0.00  0.00    +0.236 A 
ATOM      7  N   UNL     1       8.456  -4.921  25.335  0.00  0.00    -0.211 NA
ATOM      8  C   UNL     1       9.318  -4.003  24.974  0.00  0.00    +0.223 A 
ATOM      9  N   UNL     1       8.824  -3.298  23.922  0.00  0.00    -0.220 N 
ATOM     10  N   UNL     1       7.601  -3.745  23.575  0.00  0.00    -0.142 NA
BRANCH   6  14
ATOM     11  N   UNL     1       5.639  -5.811  23.235  0.00  0.00    -0.323 N 
ATOM     12  H   UNL     1       6.135  -5.482  22.413  0.00  0.00    +0.145 HD
ATOM     13  H   UNL     1       4.825  -6.394  23.155  0.00  0.00    +0.145 HD
ATOM     14  C   UNL     1       6.162  -5.550  24.480  0.00  0.00    +0.281 C 
ATOM     15  O   UNL     1       5.619  -5.986  25.489  0.00  0.00    -0.267 OA
ENDBRANCH   6  14
ENDBRANCH   1   9
BRANCH   2  16
ATOM     16  O   UNL     1       9.497  -1.084  21.079  0.00  0.00    -0.385 OA
ATOM     17  H   UNL     1       9.761  -1.859  20.553  0.00  0.00    +0.210 HD
ENDBRANCH   2  16
BRANCH   3  18
ATOM     18  O   UNL     1       6.549  -0.380  22.725  0.00  0.00    -0.386 OA
ATOM     19  H   UNL     1       6.242  -0.925  23.474  0.00  0.00    +0.210 HD
ENDBRANCH   3  18
BRANCH   4  20
ATOM     20  C   UNL     1       8.730   1.032  24.848  0.00  0.00    +0.206 C 
BRANCH  20  21
ATOM     21  O   UNL     1       8.733   1.966  23.788  0.00  0.00    -0.284 OA
BRANCH  21  22
ATOM     22  P   UNL     1      10.132   2.598  23.359  0.00  0.00    +0.472 P 
ATOM     23  O   UNL     1      10.351   4.029  23.703  0.00  0.00    -0.228 OA
BRANCH  22  24
ATOM     24  O   UNL     1      10.229   2.247  21.808  0.00  0.00    -0.303 OA
ATOM     25  H   UNL     1      10.367   3.051  21.272  0.00  0.00    +0.222 HD
ENDBRANCH  22  24
BRANCH  22  26
ATOM     26  O   UNL     1      11.187   1.611  24.035  0.00  0.00    -0.303 OA
ATOM     27  H   UNL     1      12.097   1.930  23.886  0.00  0.00    +0.222 HD
ENDBRANCH  22  26
ENDBRANCH  21  22
ENDBRANCH  20  21
ENDBRANCH   4  20
TORSDOF 9
ENDMDL
MODEL 9
REMARK VINA RESULT:      -6.0      4.092      6.772
REMARK  Name = 
REMARK  9 active torsions:
REMARK  status: ('A' for Active; 'I' for Inactive)
REMARK    1  A    between atoms: C_2  and  C_4
REMARK    2  A    between atoms: N_6  and  C_9
REMARK    3  A    between atoms: C_12  and  C_14
REMARK    4  A    between atoms: C_14  and  O_15
REMARK    5  A    between atoms: O_15  and  P_16
REMARK    6  A    between atoms: P_16  and  O_17
REMARK    7  A    between atoms: P_16  and  O_18
REMARK    8  A    between atoms: C_20  and  O_22
REMARK    9  A    between atoms: C_23  and  O_25
REMARK                            x       y       z     vdW  Elec       q    Type
REMARK                         _______ _______ _______ _____ _____    ______ ____
ROOT
ATOM      1  C   UNL     1       8.352  -3.998  26.004  0.00  0.00    +0.270 C 
ATOM      2  C   UNL     1       8.763  -5.052  24.969  0.00  0.00    +0.196 C 
ATOM      3  C   UNL     1       7.974  -4.685  23.707  0.00  0.00    +0.178 C 
ATOM      4  C   UNL     1       7.163  -3.447  24.122  0.00  0.00    +0.178 C 
ATOM      5  O   UNL     1       7.851  -2.875  25.243  0.00  0.00    -0.344 OA
ENDROOT
BRANCH   1   9
ATOM      6  C   UNL     1       6.225  -5.603  28.286  0.00  0.00    +0.236 A 
ATOM      7  N   UNL     1       5.478  -4.454  28.107  0.00  0.00    -0.211 NA
ATOM      8  C   UNL     1       6.190  -3.745  27.265  0.00  0.00    +0.223 A 
ATOM      9  N   UNL     1       7.326  -4.421  26.945  0.00  0.00    -0.220 N 
ATOM     10  N   UNL     1       7.374  -5.610  27.577  0.00  0.00    -0.142 NA
BRANCH   6  14
ATOM     11  N   UNL     1       4.705  -7.405  28.715  0.00  0.00    -0.323 N 
ATOM     12  H   UNL     1       4.270  -7.126  27.843  0.00  0.00    +0.145 HD
ATOM     13  H   UNL     1       4.390  -8.215  29.220  0.00  0.00    +0.145 HD
ATOM     14  C   UNL     1       5.820  -6.729  29.153  0.00  0.00    +0.281 C 
ATOM     15  O   UNL     1       6.404  -7.081  30.171  0.00  0.00    -0.267 OA
ENDBRANCH   6  14
ENDBRANCH   1   9
BRANCH   2  16
ATOM     16  O   UNL     1      10.179  -4.956  24.707  0.00  0.00    -0.385 OA
ATOM     17  H   UNL     1      10.541  -4.198  25.198  0.00  0.00    +0.210 HD
ENDBRANCH   2  16
BRANCH   3  18
ATOM     18  O   UNL     1       7.134  -5.760  23.299  0.00  0.00    -0.386 OA
ATOM     19  H   UNL     1       6.263  -5.384  23.074  0.00  0.00    +0.210 HD
ENDBRANCH   3  18
BRANCH   4  20
ATOM     20  C   UNL     1       7.025  -2.420  23.005  0.00  0.00    +0.206 C 
BRANCH  20  21
ATOM     21  O   UNL     1       8.215  -2.440  22.244  0.00  0.00    -0.284 OA
BRANCH  21  22
ATOM     22  P   UNL     1       9.329  -1.349  22.578  0.00  0.00    +0.472 P 
ATOM     23  O   UNL     1       9.890  -0.595  21.424  0.00  0.00    -0.228 OA
BRANCH  22  24
ATOM     24  O   UNL     1      10.390  -2.164  23.441  0.00  0.00    -0.303 OA
ATOM     25  H   UNL     1      11.304  -1.963  23.161  0.00  0.00    +0.222 HD
ENDBRANCH  22  24
BRANCH  22  26
ATOM     26  O   UNL     1       8.602  -0.420  23.653  0.00  0.00    -0.303 OA
ATOM     27  H   UNL     1       7.780  -0.840  23.966  0.00  0.00    +0.222 HD
ENDBRANCH  22  26
ENDBRANCH  21  22
ENDBRANCH  20  21
ENDBRANCH   4  20
TORSDOF 9
ENDMDL
