MODEL 1
REMARK VINA RESULT:      -7.2      0.000      0.000
REMARK  Name = 
REMARK  8 active torsions:
REMARK  status: ('A' for Active; 'I' for Inactive)
REMARK    1  A    between atoms: N_1  and  C_2
REMARK    2  A    between atoms: C_7  and  C_11
REMARK    3  A    between atoms: C_13  and  C_14
REMARK    4  A    between atoms: C_14  and  C_15
REMARK    5  A    between atoms: C_15  and  O_16
REMARK    6  A    between atoms: C_19  and  C_22
REMARK    7  A    between atoms: C_20  and  O_21
REMARK    8  A    between atoms: C_26  and  N_28
REMARK                            x       y       z     vdW  Elec       q    Type
REMARK                         _______ _______ _______ _____ _____    ______ ____
ROOT
ATOM      1  C   UNL     1       8.179  -2.762  24.602  0.00  0.00    +0.041 A 
ATOM      2  C   UNL     1       7.522  -3.363  25.710  0.00  0.00    +0.134 A 
ATOM      3  C   UNL     1       6.942  -4.656  25.652  0.00  0.00    +0.025 A 
ATOM      4  C   UNL     1       7.056  -5.330  24.415  0.00  0.00    +0.016 A 
ATOM      5  C   UNL     1       7.617  -4.737  23.268  0.00  0.00    -0.035 A 
ATOM      6  C   UNL     1       8.185  -3.462  23.383  0.00  0.00    +0.017 A 
ENDROOT
BRANCH   1  13
ATOM      7  C   UNL     1      10.259   2.768  23.830  0.00  0.00    +0.117 A 
ATOM      8  N   UNL     1      10.684   1.496  23.748  0.00  0.00    -0.231 NA
ATOM      9  C   UNL     1       9.828   0.566  24.232  0.00  0.00    +0.091 A 
ATOM     10  C   UNL     1       8.611   0.883  24.821  0.00  0.00    +0.066 A 
ATOM     11  N   UNL     1       8.006  -0.306  25.139  0.00  0.00    -0.353 N 
ATOM     12  H   UNL     1       7.085  -0.399  25.549  0.00  0.00    +0.166 HD
ATOM     13  C   UNL     1       8.721  -1.383  24.642  0.00  0.00    +0.053 A 
ATOM     14  C   UNL     1       8.196   2.203  24.956  0.00  0.00    +0.031 A 
ATOM     15  C   UNL     1       9.922  -0.848  24.189  0.00  0.00    +0.056 A 
ATOM     16  C   UNL     1       9.054   3.157  24.411  0.00  0.00    +0.045 A 
BRANCH   7  17
ATOM     17  N   UNL     1      11.054   3.729  23.198  0.00  0.00    -0.343 N 
ATOM     18  H   UNL     1      12.009   3.588  23.518  0.00  0.00    +0.144 HD
ATOM     19  H   UNL     1      10.722   4.670  23.358  0.00  0.00    +0.144 HD
ENDBRANCH   7  17
ENDBRANCH   1  13
BRANCH   3  20
ATOM     20  C   UNL     1       6.141  -5.277  26.763  0.00  0.00    -0.008 A 
ATOM     21  C   UNL     1       4.756  -5.519  26.676  0.00  0.00    +0.093 A 
ATOM     22  C   UNL     1       4.073  -6.223  27.691  0.00  0.00    +0.274 A 
ATOM     23  C   UNL     1       4.733  -6.625  28.855  0.00  0.00    +0.084 A 
ATOM     24  C   UNL     1       6.084  -6.345  28.991  0.00  0.00    +0.007 A 
ATOM     25  C   UNL     1       6.775  -5.703  27.954  0.00  0.00    +0.009 A 
BRANCH  22  26
ATOM     26  N   UNL     1       2.664  -6.595  27.503  0.00  0.00    +0.080 N 
ATOM     27  O   UNL     1       2.144  -6.341  26.408  0.00  0.00    +0.041 OA
ATOM     28  O   UNL     1       2.088  -7.168  28.439  0.00  0.00    -0.576 OA
ENDBRANCH  22  26
ENDBRANCH   3  20
BRANCH   2  29
ATOM     29  O   UNL     1       7.376  -2.591  26.845  0.00  0.00    -0.505 OA
ATOM     30  H   UNL     1       8.213  -2.667  27.340  0.00  0.00    +0.292 HD
ENDBRANCH   2  29
BRANCH   5  31
ATOM     31  C   UNL     1       7.422  -5.396  21.913  0.00  0.00    +0.155 C 
BRANCH  31  32
ATOM     32  C   UNL     1       6.096  -5.282  21.198  0.00  0.00    +0.309 C 
ATOM     33  O   UNL     1       5.724  -4.223  20.695  0.00  0.00    -0.251 OA
BRANCH  32  34
ATOM     34  O   UNL     1       5.323  -6.381  21.151  0.00  0.00    -0.480 OA
ATOM     35  H   UNL     1       5.022  -6.643  20.262  0.00  0.00    +0.295 HD
ENDBRANCH  32  34
ENDBRANCH  31  32
ENDBRANCH   5  31
TORSDOF 8
ENDMDL
MODEL 2
REMARK VINA RESULT:      -7.2      4.392      9.912
REMARK  Name = 
REMARK  8 active torsions:
REMARK  status: ('A' for Active; 'I' for Inactive)
REMARK    1  A    between atoms: N_1  and  C_2
REMARK    2  A    between atoms: C_7  and  C_11
REMARK    3  A    between atoms: C_13  and  C_14
REMARK    4  A    between atoms: C_14  and  C_15
REMARK    5  A    between atoms: C_15  and  O_16
REMARK    6  A    between atoms: C_19  and  C_22
REMARK    7  A    between atoms: C_20  and  O_21
REMARK    8  A    between atoms: C_26  and  N_28
REMARK                            x       y       z     vdW  Elec       q    Type
REMARK                         _______ _______ _______ _____ _____    ______ ____
ROOT
ATOM      1  C   UNL     1       8.031   0.875  24.206  0.00  0.00    +0.041 A 
ATOM      2  C   UNL     1       9.011   1.883  24.418  0.00  0.00    +0.134 A 
ATOM      3  C   UNL     1       8.814   3.238  24.046  0.00  0.00    +0.025 A 
ATOM      4  C   UNL     1       7.569   3.540  23.448  0.00  0.00    +0.016 A 
ATOM      5  C   UNL     1       6.610   2.559  23.137  0.00  0.00    -0.035 A 
ATOM      6  C   UNL     1       6.850   1.238  23.536  0.00  0.00    +0.017 A 
ENDROOT
BRANCH   1  13
ATOM      7  C   UNL     1       8.160  -4.817  25.962  0.00  0.00    +0.117 A 
ATOM      8  N   UNL     1       8.435  -3.593  26.443  0.00  0.00    -0.231 NA
ATOM      9  C   UNL     1       8.413  -2.593  25.531  0.00  0.00    +0.091 A 
ATOM     10  C   UNL     1       8.173  -2.798  24.180  0.00  0.00    +0.066 A 
ATOM     11  N   UNL     1       8.179  -1.563  23.585  0.00  0.00    -0.353 N 
ATOM     12  H   UNL     1       7.995  -1.386  22.606  0.00  0.00    +0.166 HD
ATOM     13  C   UNL     1       8.266  -0.552  24.529  0.00  0.00    +0.053 A 
ATOM     14  C   UNL     1       7.943  -4.073  23.672  0.00  0.00    +0.031 A 
ATOM     15  C   UNL     1       8.542  -1.195  25.730  0.00  0.00    +0.056 A 
ATOM     16  C   UNL     1       7.915  -5.096  24.619  0.00  0.00    +0.045 A 
BRANCH   7  17
ATOM     17  N   UNL     1       8.024  -5.839  26.907  0.00  0.00    -0.343 N 
ATOM     18  H   UNL     1       7.029  -6.018  27.016  0.00  0.00    +0.144 HD
ATOM     19  H   UNL     1       8.482  -5.619  27.781  0.00  0.00    +0.144 HD
ENDBRANCH   7  17
ENDBRANCH   1  13
BRANCH   3  20
ATOM     20  C   UNL     1       9.866   4.307  24.148  0.00  0.00    -0.008 A 
ATOM     21  C   UNL     1      11.111   4.232  23.494  0.00  0.00    +0.093 A 
ATOM     22  C   UNL     1      12.013   5.318  23.512  0.00  0.00    +0.274 A 
ATOM     23  C   UNL     1      11.735   6.469  24.253  0.00  0.00    +0.084 A 
ATOM     24  C   UNL     1      10.541   6.543  24.956  0.00  0.00    +0.007 A 
ATOM     25  C   UNL     1       9.620   5.490  24.884  0.00  0.00    +0.009 A 
BRANCH  22  26
ATOM     26  N   UNL     1      13.234   5.271  22.696  0.00  0.00    +0.080 N 
ATOM     27  O   UNL     1      13.145   5.614  21.509  0.00  0.00    +0.041 OA
ATOM     28  O   UNL     1      14.286   4.921  23.250  0.00  0.00    -0.576 OA
ENDBRANCH  22  26
ENDBRANCH   3  20
BRANCH   2  29
ATOM     29  O   UNL     1      10.231   1.476  24.920  0.00  0.00    -0.505 OA
ATOM     30  H   UNL     1      10.369   1.975  25.746  0.00  0.00    +0.292 HD
ENDBRANCH   2  29
BRANCH   5  31
ATOM     31  C   UNL     1       5.449   2.909  22.222  0.00  0.00    +0.155 C 
BRANCH  31  32
ATOM     32  C   UNL     1       4.200   3.544  22.788  0.00  0.00    +0.309 C 
ATOM     33  O   UNL     1       4.100   4.762  22.918  0.00  0.00    -0.251 OA
BRANCH  32  34
ATOM     34  O   UNL     1       3.207   2.721  23.168  0.00  0.00    -0.480 OA
ATOM     35  H   UNL     1       3.054   1.955  22.586  0.00  0.00    +0.295 HD
ENDBRANCH  32  34
ENDBRANCH  31  32
ENDBRANCH   5  31
TORSDOF 8
ENDMDL
MODEL 3
REMARK VINA RESULT:      -7.2      1.564      1.885
REMARK  Name = 
REMARK  8 active torsions:
REMARK  status: ('A' for Active; 'I' for Inactive)
REMARK    1  A    between atoms: N_1  and  C_2
REMARK    2  A    between atoms: C_7  and  C_11
REMARK    3  A    between atoms: C_13  and  C_14
REMARK    4  A    between atoms: C_14  and  C_15
REMARK    5  A    between atoms: C_15  and  O_16
REMARK    6  A    between atoms: C_19  and  C_22
REMARK    7  A    between atoms: C_20  and  O_21
REMARK    8  A    between atoms: C_26  and  N_28
REMARK                            x       y       z     vdW  Elec       q    Type
REMARK                         _______ _______ _______ _____ _____    ______ ____
ROOT
ATOM      1  C   UNL     1       8.079  -2.096  24.715  0.00  0.00    +0.041 A 
ATOM      2  C   UNL     1       7.220  -2.517  25.768  0.00  0.00    +0.134 A 
ATOM      3  C   UNL     1       6.556  -3.770  25.763  0.00  0.00    +0.025 A 
ATOM      4  C   UNL     1       6.799  -4.595  24.641  0.00  0.00    +0.016 A 
ATOM      5  C   UNL     1       7.568  -4.181  23.537  0.00  0.00    -0.035 A 
ATOM      6  C   UNL     1       8.210  -2.938  23.598  0.00  0.00    +0.017 A 
ENDROOT
BRANCH   1  13
ATOM      7  C   UNL     1      10.628   3.187  23.666  0.00  0.00    +0.117 A 
ATOM      8  N   UNL     1      10.963   1.888  23.744  0.00  0.00    -0.231 NA
ATOM      9  C   UNL     1       9.998   1.067  24.219  0.00  0.00    +0.091 A 
ATOM     10  C   UNL     1       8.757   1.517  24.648  0.00  0.00    +0.066 A 
ATOM     11  N   UNL     1       8.037   0.407  25.008  0.00  0.00    -0.353 N 
ATOM     12  H   UNL     1       7.077   0.414  25.327  0.00  0.00    +0.166 HD
ATOM     13  C   UNL     1       8.715  -0.757  24.687  0.00  0.00    +0.053 A 
ATOM     14  C   UNL     1       8.429   2.869  24.619  0.00  0.00    +0.031 A 
ATOM     15  C   UNL     1       9.990  -0.348  24.314  0.00  0.00    +0.056 A 
ATOM     16  C   UNL     1       9.404   3.708  24.082  0.00  0.00    +0.045 A 
BRANCH   7  17
ATOM     17  N   UNL     1      11.549   4.029  23.035  0.00  0.00    -0.343 N 
ATOM     18  H   UNL     1      12.382   4.053  23.617  0.00  0.00    +0.144 HD
ATOM     19  H   UNL     1      11.170   4.948  22.854  0.00  0.00    +0.144 HD
ENDBRANCH   7  17
ENDBRANCH   1  13
BRANCH   3  20
ATOM     20  C   UNL     1       5.554  -4.202  26.797  0.00  0.00    -0.008 A 
ATOM     21  C   UNL     1       5.846  -5.123  27.821  0.00  0.00    +0.093 A 
ATOM     22  C   UNL     1       4.914  -5.398  28.844  0.00  0.00    +0.274 A 
ATOM     23  C   UNL     1       3.638  -4.831  28.825  0.00  0.00    +0.084 A 
ATOM     24  C   UNL     1       3.304  -3.966  27.792  0.00  0.00    +0.007 A 
ATOM     25  C   UNL     1       4.253  -3.645  26.813  0.00  0.00    +0.009 A 
BRANCH  22  26
ATOM     26  N   UNL     1       5.302  -6.243  29.982  0.00  0.00    +0.080 N 
ATOM     27  O   UNL     1       4.502  -7.114  30.351  0.00  0.00    +0.041 OA
ATOM     28  O   UNL     1       6.420  -6.058  30.485  0.00  0.00    -0.576 OA
ENDBRANCH  22  26
ENDBRANCH   3  20
BRANCH   2  29
ATOM     29  O   UNL     1       6.968  -1.606  26.773  0.00  0.00    -0.505 OA
ATOM     30  H   UNL     1       6.401  -2.062  27.422  0.00  0.00    +0.292 HD
ENDBRANCH   2  29
BRANCH   5  31
ATOM     31  C   UNL     1       7.524  -4.986  22.250  0.00  0.00    +0.155 C 
BRANCH  31  32
ATOM     32  C   UNL     1       6.221  -5.155  21.504  0.00  0.00    +0.309 C 
ATOM     33  O   UNL     1       5.674  -4.208  20.941  0.00  0.00    -0.251 OA
BRANCH  32  34
ATOM     34  O   UNL     1       5.667  -6.380  21.498  0.00  0.00    -0.480 OA
ATOM     35  H   UNL     1       5.553  -6.783  20.619  0.00  0.00    +0.295 HD
ENDBRANCH  32  34
ENDBRANCH  31  32
ENDBRANCH   5  31
TORSDOF 8
ENDMDL
MODEL 4
REMARK VINA RESULT:      -7.0      3.035      4.762
REMARK  Name = 
REMARK  8 active torsions:
REMARK  status: ('A' for Active; 'I' for Inactive)
REMARK    1  A    between atoms: N_1  and  C_2
REMARK    2  A    between atoms: C_7  and  C_11
REMARK    3  A    between atoms: C_13  and  C_14
REMARK    4  A    between atoms: C_14  and  C_15
REMARK    5  A    between atoms: C_15  and  O_16
REMARK    6  A    between atoms: C_19  and  C_22
REMARK    7  A    between atoms: C_20  and  O_21
REMARK    8  A    between atoms: C_26  and  N_28
REMARK                            x       y       z     vdW  Elec       q    Type
REMARK                         _______ _______ _______ _____ _____    ______ ____
ROOT
ATOM      1  C   UNL     1       6.128  -3.678  24.419  0.00  0.00    +0.041 A 
ATOM      2  C   UNL     1       5.031  -4.470  23.981  0.00  0.00    +0.134 A 
ATOM      3  C   UNL     1       4.516  -5.554  24.737  0.00  0.00    +0.025 A 
ATOM      4  C   UNL     1       5.158  -5.809  25.971  0.00  0.00    +0.016 A 
ATOM      5  C   UNL     1       6.302  -5.109  26.399  0.00  0.00    -0.035 A 
ATOM      6  C   UNL     1       6.763  -4.041  25.619  0.00  0.00    +0.017 A 
ENDROOT
BRANCH   1  13
ATOM      7  C   UNL     1       8.740   1.063  21.928  0.00  0.00    +0.117 A 
ATOM      8  N   UNL     1       7.582   0.729  22.522  0.00  0.00    -0.231 NA
ATOM      9  C   UNL     1       7.409  -0.594  22.752  0.00  0.00    +0.091 A 
ATOM     10  C   UNL     1       8.326  -1.561  22.368  0.00  0.00    +0.066 A 
ATOM     11  N   UNL     1       7.839  -2.765  22.809  0.00  0.00    -0.353 N 
ATOM     12  H   UNL     1       8.309  -3.655  22.710  0.00  0.00    +0.166 HD
ATOM     13  C   UNL     1       6.712  -2.592  23.596  0.00  0.00    +0.053 A 
ATOM     14  C   UNL     1       9.500  -1.221  21.703  0.00  0.00    +0.031 A 
ATOM     15  C   UNL     1       6.368  -1.252  23.455  0.00  0.00    +0.056 A 
ATOM     16  C   UNL     1       9.703   0.145  21.512  0.00  0.00    +0.045 A 
BRANCH   7  17
ATOM     17  N   UNL     1       9.010   2.431  21.821  0.00  0.00    -0.343 N 
ATOM     18  H   UNL     1       8.124   2.921  21.912  0.00  0.00    +0.144 HD
ATOM     19  H   UNL     1       9.500   2.661  20.967  0.00  0.00    +0.144 HD
ENDBRANCH   7  17
ENDBRANCH   1  13
BRANCH   3  20
ATOM     20  C   UNL     1       3.436  -6.484  24.258  0.00  0.00    -0.008 A 
ATOM     21  C   UNL     1       3.025  -7.626  24.973  0.00  0.00    +0.093 A 
ATOM     22  C   UNL     1       1.920  -8.394  24.549  0.00  0.00    +0.274 A 
ATOM     23  C   UNL     1       1.252  -8.096  23.359  0.00  0.00    +0.084 A 
ATOM     24  C   UNL     1       1.677  -7.012  22.605  0.00  0.00    +0.007 A 
ATOM     25  C   UNL     1       2.733  -6.212  23.061  0.00  0.00    +0.009 A 
BRANCH  22  26
ATOM     26  N   UNL     1       1.419  -9.486  25.395  0.00  0.00    +0.080 N 
ATOM     27  O   UNL     1       0.563  -9.207  26.246  0.00  0.00    +0.041 OA
ATOM     28  O   UNL     1       1.858 -10.626  25.187  0.00  0.00    -0.576 OA
ENDBRANCH  22  26
ENDBRANCH   3  20
BRANCH   2  29
ATOM     29  O   UNL     1       4.532  -4.208  22.722  0.00  0.00    -0.505 OA
ATOM     30  H   UNL     1       3.707  -4.721  22.641  0.00  0.00    +0.292 HD
ENDBRANCH   2  29
BRANCH   5  31
ATOM     31  C   UNL     1       7.112  -5.642  27.568  0.00  0.00    +0.155 C 
BRANCH  31  32
ATOM     32  C   UNL     1       6.412  -6.200  28.785  0.00  0.00    +0.309 C 
ATOM     33  O   UNL     1       6.307  -7.411  28.969  0.00  0.00    -0.251 OA
BRANCH  32  34
ATOM     34  O   UNL     1       5.884  -5.318  29.652  0.00  0.00    -0.480 OA
ATOM     35  H   UNL     1       4.916  -5.217  29.609  0.00  0.00    +0.295 HD
ENDBRANCH  32  34
ENDBRANCH  31  32
ENDBRANCH   5  31
TORSDOF 8
ENDMDL
MODEL 5
REMARK VINA RESULT:      -6.9      1.871      1.973
REMARK  Name = 
REMARK  8 active torsions:
REMARK  status: ('A' for Active; 'I' for Inactive)
REMARK    1  A    between atoms: N_1  and  C_2
REMARK    2  A    between atoms: C_7  and  C_11
REMARK    3  A    between atoms: C_13  and  C_14
REMARK    4  A    between atoms: C_14  and  C_15
REMARK    5  A    between atoms: C_15  and  O_16
REMARK    6  A    between atoms: C_19  and  C_22
REMARK    7  A    between atoms: C_20  and  O_21
REMARK    8  A    between atoms: C_26  and  N_28
REMARK                            x       y       z     vdW  Elec       q    Type
REMARK                         _______ _______ _______ _____ _____    ______ ____
ROOT
ATOM      1  C   UNL     1       7.902  -2.460  23.878  0.00  0.00    +0.041 A 
ATOM      2  C   UNL     1       7.449  -2.815  25.179  0.00  0.00    +0.134 A 
ATOM      3  C   UNL     1       7.067  -4.136  25.527  0.00  0.00    +0.025 A 
ATOM      4  C   UNL     1       7.165  -5.099  24.497  0.00  0.00    +0.016 A 
ATOM      5  C   UNL     1       7.520  -4.775  23.174  0.00  0.00    -0.035 A 
ATOM      6  C   UNL     1       7.898  -3.457  22.887  0.00  0.00    +0.017 A 
ENDROOT
BRANCH   1  13
ATOM      7  C   UNL     1       8.454   3.378  22.822  0.00  0.00    +0.117 A 
ATOM      8  N   UNL     1       7.774   2.315  22.358  0.00  0.00    -0.231 NA
ATOM      9  C   UNL     1       8.171   1.116  22.845  0.00  0.00    +0.091 A 
ATOM     10  C   UNL     1       9.233   0.963  23.724  0.00  0.00    +0.066 A 
ATOM     11  N   UNL     1       9.304  -0.372  24.030  0.00  0.00    -0.353 N 
ATOM     12  H   UNL     1       9.959  -0.786  24.680  0.00  0.00    +0.166 HD
ATOM     13  C   UNL     1       8.231  -1.066  23.496  0.00  0.00    +0.053 A 
ATOM     14  C   UNL     1       9.973   2.057  24.161  0.00  0.00    +0.031 A 
ATOM     15  C   UNL     1       7.595  -0.165  22.651  0.00  0.00    +0.056 A 
ATOM     16  C   UNL     1       9.532   3.298  23.701  0.00  0.00    +0.045 A 
BRANCH   7  17
ATOM     17  N   UNL     1       7.964   4.635  22.456  0.00  0.00    -0.343 N 
ATOM     18  H   UNL     1       6.955   4.615  22.585  0.00  0.00    +0.144 HD
ATOM     19  H   UNL     1       8.235   4.897  21.518  0.00  0.00    +0.144 HD
ENDBRANCH   7  17
ENDBRANCH   1  13
BRANCH   3  20
ATOM     20  C   UNL     1       6.476  -4.527  26.853  0.00  0.00    -0.008 A 
ATOM     21  C   UNL     1       5.404  -3.840  27.455  0.00  0.00    +0.093 A 
ATOM     22  C   UNL     1       4.799  -4.322  28.635  0.00  0.00    +0.274 A 
ATOM     23  C   UNL     1       5.301  -5.449  29.291  0.00  0.00    +0.084 A 
ATOM     24  C   UNL     1       6.395  -6.108  28.750  0.00  0.00    +0.007 A 
ATOM     25  C   UNL     1       6.954  -5.665  27.544  0.00  0.00    +0.009 A 
BRANCH  22  26
ATOM     26  N   UNL     1       3.588  -3.673  29.155  0.00  0.00    +0.080 N 
ATOM     27  O   UNL     1       2.493  -4.111  28.774  0.00  0.00    +0.041 OA
ATOM     28  O   UNL     1       3.731  -2.749  29.968  0.00  0.00    -0.576 OA
ENDBRANCH  22  26
ENDBRANCH   3  20
BRANCH   2  29
ATOM     29  O   UNL     1       7.295  -1.790  26.090  0.00  0.00    -0.505 OA
ATOM     30  H   UNL     1       8.113  -1.768  26.621  0.00  0.00    +0.292 HD
ENDBRANCH   2  29
BRANCH   5  31
ATOM     31  C   UNL     1       7.300  -5.792  22.068  0.00  0.00    +0.155 C 
BRANCH  31  32
ATOM     32  C   UNL     1       6.001  -5.805  21.296  0.00  0.00    +0.309 C 
ATOM     33  O   UNL     1       5.968  -5.575  20.089  0.00  0.00    -0.251 OA
BRANCH  32  34
ATOM     34  O   UNL     1       4.875  -6.056  21.987  0.00  0.00    -0.480 OA
ATOM     35  H   UNL     1       4.489  -5.291  22.449  0.00  0.00    +0.295 HD
ENDBRANCH  32  34
ENDBRANCH  31  32
ENDBRANCH   5  31
TORSDOF 8
ENDMDL
MODEL 6
REMARK VINA RESULT:      -6.8      4.606      9.013
REMARK  Name = 
REMARK  8 active torsions:
REMARK  status: ('A' for Active; 'I' for Inactive)
REMARK    1  A    between atoms: N_1  and  C_2
REMARK    2  A    between atoms: C_7  and  C_11
REMARK    3  A    between atoms: C_13  and  C_14
REMARK    4  A    between atoms: C_14  and  C_15
REMARK    5  A    between atoms: C_15  and  O_16
REMARK    6  A    between atoms: C_19  and  C_22
REMARK    7  A    between atoms: C_20  and  O_21
REMARK    8  A    between atoms: C_26  and  N_28
REMARK                            x       y       z     vdW  Elec       q    Type
REMARK                         _______ _______ _______ _____ _____    ______ ____
ROOT
ATOM      1  C   UNL     1       8.805   0.718  23.259  0.00  0.00    +0.041 A 
ATOM      2  C   UNL     1       7.626   1.476  23.015  0.00  0.00    +0.134 A 
ATOM      3  C   UNL     1       7.638   2.883  22.841  0.00  0.00    +0.025 A 
ATOM      4  C   UNL     1       8.906   3.505  22.921  0.00  0.00    +0.016 A 
ATOM      5  C   UNL     1      10.083   2.808  23.250  0.00  0.00    -0.035 A 
ATOM      6  C   UNL     1      10.016   1.416  23.401  0.00  0.00    +0.017 A 
ENDROOT
BRANCH   1  13
ATOM      7  C   UNL     1       9.197  -4.949  25.054  0.00  0.00    +0.117 A 
ATOM      8  N   UNL     1       9.937  -4.026  24.419  0.00  0.00    -0.231 NA
ATOM      9  C   UNL     1       9.281  -2.891  24.077  0.00  0.00    +0.091 A 
ATOM     10  C   UNL     1       7.928  -2.693  24.312  0.00  0.00    +0.066 A 
ATOM     11  N   UNL     1       7.634  -1.425  23.881  0.00  0.00    -0.353 N 
ATOM     12  H   UNL     1       6.729  -0.980  23.956  0.00  0.00    +0.166 HD
ATOM     13  C   UNL     1       8.781  -0.742  23.512  0.00  0.00    +0.053 A 
ATOM     14  C   UNL     1       7.149  -3.672  24.920  0.00  0.00    +0.031 A 
ATOM     15  C   UNL     1       9.792  -1.696  23.512  0.00  0.00    +0.056 A 
ATOM     16  C   UNL     1       7.835  -4.819  25.319  0.00  0.00    +0.045 A 
BRANCH   7  17
ATOM     17  N   UNL     1       9.885  -6.059  25.554  0.00  0.00    -0.343 N 
ATOM     18  H   UNL     1      10.858  -5.961  25.276  0.00  0.00    +0.144 HD
ATOM     19  H   UNL     1       9.477  -6.934  25.253  0.00  0.00    +0.144 HD
ENDBRANCH   7  17
ENDBRANCH   1  13
BRANCH   3  20
ATOM     20  C   UNL     1       6.405   3.731  22.696  0.00  0.00    -0.008 A 
ATOM     21  C   UNL     1       5.125   3.199  22.449  0.00  0.00    +0.093 A 
ATOM     22  C   UNL     1       3.979   4.023  22.452  0.00  0.00    +0.274 A 
ATOM     23  C   UNL     1       4.089   5.406  22.612  0.00  0.00    +0.084 A 
ATOM     24  C   UNL     1       5.347   5.962  22.797  0.00  0.00    +0.007 A 
ATOM     25  C   UNL     1       6.476   5.135  22.858  0.00  0.00    +0.009 A 
BRANCH  22  26
ATOM     26  N   UNL     1       2.643   3.420  22.345  0.00  0.00    +0.080 N 
ATOM     27  O   UNL     1       2.220   2.785  23.321  0.00  0.00    +0.041 OA
ATOM     28  O   UNL     1       2.006   3.609  21.299  0.00  0.00    -0.576 OA
ENDBRANCH  22  26
ENDBRANCH   3  20
BRANCH   2  29
ATOM     29  O   UNL     1       6.426   0.795  23.049  0.00  0.00    -0.505 OA
ATOM     30  H   UNL     1       6.320   0.470  23.963  0.00  0.00    +0.292 HD
ENDBRANCH   2  29
BRANCH   5  31
ATOM     31  C   UNL     1      11.334   3.584  23.623  0.00  0.00    +0.155 C 
BRANCH  31  32
ATOM     32  C   UNL     1      11.388   5.080  23.418  0.00  0.00    +0.309 C 
ATOM     33  O   UNL     1      10.875   5.858  24.221  0.00  0.00    -0.251 OA
BRANCH  32  34
ATOM     34  O   UNL     1      12.001   5.530  22.310  0.00  0.00    -0.480 OA
ATOM     35  H   UNL     1      12.633   6.259  22.448  0.00  0.00    +0.295 HD
ENDBRANCH  32  34
ENDBRANCH  31  32
ENDBRANCH   5  31
TORSDOF 8
ENDMDL
MODEL 7
REMARK VINA RESULT:      -6.8      5.390      8.975
REMARK  Name = 
REMARK  8 active torsions:
REMARK  status: ('A' for Active; 'I' for Inactive)
REMARK    1  A    between atoms: N_1  and  C_2
REMARK    2  A    between atoms: C_7  and  C_11
REMARK    3  A    between atoms: C_13  and  C_14
REMARK    4  A    between atoms: C_14  and  C_15
REMARK    5  A    between atoms: C_15  and  O_16
REMARK    6  A    between atoms: C_19  and  C_22
REMARK    7  A    between atoms: C_20  and  O_21
REMARK    8  A    between atoms: C_26  and  N_28
REMARK                            x       y       z     vdW  Elec       q    Type
REMARK                         _______ _______ _______ _____ _____    ______ ____
ROOT
ATOM      1  C   UNL     1       8.736   4.519  25.008  0.00  0.00    +0.041 A 
ATOM      2  C   UNL     1       8.766   3.160  24.588  0.00  0.00    +0.134 A 
ATOM      3  C   UNL     1       9.824   2.617  23.816  0.00  0.00    +0.025 A 
ATOM      4  C   UNL     1      10.869   3.509  23.483  0.00  0.00    +0.016 A 
ATOM      5  C   UNL     1      10.836   4.880  23.800  0.00  0.00    -0.035 A 
ATOM      6  C   UNL     1       9.772   5.363  24.573  0.00  0.00    +0.017 A 
ENDROOT
BRANCH   1  13
ATOM      7  C   UNL     1       3.616   6.496  27.325  0.00  0.00    +0.117 A 
ATOM      8  N   UNL     1       4.498   6.825  26.366  0.00  0.00    -0.231 NA
ATOM      9  C   UNL     1       5.650   6.115  26.370  0.00  0.00    +0.091 A 
ATOM     10  C   UNL     1       5.945   5.144  27.317  0.00  0.00    +0.066 A 
ATOM     11  N   UNL     1       7.161   4.613  26.973  0.00  0.00    -0.353 N 
ATOM     12  H   UNL     1       7.623   3.855  27.457  0.00  0.00    +0.166 HD
ATOM     13  C   UNL     1       7.596   5.103  25.752  0.00  0.00    +0.053 A 
ATOM     14  C   UNL     1       5.055   4.843  28.343  0.00  0.00    +0.031 A 
ATOM     15  C   UNL     1       6.718   6.135  25.437  0.00  0.00    +0.056 A 
ATOM     16  C   UNL     1       3.846   5.537  28.308  0.00  0.00    +0.045 A 
BRANCH   7  17
ATOM     17  N   UNL     1       2.359   7.104  27.247  0.00  0.00    -0.343 N 
ATOM     18  H   UNL     1       2.500   8.104  27.364  0.00  0.00    +0.144 HD
ATOM     19  H   UNL     1       1.702   6.720  27.912  0.00  0.00    +0.144 HD
ENDBRANCH   7  17
ENDBRANCH   1  13
BRANCH   3  20
ATOM     20  C   UNL     1       9.836   1.221  23.257  0.00  0.00    -0.008 A 
ATOM     21  C   UNL     1       9.855   0.065  24.061  0.00  0.00    +0.093 A 
ATOM     22  C   UNL     1       9.733  -1.221  23.494  0.00  0.00    +0.274 A 
ATOM     23  C   UNL     1       9.679  -1.393  22.109  0.00  0.00    +0.084 A 
ATOM     24  C   UNL     1       9.719  -0.273  21.292  0.00  0.00    +0.007 A 
ATOM     25  C   UNL     1       9.776   1.007  21.860  0.00  0.00    +0.009 A 
BRANCH  22  26
ATOM     26  N   UNL     1       9.601  -2.397  24.365  0.00  0.00    +0.080 N 
ATOM     27  O   UNL     1      10.199  -3.430  24.032  0.00  0.00    +0.041 OA
ATOM     28  O   UNL     1       8.926  -2.278  25.398  0.00  0.00    -0.576 OA
ENDBRANCH  22  26
ENDBRANCH   3  20
BRANCH   2  29
ATOM     29  O   UNL     1       7.658   2.391  24.878  0.00  0.00    -0.505 OA
ATOM     30  H   UNL     1       7.968   1.668  25.456  0.00  0.00    +0.292 HD
ENDBRANCH   2  29
BRANCH   5  31
ATOM     31  C   UNL     1      11.828   5.825  23.143  0.00  0.00    +0.155 C 
BRANCH  31  32
ATOM     32  C   UNL     1      13.124   5.291  22.578  0.00  0.00    +0.309 C 
ATOM     33  O   UNL     1      13.310   5.207  21.366  0.00  0.00    -0.251 OA
BRANCH  32  34
ATOM     34  O   UNL     1      14.061   4.889  23.454  0.00  0.00    -0.480 OA
ATOM     35  H   UNL     1      14.136   5.428  24.263  0.00  0.00    +0.295 HD
ENDBRANCH  32  34
ENDBRANCH  31  32
ENDBRANCH   5  31
TORSDOF 8
ENDMDL
MODEL 8
REMARK VINA RESULT:      -6.7      2.942      3.818
REMARK  Name = 
REMARK  8 active torsions:
REMARK  status: ('A' for Active; 'I' for Inactive)
REMARK    1  A    between atoms: N_1  and  C_2
REMARK    2  A    between atoms: C_7  and  C_11
REMARK    3  A    between atoms: C_13  and  C_14
REMARK    4  A    between atoms: C_14  and  C_15
REMARK    5  A    between atoms: C_15  and  O_16
REMARK    6  A    between atoms: C_19  and  C_22
REMARK    7  A    between atoms: C_20  and  O_21
REMARK    8  A    between atoms: C_26  and  N_28
REMARK                            x       y       z     vdW  Elec       q    Type
REMARK                         _______ _______ _______ _____ _____    ______ ____
ROOT
ATOM      1  C   UNL     1       7.405  -0.911  25.913  0.00  0.00    +0.041 A 
ATOM      2  C   UNL     1       6.043  -1.252  25.689  0.00  0.00    +0.134 A 
ATOM      3  C   UNL     1       5.541  -2.567  25.861  0.00  0.00    +0.025 A 
ATOM      4  C   UNL     1       6.480  -3.539  26.276  0.00  0.00    +0.016 A 
ATOM      5  C   UNL     1       7.853  -3.265  26.420  0.00  0.00    -0.035 A 
ATOM      6  C   UNL     1       8.294  -1.946  26.249  0.00  0.00    +0.017 A 
ENDROOT
BRANCH   1  13
ATOM      7  C   UNL     1       9.113   4.498  24.091  0.00  0.00    +0.117 A 
ATOM      8  N   UNL     1       9.449   3.209  23.919  0.00  0.00    -0.231 NA
ATOM      9  C   UNL     1       8.835   2.333  24.749  0.00  0.00    +0.091 A 
ATOM     10  C   UNL     1       7.953   2.720  25.747  0.00  0.00    +0.066 A 
ATOM     11  N   UNL     1       7.499   1.570  26.341  0.00  0.00    -0.353 N 
ATOM     12  H   UNL     1       6.812   1.530  27.083  0.00  0.00    +0.166 HD
ATOM     13  C   UNL     1       7.944   0.447  25.663  0.00  0.00    +0.053 A 
ATOM     14  C   UNL     1       7.647   4.060  25.963  0.00  0.00    +0.031 A 
ATOM     15  C   UNL     1       8.880   0.916  24.749  0.00  0.00    +0.056 A 
ATOM     16  C   UNL     1       8.239   4.957  25.074  0.00  0.00    +0.045 A 
BRANCH   7  17
ATOM     17  N   UNL     1       9.613   5.401  23.148  0.00  0.00    -0.343 N 
ATOM     18  H   UNL     1       9.094   6.269  23.255  0.00  0.00    +0.144 HD
ATOM     19  H   UNL     1       9.575   5.036  22.206  0.00  0.00    +0.144 HD
ENDBRANCH   7  17
ENDBRANCH   1  13
BRANCH   3  20
ATOM     20  C   UNL     1       4.137  -2.990  25.526  0.00  0.00    -0.008 A 
ATOM     21  C   UNL     1       3.820  -3.826  24.437  0.00  0.00    +0.093 A 
ATOM     22  C   UNL     1       2.506  -4.301  24.241  0.00  0.00    +0.274 A 
ATOM     23  C   UNL     1       1.461  -3.886  25.069  0.00  0.00    +0.084 A 
ATOM     24  C   UNL     1       1.737  -3.014  26.112  0.00  0.00    +0.007 A 
ATOM     25  C   UNL     1       3.053  -2.595  26.344  0.00  0.00    +0.009 A 
BRANCH  22  26
ATOM     26  N   UNL     1       2.235  -5.293  23.190  0.00  0.00    +0.080 N 
ATOM     27  O   UNL     1       3.194  -5.946  22.756  0.00  0.00    +0.041 OA
ATOM     28  O   UNL     1       1.061  -5.439  22.823  0.00  0.00    -0.576 OA
ENDBRANCH  22  26
ENDBRANCH   3  20
BRANCH   2  29
ATOM     29  O   UNL     1       5.222  -0.259  25.194  0.00  0.00    -0.505 OA
ATOM     30  H   UNL     1       5.462   0.559  25.668  0.00  0.00    +0.292 HD
ENDBRANCH   2  29
BRANCH   5  31
ATOM     31  C   UNL     1       8.836  -4.415  26.560  0.00  0.00    +0.155 C 
BRANCH  31  32
ATOM     32  C   UNL     1       9.455  -5.037  25.330  0.00  0.00    +0.309 C 
ATOM     33  O   UNL     1       8.846  -5.099  24.264  0.00  0.00    -0.251 OA
BRANCH  32  34
ATOM     34  O   UNL     1      10.695  -5.543  25.452  0.00  0.00    -0.480 OA
ATOM     35  H   UNL     1      11.421  -4.914  25.288  0.00  0.00    +0.295 HD
ENDBRANCH  32  34
ENDBRANCH  31  32
ENDBRANCH   5  31
TORSDOF 8
ENDMDL
MODEL 9
REMARK VINA RESULT:      -6.6      4.255      6.357
REMARK  Name = 
REMARK  8 active torsions:
REMARK  status: ('A' for Active; 'I' for Inactive)
REMARK    1  A    between atoms: N_1  and  C_2
REMARK    2  A    between atoms: C_7  and  C_11
REMARK    3  A    between atoms: C_13  and  C_14
REMARK    4  A    between atoms: C_14  and  C_15
REMARK    5  A    between atoms: C_15  and  O_16
REMARK    6  A    between atoms: C_19  and  C_22
REMARK    7  A    between atoms: C_20  and  O_21
REMARK    8  A    between atoms: C_26  and  N_28
REMARK                            x       y       z     vdW  Elec       q    Type
REMARK                         _______ _______ _______ _____ _____    ______ ____
ROOT
ATOM      1  C   UNL     1       6.890   1.367  24.310  0.00  0.00    +0.041 A 
ATOM      2  C   UNL     1       6.747  -0.048  24.338  0.00  0.00    +0.134 A 
ATOM      3  C   UNL     1       7.854  -0.931  24.400  0.00  0.00    +0.025 A 
ATOM      4  C   UNL     1       9.130  -0.323  24.436  0.00  0.00    +0.016 A 
ATOM      5  C   UNL     1       9.321   1.066  24.318  0.00  0.00    -0.035 A 
ATOM      6  C   UNL     1       8.192   1.895  24.270  0.00  0.00    +0.017 A 
ENDROOT
BRANCH   1  13
ATOM      7  C   UNL     1       2.895   5.728  23.591  0.00  0.00    +0.117 A 
ATOM      8  N   UNL     1       3.719   5.243  24.535  0.00  0.00    -0.231 NA
ATOM      9  C   UNL     1       4.309   4.061  24.238  0.00  0.00    +0.091 A 
ATOM     10  C   UNL     1       4.058   3.357  23.069  0.00  0.00    +0.066 A 
ATOM     11  N   UNL     1       4.864   2.248  23.096  0.00  0.00    -0.353 N 
ATOM     12  H   UNL     1       4.932   1.559  22.359  0.00  0.00    +0.166 HD
ATOM     13  C   UNL     1       5.736   2.287  24.172  0.00  0.00    +0.053 A 
ATOM     14  C   UNL     1       3.162   3.832  22.117  0.00  0.00    +0.031 A 
ATOM     15  C   UNL     1       5.304   3.351  24.956  0.00  0.00    +0.056 A 
ATOM     16  C   UNL     1       2.595   5.074  22.398  0.00  0.00    +0.045 A 
BRANCH   7  17
ATOM     17  N   UNL     1       2.397   7.017  23.805  0.00  0.00    -0.343 N 
ATOM     18  H   UNL     1       3.160   7.667  23.640  0.00  0.00    +0.144 HD
ATOM     19  H   UNL     1       1.983   7.123  24.722  0.00  0.00    +0.144 HD
ENDBRANCH   7  17
ENDBRANCH   1  13
BRANCH   3  20
ATOM     20  C   UNL     1       7.750  -2.429  24.317  0.00  0.00    -0.008 A 
ATOM     21  C   UNL     1       7.614  -3.260  25.446  0.00  0.00    +0.093 A 
ATOM     22  C   UNL     1       7.388  -4.646  25.309  0.00  0.00    +0.274 A 
ATOM     23  C   UNL     1       7.380  -5.252  24.051  0.00  0.00    +0.084 A 
ATOM     24  C   UNL     1       7.573  -4.464  22.926  0.00  0.00    +0.007 A 
ATOM     25  C   UNL     1       7.732  -3.078  23.060  0.00  0.00    +0.009 A 
BRANCH  22  26
ATOM     26  N   UNL     1       7.097  -5.461  26.497  0.00  0.00    +0.080 N 
ATOM     27  O   UNL     1       7.789  -5.273  27.507  0.00  0.00    +0.041 OA
ATOM     28  O   UNL     1       6.156  -6.265  26.429  0.00  0.00    -0.576 OA
ENDBRANCH  22  26
ENDBRANCH   3  20
BRANCH   2  29
ATOM     29  O   UNL     1       5.469  -0.551  24.203  0.00  0.00    -0.505 OA
ATOM     30  H   UNL     1       5.333  -1.161  24.951  0.00  0.00    +0.292 HD
ENDBRANCH   2  29
BRANCH   5  31
ATOM     31  C   UNL     1      10.713   1.612  24.050  0.00  0.00    +0.155 C 
BRANCH  31  32
ATOM     32  C   UNL     1      10.913   2.718  23.041  0.00  0.00    +0.309 C 
ATOM     33  O   UNL     1      11.452   3.780  23.349  0.00  0.00    -0.251 OA
BRANCH  32  34
ATOM     34  O   UNL     1      10.458   2.507  21.794  0.00  0.00    -0.480 OA
ATOM     35  H   UNL     1      10.970   1.870  21.264  0.00  0.00    +0.295 HD
ENDBRANCH  32  34
ENDBRANCH  31  32
ENDBRANCH   5  31
TORSDOF 8
ENDMDL
