MODEL 1
REMARK VINA RESULT:      -7.3      0.000      0.000
REMARK  Name = 
REMARK  11 active torsions:
REMARK  status: ('A' for Active; 'I' for Inactive)
REMARK    1  A    between atoms: C_1  and  C_2
REMARK    2  A    between atoms: C_3  and  C_4
REMARK    3  A    between atoms: C_4  and  S_5
REMARK    4  A    between atoms: S_5  and  C_6
REMARK    5  A    between atoms: C_8  and  C_9
REMARK    6  A    between atoms: C_10  and  O_11
REMARK    7  A    between atoms: O_11  and  C_12
REMARK    8  A    between atoms: C_12  and  C_13
REMARK    9  A    between atoms: C_13  and  O_14
REMARK   10  A    between atoms: C_19  and  C_21
REMARK   11  A    between atoms: C_24  and  C_27
REMARK                            x       y       z     vdW  Elec       q    Type
REMARK                         _______ _______ _______ _____ _____    ______ ____
ROOT
ATOM      1  C   UNL     1       6.951  -2.182  22.477  0.00  0.00    +0.066 C 
ATOM      2  C   UNL     1       7.992  -1.530  23.319  0.00  0.00    +0.050 A 
ATOM      3  N   UNL     1       8.116  -0.155  23.153  0.00  0.00    -0.244 NA
ATOM      4  C   UNL     1       9.021   0.358  23.961  0.00  0.00    +0.109 A 
ATOM      5  S   UNL     1       9.814  -0.813  24.934  0.00  0.00    -0.071 S 
ATOM      6  C   UNL     1       8.852  -2.084  24.258  0.00  0.00    +0.023 A 
ENDROOT
BRANCH   4   7
ATOM      7  C   UNL     1       9.306   1.808  24.065  0.00  0.00    +0.007 A 
ATOM      8  C   UNL     1      10.468   2.319  23.459  0.00  0.00    +0.011 A 
ATOM      9  C   UNL     1      10.753   3.691  23.462  0.00  0.00    +0.013 A 
ATOM     10  C   UNL     1       9.877   4.597  24.074  0.00  0.00    +0.055 A 
ATOM     11  C   UNL     1       8.735   4.095  24.711  0.00  0.00    +0.013 A 
ATOM     12  C   UNL     1       8.457   2.722  24.708  0.00  0.00    +0.011 A 
BRANCH  10  13
ATOM     13  C   UNL     1      10.158   6.079  24.022  0.00  0.00    +0.417 C 
ATOM     14  F   UNL     1      11.471   6.351  23.778  0.00  0.00    -0.166 F 
ATOM     15  F   UNL     1       9.855   6.713  25.189  0.00  0.00    -0.166 F 
ATOM     16  F   UNL     1       9.459   6.732  23.050  0.00  0.00    -0.166 F 
ENDBRANCH  10  13
ENDBRANCH   4   7
BRANCH   6  17
ATOM     17  C   UNL     1       9.041  -3.472  24.817  0.00  0.00    +0.118 C 
BRANCH  17  18
ATOM     18  S   UNL     1       8.125  -3.811  26.354  0.00  0.00    -0.120 S 
BRANCH  18  19
ATOM     19  C   UNL     1       6.777  -4.854  25.799  0.00  0.00    +0.009 A 
ATOM     20  C   UNL     1       5.985  -5.605  26.670  0.00  0.00    +0.018 A 
ATOM     21  C   UNL     1       5.026  -6.501  26.175  0.00  0.00    +0.047 A 
ATOM     22  C   UNL     1       4.845  -6.665  24.800  0.00  0.00    +0.124 A 
ATOM     23  C   UNL     1       5.635  -5.920  23.910  0.00  0.00    -0.008 A 
ATOM     24  C   UNL     1       5.482  -6.084  22.422  0.00  0.00    +0.047 C 
ATOM     25  C   UNL     1       6.588  -5.017  24.420  0.00  0.00    +0.021 A 
BRANCH  22  26
ATOM     26  O   UNL     1       3.984  -7.573  24.238  0.00  0.00    -0.481 OA
BRANCH  26  27
ATOM     27  C   UNL     1       2.588  -7.284  24.370  0.00  0.00    +0.349 C 
BRANCH  27  28
ATOM     28  C   UNL     1       2.032  -6.871  23.017  0.00  0.00    +0.343 C 
ATOM     29  O   UNL     1       1.856  -5.712  22.674  0.00  0.00    -0.247 OA
BRANCH  28  30
ATOM     30  O   UNL     1       1.722  -7.927  22.218  0.00  0.00    -0.478 OA
ATOM     31  H   UNL     1       2.548  -8.305  21.840  0.00  0.00    +0.295 HD
ENDBRANCH  28  30
ENDBRANCH  27  28
ENDBRANCH  26  27
ENDBRANCH  22  26
ENDBRANCH  18  19
ENDBRANCH  17  18
ENDBRANCH   6  17
TORSDOF 9
ENDMDL
MODEL 2
REMARK VINA RESULT:      -7.1      2.352      3.447
REMARK  Name = 
REMARK  11 active torsions:
REMARK  status: ('A' for Active; 'I' for Inactive)
REMARK    1  A    between atoms: C_1  and  C_2
REMARK    2  A    between atoms: C_3  and  C_4
REMARK    3  A    between atoms: C_4  and  S_5
REMARK    4  A    between atoms: S_5  and  C_6
REMARK    5  A    between atoms: C_8  and  C_9
REMARK    6  A    between atoms: C_10  and  O_11
REMARK    7  A    between atoms: O_11  and  C_12
REMARK    8  A    between atoms: C_12  and  C_13
REMARK    9  A    between atoms: C_13  and  O_14
REMARK   10  A    between atoms: C_19  and  C_21
REMARK   11  A    between atoms: C_24  and  C_27
REMARK                            x       y       z     vdW  Elec       q    Type
REMARK                         _______ _______ _______ _____ _____    ______ ____
ROOT
ATOM      1  C   UNL     1       9.818  -3.355  24.711  0.00  0.00    +0.066 C 
ATOM      2  C   UNL     1       9.179  -2.202  24.019  0.00  0.00    +0.050 A 
ATOM      3  N   UNL     1       9.620  -0.947  24.423  0.00  0.00    -0.244 NA
ATOM      4  C   UNL     1       9.046   0.021  23.738  0.00  0.00    +0.109 A 
ATOM      5  S   UNL     1       7.893  -0.540  22.595  0.00  0.00    -0.071 S 
ATOM      6  C   UNL     1       8.216  -2.187  23.018  0.00  0.00    +0.023 A 
ENDROOT
BRANCH   4   7
ATOM      7  C   UNL     1       9.385   1.454  23.892  0.00  0.00    +0.007 A 
ATOM      8  C   UNL     1      10.568   1.941  23.310  0.00  0.00    +0.011 A 
ATOM      9  C   UNL     1      10.904   3.301  23.360  0.00  0.00    +0.013 A 
ATOM     10  C   UNL     1      10.058   4.219  23.997  0.00  0.00    +0.055 A 
ATOM     11  C   UNL     1       8.895   3.739  24.611  0.00  0.00    +0.013 A 
ATOM     12  C   UNL     1       8.565   2.377  24.560  0.00  0.00    +0.011 A 
BRANCH  10  13
ATOM     13  C   UNL     1      10.394   5.690  23.997  0.00  0.00    +0.417 C 
ATOM     14  F   UNL     1       9.776   6.364  22.987  0.00  0.00    -0.166 F 
ATOM     15  F   UNL     1      11.727   5.925  23.843  0.00  0.00    -0.166 F 
ATOM     16  F   UNL     1      10.032   6.331  25.145  0.00  0.00    -0.166 F 
ENDBRANCH  10  13
ENDBRANCH   4   7
BRANCH   6  17
ATOM     17  C   UNL     1       7.504  -3.260  22.232  0.00  0.00    +0.118 C 
BRANCH  17  18
ATOM     18  S   UNL     1       5.691  -3.088  22.168  0.00  0.00    -0.120 S 
BRANCH  18  19
ATOM     19  C   UNL     1       5.176  -3.635  23.796  0.00  0.00    +0.009 A 
ATOM     20  C   UNL     1       5.212  -2.812  24.923  0.00  0.00    +0.018 A 
ATOM     21  C   UNL     1       4.918  -3.326  26.196  0.00  0.00    +0.047 A 
ATOM     22  C   UNL     1       4.589  -4.672  26.363  0.00  0.00    +0.124 A 
ATOM     23  C   UNL     1       4.552  -5.515  25.240  0.00  0.00    -0.008 A 
ATOM     24  C   UNL     1       4.220  -6.976  25.384  0.00  0.00    +0.047 C 
ATOM     25  C   UNL     1       4.839  -4.985  23.967  0.00  0.00    +0.021 A 
BRANCH  22  26
ATOM     26  O   UNL     1       4.364  -5.266  27.579  0.00  0.00    -0.481 OA
BRANCH  26  27
ATOM     27  C   UNL     1       5.422  -5.160  28.538  0.00  0.00    +0.349 C 
BRANCH  27  28
ATOM     28  C   UNL     1       6.356  -6.349  28.386  0.00  0.00    +0.343 C 
ATOM     29  O   UNL     1       6.071  -7.491  28.713  0.00  0.00    -0.247 OA
BRANCH  28  30
ATOM     30  O   UNL     1       7.568  -6.018  27.865  0.00  0.00    -0.478 OA
ATOM     31  H   UNL     1       8.255  -6.626  28.221  0.00  0.00    +0.295 HD
ENDBRANCH  28  30
ENDBRANCH  27  28
ENDBRANCH  26  27
ENDBRANCH  22  26
ENDBRANCH  18  19
ENDBRANCH  17  18
ENDBRANCH   6  17
TORSDOF 9
ENDMDL
MODEL 3
REMARK VINA RESULT:      -6.9      0.933      2.064
REMARK  Name = 
REMARK  11 active torsions:
REMARK  status: ('A' for Active; 'I' for Inactive)
REMARK    1  A    between atoms: C_1  and  C_2
REMARK    2  A    between atoms: C_3  and  C_4
REMARK    3  A    between atoms: C_4  and  S_5
REMARK    4  A    between atoms: S_5  and  C_6
REMARK    5  A    between atoms: C_8  and  C_9
REMARK    6  A    between atoms: C_10  and  O_11
REMARK    7  A    between atoms: O_11  and  C_12
REMARK    8  A    between atoms: C_12  and  C_13
REMARK    9  A    between atoms: C_13  and  O_14
REMARK   10  A    between atoms: C_19  and  C_21
REMARK   11  A    between atoms: C_24  and  C_27
REMARK                            x       y       z     vdW  Elec       q    Type
REMARK                         _______ _______ _______ _____ _____    ______ ____
ROOT
ATOM      1  C   UNL     1       6.443  -2.283  22.645  0.00  0.00    +0.066 C 
ATOM      2  C   UNL     1       7.709  -1.696  23.164  0.00  0.00    +0.050 A 
ATOM      3  N   UNL     1       7.835  -0.320  23.007  0.00  0.00    -0.244 NA
ATOM      4  C   UNL     1       8.956   0.134  23.530  0.00  0.00    +0.109 A 
ATOM      5  S   UNL     1       9.949  -1.098  24.197  0.00  0.00    -0.071 S 
ATOM      6  C   UNL     1       8.782  -2.311  23.796  0.00  0.00    +0.023 A 
ENDROOT
BRANCH   4   7
ATOM      7  C   UNL     1       9.318   1.569  23.586  0.00  0.00    +0.007 A 
ATOM      8  C   UNL     1       8.374   2.491  24.074  0.00  0.00    +0.011 A 
ATOM      9  C   UNL     1       8.685   3.850  24.220  0.00  0.00    +0.013 A 
ATOM     10  C   UNL     1       9.958   4.328  23.880  0.00  0.00    +0.055 A 
ATOM     11  C   UNL     1      10.893   3.425  23.360  0.00  0.00    +0.013 A 
ATOM     12  C   UNL     1      10.576   2.067  23.214  0.00  0.00    +0.011 A 
BRANCH  10  13
ATOM     13  C   UNL     1      10.306   5.781  24.095  0.00  0.00    +0.417 C 
ATOM     14  F   UNL     1       9.990   6.211  25.348  0.00  0.00    -0.166 F 
ATOM     15  F   UNL     1       9.651   6.611  23.238  0.00  0.00    -0.166 F 
ATOM     16  F   UNL     1      11.633   6.051  23.935  0.00  0.00    -0.166 F 
ENDBRANCH  10  13
ENDBRANCH   4   7
BRANCH   6  17
ATOM     17  C   UNL     1       9.068  -3.725  24.237  0.00  0.00    +0.118 C 
BRANCH  17  18
ATOM     18  S   UNL     1       8.662  -4.083  25.977  0.00  0.00    -0.120 S 
BRANCH  18  19
ATOM     19  C   UNL     1       7.167  -5.064  25.848  0.00  0.00    +0.009 A 
ATOM     20  C   UNL     1       6.469  -5.236  24.652  0.00  0.00    +0.018 A 
ATOM     21  C   UNL     1       5.236  -5.907  24.631  0.00  0.00    +0.047 A 
ATOM     22  C   UNL     1       4.681  -6.415  25.807  0.00  0.00    +0.124 A 
ATOM     23  C   UNL     1       5.368  -6.248  27.020  0.00  0.00    -0.008 A 
ATOM     24  C   UNL     1       4.791  -6.764  28.310  0.00  0.00    +0.047 C 
ATOM     25  C   UNL     1       6.608  -5.580  27.026  0.00  0.00    +0.021 A 
BRANCH  22  26
ATOM     26  O   UNL     1       3.449  -7.015  25.881  0.00  0.00    -0.481 OA
BRANCH  26  27
ATOM     27  C   UNL     1       2.612  -6.881  24.728  0.00  0.00    +0.349 C 
BRANCH  27  28
ATOM     28  C   UNL     1       2.278  -8.263  24.189  0.00  0.00    +0.343 C 
ATOM     29  O   UNL     1       2.323  -9.287  24.854  0.00  0.00    -0.247 OA
BRANCH  28  30
ATOM     30  O   UNL     1       1.939  -8.259  22.872  0.00  0.00    -0.478 OA
ATOM     31  H   UNL     1       1.541  -9.127  22.634  0.00  0.00    +0.295 HD
ENDBRANCH  28  30
ENDBRANCH  27  28
ENDBRANCH  26  27
ENDBRANCH  22  26
ENDBRANCH  18  19
ENDBRANCH  17  18
ENDBRANCH   6  17
TORSDOF 9
ENDMDL
MODEL 4
REMARK VINA RESULT:      -6.9      6.957     10.784
REMARK  Name = 
REMARK  11 active torsions:
REMARK  status: ('A' for Active; 'I' for Inactive)
REMARK    1  A    between atoms: C_1  and  C_2
REMARK    2  A    between atoms: C_3  and  C_4
REMARK    3  A    between atoms: C_4  and  S_5
REMARK    4  A    between atoms: S_5  and  C_6
REMARK    5  A    between atoms: C_8  and  C_9
REMARK    6  A    between atoms: C_10  and  O_11
REMARK    7  A    between atoms: O_11  and  C_12
REMARK    8  A    between atoms: C_12  and  C_13
REMARK    9  A    between atoms: C_13  and  O_14
REMARK   10  A    between atoms: C_19  and  C_21
REMARK   11  A    between atoms: C_24  and  C_27
REMARK                            x       y       z     vdW  Elec       q    Type
REMARK                         _______ _______ _______ _____ _____    ______ ____
ROOT
ATOM      1  C   UNL     1       3.744   0.878  27.035  0.00  0.00    +0.066 C 
ATOM      2  C   UNL     1       4.995   0.342  26.431  0.00  0.00    +0.050 A 
ATOM      3  N   UNL     1       4.835  -0.788  25.637  0.00  0.00    -0.244 NA
ATOM      4  C   UNL     1       5.974  -1.177  25.101  0.00  0.00    +0.109 A 
ATOM      5  S   UNL     1       7.318  -0.219  25.575  0.00  0.00    -0.071 S 
ATOM      6  C   UNL     1       6.300   0.808  26.527  0.00  0.00    +0.023 A 
ENDROOT
BRANCH   4   7
ATOM      7  C   UNL     1       6.093  -2.300  24.143  0.00  0.00    +0.007 A 
ATOM      8  C   UNL     1       7.372  -2.690  23.706  0.00  0.00    +0.011 A 
ATOM      9  C   UNL     1       7.552  -3.791  22.858  0.00  0.00    +0.013 A 
ATOM     10  C   UNL     1       6.451  -4.540  22.422  0.00  0.00    +0.055 A 
ATOM     11  C   UNL     1       5.171  -4.140  22.823  0.00  0.00    +0.013 A 
ATOM     12  C   UNL     1       4.996  -3.036  23.669  0.00  0.00    +0.011 A 
BRANCH  10  13
ATOM     13  C   UNL     1       6.656  -5.761  21.558  0.00  0.00    +0.417 C 
ATOM     14  F   UNL     1       7.952  -5.904  21.160  0.00  0.00    -0.166 F 
ATOM     15  F   UNL     1       5.916  -5.727  20.416  0.00  0.00    -0.166 F 
ATOM     16  F   UNL     1       6.330  -6.929  22.181  0.00  0.00    -0.166 F 
ENDBRANCH  10  13
ENDBRANCH   4   7
BRANCH   6  17
ATOM     17  C   UNL     1       6.942   1.998  27.195  0.00  0.00    +0.118 C 
BRANCH  17  18
ATOM     18  S   UNL     1       6.356   3.618  26.601  0.00  0.00    -0.120 S 
BRANCH  18  19
ATOM     19  C   UNL     1       7.784   4.271  25.736  0.00  0.00    +0.009 A 
ATOM     20  C   UNL     1       8.157   5.615  25.786  0.00  0.00    +0.018 A 
ATOM     21  C   UNL     1       9.207   6.098  24.990  0.00  0.00    +0.047 A 
ATOM     22  C   UNL     1       9.899   5.246  24.128  0.00  0.00    +0.124 A 
ATOM     23  C   UNL     1       9.535   3.891  24.063  0.00  0.00    -0.008 A 
ATOM     24  C   UNL     1      10.245   2.947  23.131  0.00  0.00    +0.047 C 
ATOM     25  C   UNL     1       8.485   3.417  24.873  0.00  0.00    +0.021 A 
BRANCH  22  26
ATOM     26  O   UNL     1      10.884   5.656  23.265  0.00  0.00    -0.481 OA
BRANCH  26  27
ATOM     27  C   UNL     1      12.191   5.808  23.828  0.00  0.00    +0.349 C 
BRANCH  27  28
ATOM     28  C   UNL     1      13.231   5.412  22.793  0.00  0.00    +0.343 C 
ATOM     29  O   UNL     1      13.054   5.470  21.586  0.00  0.00    -0.247 OA
BRANCH  28  30
ATOM     30  O   UNL     1      14.390   4.957  23.341  0.00  0.00    -0.478 OA
ATOM     31  H   UNL     1      14.860   4.390  22.689  0.00  0.00    +0.295 HD
ENDBRANCH  28  30
ENDBRANCH  27  28
ENDBRANCH  26  27
ENDBRANCH  22  26
ENDBRANCH  18  19
ENDBRANCH  17  18
ENDBRANCH   6  17
TORSDOF 9
ENDMDL
MODEL 5
REMARK VINA RESULT:      -6.8      7.051     10.900
REMARK  Name = 
REMARK  11 active torsions:
REMARK  status: ('A' for Active; 'I' for Inactive)
REMARK    1  A    between atoms: C_1  and  C_2
REMARK    2  A    between atoms: C_3  and  C_4
REMARK    3  A    between atoms: C_4  and  S_5
REMARK    4  A    between atoms: S_5  and  C_6
REMARK    5  A    between atoms: C_8  and  C_9
REMARK    6  A    between atoms: C_10  and  O_11
REMARK    7  A    between atoms: O_11  and  C_12
REMARK    8  A    between atoms: C_12  and  C_13
REMARK    9  A    between atoms: C_13  and  O_14
REMARK   10  A    between atoms: C_19  and  C_21
REMARK   11  A    between atoms: C_24  and  C_27
REMARK                            x       y       z     vdW  Elec       q    Type
REMARK                         _______ _______ _______ _____ _____    ______ ____
ROOT
ATOM      1  C   UNL     1       8.366  -1.802  26.391  0.00  0.00    +0.066 C 
ATOM      2  C   UNL     1       8.068  -2.723  25.261  0.00  0.00    +0.050 A 
ATOM      3  N   UNL     1       6.980  -3.569  25.453  0.00  0.00    -0.244 NA
ATOM      4  C   UNL     1       6.749  -4.320  24.396  0.00  0.00    +0.109 A 
ATOM      5  S   UNL     1       7.876  -4.080  23.123  0.00  0.00    -0.071 S 
ATOM      6  C   UNL     1       8.702  -2.859  24.032  0.00  0.00    +0.023 A 
ENDROOT
BRANCH   4   7
ATOM      7  C   UNL     1       5.605  -5.254  24.283  0.00  0.00    +0.007 A 
ATOM      8  C   UNL     1       5.374  -6.177  25.318  0.00  0.00    +0.011 A 
ATOM      9  C   UNL     1       4.266  -7.035  25.301  0.00  0.00    +0.013 A 
ATOM     10  C   UNL     1       3.350  -6.992  24.241  0.00  0.00    +0.055 A 
ATOM     11  C   UNL     1       3.590  -6.101  23.188  0.00  0.00    +0.013 A 
ATOM     12  C   UNL     1       4.702  -5.247  23.208  0.00  0.00    +0.011 A 
BRANCH  10  13
ATOM     13  C   UNL     1       2.127  -7.876  24.257  0.00  0.00    +0.417 C 
ATOM     14  F   UNL     1       1.795  -8.325  23.014  0.00  0.00    -0.166 F 
ATOM     15  F   UNL     1       1.023  -7.237  24.732  0.00  0.00    -0.166 F 
ATOM     16  F   UNL     1       2.272  -8.992  25.027  0.00  0.00    -0.166 F 
ENDBRANCH  10  13
ENDBRANCH   4   7
BRANCH   6  17
ATOM     17  C   UNL     1       9.845  -2.143  23.358  0.00  0.00    +0.118 C 
BRANCH  17  18
ATOM     18  S   UNL     1       9.367  -1.092  21.948  0.00  0.00    -0.120 S 
BRANCH  18  19
ATOM     19  C   UNL     1       9.162   0.522  22.698  0.00  0.00    +0.009 A 
ATOM     20  C   UNL     1       9.754   0.880  23.911  0.00  0.00    +0.018 A 
ATOM     21  C   UNL     1       9.460   2.111  24.518  0.00  0.00    +0.047 A 
ATOM     22  C   UNL     1       8.566   3.003  23.923  0.00  0.00    +0.124 A 
ATOM     23  C   UNL     1       7.959   2.658  22.705  0.00  0.00    -0.008 A 
ATOM     24  C   UNL     1       6.976   3.587  22.045  0.00  0.00    +0.047 C 
ATOM     25  C   UNL     1       8.270   1.424  22.102  0.00  0.00    +0.021 A 
BRANCH  22  26
ATOM     26  O   UNL     1       8.170   4.189  24.488  0.00  0.00    -0.481 OA
BRANCH  26  27
ATOM     27  C   UNL     1       9.210   5.133  24.765  0.00  0.00    +0.349 C 
BRANCH  27  28
ATOM     28  C   UNL     1       9.438   6.000  23.537  0.00  0.00    +0.343 C 
ATOM     29  O   UNL     1       8.602   6.760  23.069  0.00  0.00    -0.247 OA
BRANCH  28  30
ATOM     30  O   UNL     1      10.668   5.836  22.983  0.00  0.00    -0.478 OA
ATOM     31  H   UNL     1      11.356   5.908  23.684  0.00  0.00    +0.295 HD
ENDBRANCH  28  30
ENDBRANCH  27  28
ENDBRANCH  26  27
ENDBRANCH  22  26
ENDBRANCH  18  19
ENDBRANCH  17  18
ENDBRANCH   6  17
TORSDOF 9
ENDMDL
MODEL 6
REMARK VINA RESULT:      -6.8      7.381     11.451
REMARK  Name = 
REMARK  11 active torsions:
REMARK  status: ('A' for Active; 'I' for Inactive)
REMARK    1  A    between atoms: C_1  and  C_2
REMARK    2  A    between atoms: C_3  and  C_4
REMARK    3  A    between atoms: C_4  and  S_5
REMARK    4  A    between atoms: S_5  and  C_6
REMARK    5  A    between atoms: C_8  and  C_9
REMARK    6  A    between atoms: C_10  and  O_11
REMARK    7  A    between atoms: O_11  and  C_12
REMARK    8  A    between atoms: C_12  and  C_13
REMARK    9  A    between atoms: C_13  and  O_14
REMARK   10  A    between atoms: C_19  and  C_21
REMARK   11  A    between atoms: C_24  and  C_27
REMARK                            x       y       z     vdW  Elec       q    Type
REMARK                         _______ _______ _______ _____ _____    ______ ____
ROOT
ATOM      1  C   UNL     1       9.776  -4.968  25.597  0.00  0.00    +0.066 C 
ATOM      2  C   UNL     1       8.559  -4.392  24.963  0.00  0.00    +0.050 A 
ATOM      3  N   UNL     1       7.492  -5.272  24.813  0.00  0.00    -0.244 NA
ATOM      4  C   UNL     1       6.438  -4.682  24.289  0.00  0.00    +0.109 A 
ATOM      5  S   UNL     1       6.700  -3.030  23.897  0.00  0.00    -0.071 S 
ATOM      6  C   UNL     1       8.317  -3.101  24.509  0.00  0.00    +0.023 A 
ENDROOT
BRANCH   4   7
ATOM      7  C   UNL     1       5.131  -5.351  24.092  0.00  0.00    +0.007 A 
ATOM      8  C   UNL     1       4.934  -6.633  24.634  0.00  0.00    +0.011 A 
ATOM      9  C   UNL     1       3.696  -7.285  24.544  0.00  0.00    +0.013 A 
ATOM     10  C   UNL     1       2.613  -6.666  23.905  0.00  0.00    +0.055 A 
ATOM     11  C   UNL     1       2.809  -5.405  23.330  0.00  0.00    +0.013 A 
ATOM     12  C   UNL     1       4.050  -4.759  23.421  0.00  0.00    +0.011 A 
BRANCH  10  13
ATOM     13  C   UNL     1       1.267  -7.347  23.862  0.00  0.00    +0.417 C 
ATOM     14  F   UNL     1       0.519  -6.954  22.793  0.00  0.00    -0.166 F 
ATOM     15  F   UNL     1       0.511  -7.086  24.964  0.00  0.00    -0.166 F 
ATOM     16  F   UNL     1       1.346  -8.706  23.778  0.00  0.00    -0.166 F 
ENDBRANCH  10  13
ENDBRANCH   4   7
BRANCH   6  17
ATOM     17  C   UNL     1       9.115  -1.821  24.517  0.00  0.00    +0.118 C 
BRANCH  17  18
ATOM     18  S   UNL     1       8.427  -0.496  25.561  0.00  0.00    -0.120 S 
BRANCH  18  19
ATOM     19  C   UNL     1       9.077   0.993  24.804  0.00  0.00    +0.009 A 
ATOM     20  C   UNL     1      10.269   1.022  24.078  0.00  0.00    +0.018 A 
ATOM     21  C   UNL     1      10.797   2.236  23.614  0.00  0.00    +0.047 A 
ATOM     22  C   UNL     1      10.144   3.442  23.871  0.00  0.00    +0.124 A 
ATOM     23  C   UNL     1       8.945   3.433  24.602  0.00  0.00    -0.008 A 
ATOM     24  C   UNL     1       8.224   4.716  24.916  0.00  0.00    +0.047 C 
ATOM     25  C   UNL     1       8.421   2.207  25.055  0.00  0.00    +0.021 A 
BRANCH  22  26
ATOM     26  O   UNL     1      10.633   4.675  23.518  0.00  0.00    -0.481 OA
BRANCH  26  27
ATOM     27  C   UNL     1      11.865   4.679  22.789  0.00  0.00    +0.349 C 
BRANCH  27  28
ATOM     28  C   UNL     1      12.926   5.400  23.604  0.00  0.00    +0.343 C 
ATOM     29  O   UNL     1      12.693   6.046  24.615  0.00  0.00    -0.247 OA
BRANCH  28  30
ATOM     30  O   UNL     1      14.178   5.279  23.086  0.00  0.00    -0.478 OA
ATOM     31  H   UNL     1      14.514   4.369  23.252  0.00  0.00    +0.295 HD
ENDBRANCH  28  30
ENDBRANCH  27  28
ENDBRANCH  26  27
ENDBRANCH  22  26
ENDBRANCH  18  19
ENDBRANCH  17  18
ENDBRANCH   6  17
TORSDOF 9
ENDMDL
MODEL 7
REMARK VINA RESULT:      -6.7      1.642      2.207
REMARK  Name = 
REMARK  11 active torsions:
REMARK  status: ('A' for Active; 'I' for Inactive)
REMARK    1  A    between atoms: C_1  and  C_2
REMARK    2  A    between atoms: C_3  and  C_4
REMARK    3  A    between atoms: C_4  and  S_5
REMARK    4  A    between atoms: S_5  and  C_6
REMARK    5  A    between atoms: C_8  and  C_9
REMARK    6  A    between atoms: C_10  and  O_11
REMARK    7  A    between atoms: O_11  and  C_12
REMARK    8  A    between atoms: C_12  and  C_13
REMARK    9  A    between atoms: C_13  and  O_14
REMARK   10  A    between atoms: C_19  and  C_21
REMARK   11  A    between atoms: C_24  and  C_27
REMARK                            x       y       z     vdW  Elec       q    Type
REMARK                         _______ _______ _______ _____ _____    ______ ____
ROOT
ATOM      1  C   UNL     1      10.060  -2.542  23.710  0.00  0.00    +0.066 C 
ATOM      2  C   UNL     1       9.285  -1.496  24.432  0.00  0.00    +0.050 A 
ATOM      3  N   UNL     1       9.247  -0.251  23.813  0.00  0.00    -0.244 NA
ATOM      4  C   UNL     1       8.507   0.608  24.484  0.00  0.00    +0.109 A 
ATOM      5  S   UNL     1       7.856  -0.035  25.937  0.00  0.00    -0.071 S 
ATOM      6  C   UNL     1       8.578  -1.576  25.625  0.00  0.00    +0.023 A 
ENDROOT
BRANCH   4   7
ATOM      7  C   UNL     1       8.217   1.985  24.020  0.00  0.00    +0.007 A 
ATOM      8  C   UNL     1       8.867   3.065  24.643  0.00  0.00    +0.011 A 
ATOM      9  C   UNL     1       8.689   4.382  24.199  0.00  0.00    +0.013 A 
ATOM     10  C   UNL     1       7.850   4.658  23.111  0.00  0.00    +0.055 A 
ATOM     11  C   UNL     1       7.170   3.594  22.506  0.00  0.00    +0.013 A 
ATOM     12  C   UNL     1       7.350   2.278  22.956  0.00  0.00    +0.011 A 
BRANCH  10  13
ATOM     13  C   UNL     1       7.708   6.071  22.600  0.00  0.00    +0.417 C 
ATOM     14  F   UNL     1       6.669   6.732  23.183  0.00  0.00    -0.166 F 
ATOM     15  F   UNL     1       7.480   6.124  21.259  0.00  0.00    -0.166 F 
ATOM     16  F   UNL     1       8.810   6.843  22.822  0.00  0.00    -0.166 F 
ENDBRANCH  10  13
ENDBRANCH   4   7
BRANCH   6  17
ATOM     17  C   UNL     1       8.279  -2.694  26.593  0.00  0.00    +0.118 C 
BRANCH  17  18
ATOM     18  S   UNL     1       8.526  -4.372  25.927  0.00  0.00    -0.120 S 
BRANCH  18  19
ATOM     19  C   UNL     1       7.054  -4.634  24.939  0.00  0.00    +0.009 A 
ATOM     20  C   UNL     1       5.762  -4.570  25.464  0.00  0.00    +0.018 A 
ATOM     21  C   UNL     1       4.650  -4.908  24.676  0.00  0.00    +0.047 A 
ATOM     22  C   UNL     1       4.813  -5.319  23.353  0.00  0.00    +0.124 A 
ATOM     23  C   UNL     1       6.105  -5.392  22.809  0.00  0.00    -0.008 A 
ATOM     24  C   UNL     1       6.321  -5.850  21.392  0.00  0.00    +0.047 C 
ATOM     25  C   UNL     1       7.212  -5.042  23.607  0.00  0.00    +0.021 A 
BRANCH  22  26
ATOM     26  O   UNL     1       3.787  -5.737  22.543  0.00  0.00    -0.481 OA
BRANCH  26  27
ATOM     27  C   UNL     1       2.517  -5.918  23.179  0.00  0.00    +0.349 C 
BRANCH  27  28
ATOM     28  C   UNL     1       2.090  -7.370  23.038  0.00  0.00    +0.343 C 
ATOM     29  O   UNL     1       1.180  -7.750  22.315  0.00  0.00    -0.247 OA
BRANCH  28  30
ATOM     30  O   UNL     1       2.808  -8.221  23.818  0.00  0.00    -0.478 OA
ATOM     31  H   UNL     1       2.193  -8.797  24.327  0.00  0.00    +0.295 HD
ENDBRANCH  28  30
ENDBRANCH  27  28
ENDBRANCH  26  27
ENDBRANCH  22  26
ENDBRANCH  18  19
ENDBRANCH  17  18
ENDBRANCH   6  17
TORSDOF 9
ENDMDL
MODEL 8
REMARK VINA RESULT:      -6.7      5.449      8.669
REMARK  Name = 
REMARK  11 active torsions:
REMARK  status: ('A' for Active; 'I' for Inactive)
REMARK    1  A    between atoms: C_1  and  C_2
REMARK    2  A    between atoms: C_3  and  C_4
REMARK    3  A    between atoms: C_4  and  S_5
REMARK    4  A    between atoms: S_5  and  C_6
REMARK    5  A    between atoms: C_8  and  C_9
REMARK    6  A    between atoms: C_10  and  O_11
REMARK    7  A    between atoms: O_11  and  C_12
REMARK    8  A    between atoms: C_12  and  C_13
REMARK    9  A    between atoms: C_13  and  O_14
REMARK   10  A    between atoms: C_19  and  C_21
REMARK   11  A    between atoms: C_24  and  C_27
REMARK                            x       y       z     vdW  Elec       q    Type
REMARK                         _______ _______ _______ _____ _____    ______ ____
ROOT
ATOM      1  C   UNL     1       4.522   2.949  23.566  0.00  0.00    +0.066 C 
ATOM      2  C   UNL     1       5.423   2.279  24.545  0.00  0.00    +0.050 A 
ATOM      3  N   UNL     1       5.258   0.903  24.660  0.00  0.00    -0.244 NA
ATOM      4  C   UNL     1       6.118   0.374  25.507  0.00  0.00    +0.109 A 
ATOM      5  S   UNL     1       7.143   1.531  26.255  0.00  0.00    -0.071 S 
ATOM      6  C   UNL     1       6.416   2.817  25.353  0.00  0.00    +0.023 A 
ENDROOT
BRANCH   4   7
ATOM      7  C   UNL     1       6.232  -1.079  25.766  0.00  0.00    +0.007 A 
ATOM      8  C   UNL     1       5.201  -1.932  25.333  0.00  0.00    +0.011 A 
ATOM      9  C   UNL     1       5.288  -3.322  25.484  0.00  0.00    +0.013 A 
ATOM     10  C   UNL     1       6.418  -3.903  26.076  0.00  0.00    +0.055 A 
ATOM     11  C   UNL     1       7.435  -3.061  26.542  0.00  0.00    +0.013 A 
ATOM     12  C   UNL     1       7.341  -1.671  26.391  0.00  0.00    +0.011 A 
BRANCH  10  13
ATOM     13  C   UNL     1       6.533  -5.405  26.182  0.00  0.00    +0.417 C 
ATOM     14  F   UNL     1       6.065  -5.878  27.371  0.00  0.00    -0.166 F 
ATOM     15  F   UNL     1       7.819  -5.842  26.084  0.00  0.00    -0.166 F 
ATOM     16  F   UNL     1       5.837  -6.073  25.218  0.00  0.00    -0.166 F 
ENDBRANCH  10  13
ENDBRANCH   4   7
BRANCH   6  17
ATOM     17  C   UNL     1       6.992   4.201  25.526  0.00  0.00    +0.118 C 
BRANCH  17  18
ATOM     18  S   UNL     1       7.863   4.857  24.066  0.00  0.00    -0.120 S 
BRANCH  18  19
ATOM     19  C   UNL     1       8.591   3.390  23.338  0.00  0.00    +0.009 A 
ATOM     20  C   UNL     1       8.119   2.808  22.161  0.00  0.00    +0.018 A 
ATOM     21  C   UNL     1       8.643   1.590  21.702  0.00  0.00    +0.047 A 
ATOM     22  C   UNL     1       9.646   0.931  22.416  0.00  0.00    +0.124 A 
ATOM     23  C   UNL     1      10.131   1.500  23.604  0.00  0.00    -0.008 A 
ATOM     24  C   UNL     1      11.197   0.809  24.410  0.00  0.00    +0.047 C 
ATOM     25  C   UNL     1       9.603   2.728  24.049  0.00  0.00    +0.021 A 
BRANCH  22  26
ATOM     26  O   UNL     1      10.156  -0.296  22.075  0.00  0.00    -0.481 OA
BRANCH  26  27
ATOM     27  C   UNL     1       9.197  -1.313  21.766  0.00  0.00    +0.349 C 
BRANCH  27  28
ATOM     28  C   UNL     1       9.057  -2.248  22.956  0.00  0.00    +0.343 C 
ATOM     29  O   UNL     1       9.926  -2.421  23.797  0.00  0.00    -0.247 OA
BRANCH  28  30
ATOM     30  O   UNL     1       7.866  -2.903  22.989  0.00  0.00    -0.478 OA
ATOM     31  H   UNL     1       7.179  -2.315  23.378  0.00  0.00    +0.295 HD
ENDBRANCH  28  30
ENDBRANCH  27  28
ENDBRANCH  26  27
ENDBRANCH  22  26
ENDBRANCH  18  19
ENDBRANCH  17  18
ENDBRANCH   6  17
TORSDOF 9
ENDMDL
MODEL 9
REMARK VINA RESULT:      -6.5      1.498      1.997
REMARK  Name = 
REMARK  11 active torsions:
REMARK  status: ('A' for Active; 'I' for Inactive)
REMARK    1  A    between atoms: C_1  and  C_2
REMARK    2  A    between atoms: C_3  and  C_4
REMARK    3  A    between atoms: C_4  and  S_5
REMARK    4  A    between atoms: S_5  and  C_6
REMARK    5  A    between atoms: C_8  and  C_9
REMARK    6  A    between atoms: C_10  and  O_11
REMARK    7  A    between atoms: O_11  and  C_12
REMARK    8  A    between atoms: C_12  and  C_13
REMARK    9  A    between atoms: C_13  and  O_14
REMARK   10  A    between atoms: C_19  and  C_21
REMARK   11  A    between atoms: C_24  and  C_27
REMARK                            x       y       z     vdW  Elec       q    Type
REMARK                         _______ _______ _______ _____ _____    ______ ____
ROOT
ATOM      1  C   UNL     1       6.987  -3.893  21.803  0.00  0.00    +0.066 C 
ATOM      2  C   UNL     1       7.816  -3.138  22.782  0.00  0.00    +0.050 A 
ATOM      3  N   UNL     1       7.929  -1.773  22.538  0.00  0.00    -0.244 NA
ATOM      4  C   UNL     1       8.636  -1.164  23.467  0.00  0.00    +0.109 A 
ATOM      5  S   UNL     1       9.252  -2.228  24.667  0.00  0.00    -0.071 S 
ATOM      6  C   UNL     1       8.485  -3.584  23.914  0.00  0.00    +0.023 A 
ENDROOT
BRANCH   4   7
ATOM      7  C   UNL     1       8.851   0.300  23.513  0.00  0.00    +0.007 A 
ATOM      8  C   UNL     1       8.594   0.989  24.712  0.00  0.00    +0.011 A 
ATOM      9  C   UNL     1       8.848   2.361  24.837  0.00  0.00    +0.013 A 
ATOM     10  C   UNL     1       9.371   3.089  23.760  0.00  0.00    +0.055 A 
ATOM     11  C   UNL     1       9.598   2.420  22.551  0.00  0.00    +0.013 A 
ATOM     12  C   UNL     1       9.339   1.048  22.430  0.00  0.00    +0.011 A 
BRANCH  10  13
ATOM     13  C   UNL     1       9.699   4.554  23.919  0.00  0.00    +0.417 C 
ATOM     14  F   UNL     1      11.026   4.810  23.751  0.00  0.00    -0.166 F 
ATOM     15  F   UNL     1       9.377   5.033  25.152  0.00  0.00    -0.166 F 
ATOM     16  F   UNL     1       9.052   5.356  23.026  0.00  0.00    -0.166 F 
ENDBRANCH  10  13
ENDBRANCH   4   7
BRANCH   6  17
ATOM     17  C   UNL     1       8.599  -4.920  24.605  0.00  0.00    +0.118 C 
BRANCH  17  18
ATOM     18  S   UNL     1       8.006  -4.945  26.328  0.00  0.00    -0.120 S 
BRANCH  18  19
ATOM     19  C   UNL     1       6.261  -5.315  26.149  0.00  0.00    +0.009 A 
ATOM     20  C   UNL     1       5.449  -5.697  27.218  0.00  0.00    +0.018 A 
ATOM     21  C   UNL     1       4.122  -6.098  27.003  0.00  0.00    +0.047 A 
ATOM     22  C   UNL     1       3.585  -6.126  25.715  0.00  0.00    +0.124 A 
ATOM     23  C   UNL     1       4.389  -5.747  24.627  0.00  0.00    -0.008 A 
ATOM     24  C   UNL     1       3.850  -5.784  23.222  0.00  0.00    +0.047 C 
ATOM     25  C   UNL     1       5.716  -5.339  24.857  0.00  0.00    +0.021 A 
BRANCH  22  26
ATOM     26  O   UNL     1       2.324  -6.576  25.414  0.00  0.00    -0.481 OA
BRANCH  26  27
ATOM     27  C   UNL     1       1.954  -7.838  25.977  0.00  0.00    +0.349 C 
BRANCH  27  28
ATOM     28  C   UNL     1       1.888  -8.880  24.872  0.00  0.00    +0.343 C 
ATOM     29  O   UNL     1       1.519  -8.646  23.731  0.00  0.00    -0.247 OA
BRANCH  28  30
ATOM     30  O   UNL     1       2.264 -10.122  25.280  0.00  0.00    -0.478 OA
ATOM     31  H   UNL     1       1.835 -10.798  24.708  0.00  0.00    +0.295 HD
ENDBRANCH  28  30
ENDBRANCH  27  28
ENDBRANCH  26  27
ENDBRANCH  22  26
ENDBRANCH  18  19
ENDBRANCH  17  18
ENDBRANCH   6  17
TORSDOF 9
ENDMDL
