MODEL 1
REMARK VINA RESULT:      -7.1      0.000      0.000
REMARK  Name = 
REMARK  8 active torsions:
REMARK  status: ('A' for Active; 'I' for Inactive)
REMARK    1  A    between atoms: C_7  and  C_11
REMARK    2  A    between atoms: C_14  and  C_16
REMARK    3  A    between atoms: C_16  and  O_17
REMARK    4  A    between atoms: O_17  and  P_18
REMARK    5  A    between atoms: P_18  and  O_19
REMARK    6  A    between atoms: P_18  and  O_20
REMARK    7  A    between atoms: C_22  and  O_24
REMARK    8  A    between atoms: C_25  and  O_27
REMARK                            x       y       z     vdW  Elec       q    Type
REMARK                         _______ _______ _______ _____ _____    ______ ____
ROOT
ATOM      1  C   UNL     1       9.099  -3.401  23.296  0.00  0.00    +0.200 C 
ATOM      2  C   UNL     1       9.451  -3.701  24.757  0.00  0.00    +0.180 C 
ATOM      3  C   UNL     1       8.148  -3.494  25.528  0.00  0.00    +0.177 C 
ATOM      4  C   UNL     1       7.090  -3.296  24.445  0.00  0.00    +0.176 C 
ATOM      5  O   UNL     1       7.688  -3.691  23.190  0.00  0.00    -0.360 OA
ENDROOT
BRANCH   1  12
ATOM      6  N   UNL     1      10.383   2.539  21.928  0.00  0.00    -0.341 N 
ATOM      7  H   UNL     1       9.829   2.452  21.085  0.00  0.00    +0.144 HD
ATOM      8  H   UNL     1      10.377   3.425  22.416  0.00  0.00    +0.144 HD
ATOM      9  C   UNL     1      10.255   1.462  22.796  0.00  0.00    +0.147 A 
ATOM     10  C   UNL     1       9.806   0.168  22.426  0.00  0.00    +0.150 A 
ATOM     11  C   UNL     1       9.747  -0.864  23.425  0.00  0.00    +0.119 A 
ATOM     12  C   UNL     1       9.305  -2.009  22.823  0.00  0.00    +0.093 A 
ATOM     13  N   UNL     1       9.115  -1.639  21.517  0.00  0.00    -0.276 N 
ATOM     14  H   UNL     1       8.789  -2.231  20.759  0.00  0.00    +0.189 HD
ATOM     15  N   UNL     1      10.086  -0.718  24.720  0.00  0.00    -0.232 NA
ATOM     16  C   UNL     1      10.465   0.564  24.962  0.00  0.00    +0.224 A 
ATOM     17  N   UNL     1       9.386  -0.342  21.247  0.00  0.00    -0.168 NA
ATOM     18  N   UNL     1      10.563   1.628  24.107  0.00  0.00    -0.219 NA
ENDBRANCH   1  12
BRANCH   2  19
ATOM     19  O   UNL     1       9.844  -5.085  24.889  0.00  0.00    -0.386 OA
ATOM     20  H   UNL     1      10.780  -5.163  24.637  0.00  0.00    +0.210 HD
ENDBRANCH   2  19
BRANCH   3  21
ATOM     21  O   UNL     1       8.222  -2.340  26.363  0.00  0.00    -0.386 OA
ATOM     22  H   UNL     1       7.358  -1.896  26.347  0.00  0.00    +0.210 HD
ENDBRANCH   3  21
BRANCH   4  23
ATOM     23  C   UNL     1       5.829  -4.111  24.709  0.00  0.00    +0.206 C 
BRANCH  23  24
ATOM     24  O   UNL     1       6.033  -5.447  24.269  0.00  0.00    -0.284 OA
BRANCH  24  25
ATOM     25  P   UNL     1       4.983  -6.032  23.210  0.00  0.00    +0.472 P 
ATOM     26  O   UNL     1       3.919  -5.086  22.784  0.00  0.00    -0.228 OA
BRANCH  25  27
ATOM     27  O   UNL     1       4.496  -7.365  23.936  0.00  0.00    -0.303 OA
ATOM     28  H   UNL     1       3.538  -7.381  24.096  0.00  0.00    +0.222 HD
ENDBRANCH  25  27
BRANCH  25  29
ATOM     29  O   UNL     1       5.962  -6.578  22.080  0.00  0.00    -0.303 OA
ATOM     30  H   UNL     1       6.752  -6.017  22.000  0.00  0.00    +0.222 HD
ENDBRANCH  25  29
ENDBRANCH  24  25
ENDBRANCH  23  24
ENDBRANCH   4  23
TORSDOF 8
ENDMDL
MODEL 2
REMARK VINA RESULT:      -7.0      4.465      6.867
REMARK  Name = 
REMARK  8 active torsions:
REMARK  status: ('A' for Active; 'I' for Inactive)
REMARK    1  A    between atoms: C_7  and  C_11
REMARK    2  A    between atoms: C_14  and  C_16
REMARK    3  A    between atoms: C_16  and  O_17
REMARK    4  A    between atoms: O_17  and  P_18
REMARK    5  A    between atoms: P_18  and  O_19
REMARK    6  A    between atoms: P_18  and  O_20
REMARK    7  A    between atoms: C_22  and  O_24
REMARK    8  A    between atoms: C_25  and  O_27
REMARK                            x       y       z     vdW  Elec       q    Type
REMARK                         _______ _______ _______ _____ _____    ______ ____
ROOT
ATOM      1  C   UNL     1       9.068  -2.214  23.047  0.00  0.00    +0.200 C 
ATOM      2  C   UNL     1       8.487  -1.287  21.973  0.00  0.00    +0.180 C 
ATOM      3  C   UNL     1       7.996  -0.058  22.736  0.00  0.00    +0.177 C 
ATOM      4  C   UNL     1       8.511  -0.261  24.160  0.00  0.00    +0.176 C 
ATOM      5  O   UNL     1       9.480  -1.331  24.112  0.00  0.00    -0.360 OA
ENDROOT
BRANCH   1  12
ATOM      6  N   UNL     1       5.602  -6.354  26.153  0.00  0.00    -0.341 N 
ATOM      7  H   UNL     1       5.073  -6.528  25.307  0.00  0.00    +0.144 HD
ATOM      8  H   UNL     1       5.767  -7.128  26.782  0.00  0.00    +0.144 HD
ATOM      9  C   UNL     1       6.743  -5.589  25.952  0.00  0.00    +0.147 A 
ATOM     10  C   UNL     1       6.965  -4.734  24.842  0.00  0.00    +0.150 A 
ATOM     11  C   UNL     1       8.185  -3.977  24.775  0.00  0.00    +0.119 A 
ATOM     12  C   UNL     1       8.153  -3.225  23.633  0.00  0.00    +0.093 A 
ATOM     13  N   UNL     1       6.949  -3.547  23.064  0.00  0.00    -0.276 N 
ATOM     14  H   UNL     1       6.570  -3.181  22.196  0.00  0.00    +0.189 HD
ATOM     15  N   UNL     1       9.172  -4.002  25.691  0.00  0.00    -0.232 NA
ATOM     16  C   UNL     1       8.864  -4.877  26.684  0.00  0.00    +0.224 A 
ATOM     17  N   UNL     1       6.220  -4.458  23.748  0.00  0.00    -0.168 NA
ATOM     18  N   UNL     1       7.749  -5.649  26.862  0.00  0.00    -0.219 NA
ENDBRANCH   1  12
BRANCH   2  19
ATOM     19  O   UNL     1       9.534  -0.873  21.068  0.00  0.00    -0.386 OA
ATOM     20  H   UNL     1      10.090  -1.647  20.869  0.00  0.00    +0.210 HD
ENDBRANCH   2  19
BRANCH   3  21
ATOM     21  O   UNL     1       6.572   0.016  22.732  0.00  0.00    -0.386 OA
ATOM     22  H   UNL     1       6.285   0.331  21.858  0.00  0.00    +0.210 HD
ENDBRANCH   3  21
BRANCH   4  23
ATOM     23  C   UNL     1       9.145   1.002  24.733  0.00  0.00    +0.206 C 
BRANCH  23  24
ATOM     24  O   UNL     1      10.333   1.299  24.012  0.00  0.00    -0.284 OA
BRANCH  24  25
ATOM     25  P   UNL     1      10.368   2.681  23.204  0.00  0.00    +0.472 P 
ATOM     26  O   UNL     1      11.520   3.568  23.514  0.00  0.00    -0.228 OA
BRANCH  25  27
ATOM     27  O   UNL     1       8.918   3.273  23.506  0.00  0.00    -0.303 OA
ATOM     28  H   UNL     1       8.911   3.901  24.247  0.00  0.00    +0.222 HD
ENDBRANCH  25  27
BRANCH  25  29
ATOM     29  O   UNL     1      10.237   2.162  21.705  0.00  0.00    -0.303 OA
ATOM     30  H   UNL     1      10.949   1.537  21.488  0.00  0.00    +0.222 HD
ENDBRANCH  25  29
ENDBRANCH  24  25
ENDBRANCH  23  24
ENDBRANCH   4  23
TORSDOF 8
ENDMDL
MODEL 3
REMARK VINA RESULT:      -7.0      4.319      6.777
REMARK  Name = 
REMARK  8 active torsions:
REMARK  status: ('A' for Active; 'I' for Inactive)
REMARK    1  A    between atoms: C_7  and  C_11
REMARK    2  A    between atoms: C_14  and  C_16
REMARK    3  A    between atoms: C_16  and  O_17
REMARK    4  A    between atoms: O_17  and  P_18
REMARK    5  A    between atoms: P_18  and  O_19
REMARK    6  A    between atoms: P_18  and  O_20
REMARK    7  A    between atoms: C_22  and  O_24
REMARK    8  A    between atoms: C_25  and  O_27
REMARK                            x       y       z     vdW  Elec       q    Type
REMARK                         _______ _______ _______ _____ _____    ______ ____
ROOT
ATOM      1  C   UNL     1       6.961  -1.619  23.869  0.00  0.00    +0.200 C 
ATOM      2  C   UNL     1       8.198  -1.687  24.772  0.00  0.00    +0.180 C 
ATOM      3  C   UNL     1       9.368  -1.926  23.819  0.00  0.00    +0.177 C 
ATOM      4  C   UNL     1       8.765  -1.770  22.425  0.00  0.00    +0.176 C 
ATOM      5  O   UNL     1       7.462  -1.170  22.591  0.00  0.00    -0.360 OA
ENDROOT
BRANCH   1  12
ATOM      6  N   UNL     1       3.901  -7.040  23.648  0.00  0.00    -0.341 N 
ATOM      7  H   UNL     1       3.813  -6.935  22.644  0.00  0.00    +0.144 HD
ATOM      8  H   UNL     1       4.024  -7.970  24.023  0.00  0.00    +0.144 HD
ATOM      9  C   UNL     1       4.762  -6.120  24.232  0.00  0.00    +0.147 A 
ATOM     10  C   UNL     1       5.141  -4.880  23.658  0.00  0.00    +0.150 A 
ATOM     11  C   UNL     1       6.022  -4.010  24.389  0.00  0.00    +0.119 A 
ATOM     12  C   UNL     1       6.220  -2.884  23.639  0.00  0.00    +0.093 A 
ATOM     13  N   UNL     1       5.475  -3.107  22.511  0.00  0.00    -0.276 N 
ATOM     14  H   UNL     1       5.374  -2.482  21.717  0.00  0.00    +0.189 HD
ATOM     15  N   UNL     1       6.541  -4.267  25.605  0.00  0.00    -0.232 NA
ATOM     16  C   UNL     1       6.137  -5.490  26.036  0.00  0.00    +0.224 A 
ATOM     17  N   UNL     1       4.832  -4.296  22.478  0.00  0.00    -0.168 NA
ATOM     18  N   UNL     1       5.310  -6.403  25.441  0.00  0.00    -0.219 NA
ENDBRANCH   1  12
BRANCH   2  19
ATOM     19  O   UNL     1       8.395  -0.415  25.426  0.00  0.00    -0.386 OA
ATOM     20  H   UNL     1       8.820   0.191  24.795  0.00  0.00    +0.210 HD
ENDBRANCH   2  19
BRANCH   3  21
ATOM     21  O   UNL     1       9.904  -3.238  23.982  0.00  0.00    -0.386 OA
ATOM     22  H   UNL     1       9.165  -3.870  23.999  0.00  0.00    +0.210 HD
ENDBRANCH   3  21
BRANCH   4  23
ATOM     23  C   UNL     1       9.631  -0.910  21.511  0.00  0.00    +0.206 C 
BRANCH  23  24
ATOM     24  O   UNL     1      10.194   0.155  22.265  0.00  0.00    -0.284 OA
BRANCH  24  25
ATOM     25  P   UNL     1       9.423   1.559  22.230  0.00  0.00    +0.472 P 
ATOM     26  O   UNL     1       8.738   1.935  23.495  0.00  0.00    -0.228 OA
BRANCH  25  27
ATOM     27  O   UNL     1       8.494   1.389  20.945  0.00  0.00    -0.303 OA
ATOM     28  H   UNL     1       8.986   1.112  20.155  0.00  0.00    +0.222 HD
ENDBRANCH  25  27
BRANCH  25  29
ATOM     29  O   UNL     1      10.575   2.527  21.714  0.00  0.00    -0.303 OA
ATOM     30  H   UNL     1      11.349   2.496  22.302  0.00  0.00    +0.222 HD
ENDBRANCH  25  29
ENDBRANCH  24  25
ENDBRANCH  23  24
ENDBRANCH   4  23
TORSDOF 8
ENDMDL
MODEL 4
REMARK VINA RESULT:      -6.9      1.429      2.199
REMARK  Name = 
REMARK  8 active torsions:
REMARK  status: ('A' for Active; 'I' for Inactive)
REMARK    1  A    between atoms: C_7  and  C_11
REMARK    2  A    between atoms: C_14  and  C_16
REMARK    3  A    between atoms: C_16  and  O_17
REMARK    4  A    between atoms: O_17  and  P_18
REMARK    5  A    between atoms: P_18  and  O_19
REMARK    6  A    between atoms: P_18  and  O_20
REMARK    7  A    between atoms: C_22  and  O_24
REMARK    8  A    between atoms: C_25  and  O_27
REMARK                            x       y       z     vdW  Elec       q    Type
REMARK                         _______ _______ _______ _____ _____    ______ ____
ROOT
ATOM      1  C   UNL     1       9.576  -3.039  24.113  0.00  0.00    +0.200 C 
ATOM      2  C   UNL     1       9.359  -4.141  25.156  0.00  0.00    +0.180 C 
ATOM      3  C   UNL     1       7.904  -4.572  24.978  0.00  0.00    +0.177 C 
ATOM      4  C   UNL     1       7.442  -3.848  23.715  0.00  0.00    +0.176 C 
ATOM      5  O   UNL     1       8.625  -3.330  23.066  0.00  0.00    -0.360 OA
ENDROOT
BRANCH   1  12
ATOM      6  N   UNL     1       8.644   3.021  25.217  0.00  0.00    -0.341 N 
ATOM      7  H   UNL     1       8.586   2.818  26.208  0.00  0.00    +0.144 HD
ATOM      8  H   UNL     1       9.064   3.894  24.930  0.00  0.00    +0.144 HD
ATOM      9  C   UNL     1       9.088   1.949  24.453  0.00  0.00    +0.147 A 
ATOM     10  C   UNL     1       9.040   0.589  24.852  0.00  0.00    +0.150 A 
ATOM     11  C   UNL     1       9.511  -0.423  23.947  0.00  0.00    +0.119 A 
ATOM     12  C   UNL     1       9.345  -1.639  24.549  0.00  0.00    +0.093 A 
ATOM     13  N   UNL     1       8.796  -1.328  25.766  0.00  0.00    -0.276 N 
ATOM     14  H   UNL     1       8.530  -1.981  26.497  0.00  0.00    +0.189 HD
ATOM     15  N   UNL     1      10.011  -0.199  22.716  0.00  0.00    -0.232 NA
ATOM     16  C   UNL     1      10.039   1.134  22.460  0.00  0.00    +0.224 A 
ATOM     17  N   UNL     1       8.617  -0.007  25.990  0.00  0.00    -0.168 NA
ATOM     18  N   UNL     1       9.626   2.187  23.230  0.00  0.00    -0.219 NA
ENDBRANCH   1  12
BRANCH   2  19
ATOM     19  O   UNL     1      10.209  -5.269  24.858  0.00  0.00    -0.386 OA
ATOM     20  H   UNL     1      11.134  -4.967  24.868  0.00  0.00    +0.210 HD
ENDBRANCH   2  19
BRANCH   3  21
ATOM     21  O   UNL     1       7.109  -4.175  26.094  0.00  0.00    -0.386 OA
ATOM     22  H   UNL     1       7.499  -3.371  26.476  0.00  0.00    +0.210 HD
ENDBRANCH   3  21
BRANCH   4  23
ATOM     23  C   UNL     1       6.677  -4.765  22.767  0.00  0.00    +0.206 C 
BRANCH  23  24
ATOM     24  O   UNL     1       6.169  -5.874  23.496  0.00  0.00    -0.284 OA
BRANCH  24  25
ATOM     25  P   UNL     1       4.585  -5.927  23.730  0.00  0.00    +0.472 P 
ATOM     26  O   UNL     1       3.772  -5.201  22.720  0.00  0.00    -0.228 OA
BRANCH  25  27
ATOM     27  O   UNL     1       4.461  -5.420  25.237  0.00  0.00    -0.303 OA
ATOM     28  H   UNL     1       3.704  -4.827  25.376  0.00  0.00    +0.222 HD
ENDBRANCH  25  27
BRANCH  25  29
ATOM     29  O   UNL     1       4.349  -7.495  23.860  0.00  0.00    -0.303 OA
ATOM     30  H   UNL     1       3.400  -7.707  23.866  0.00  0.00    +0.222 HD
ENDBRANCH  25  29
ENDBRANCH  24  25
ENDBRANCH  23  24
ENDBRANCH   4  23
TORSDOF 8
ENDMDL
MODEL 5
REMARK VINA RESULT:      -6.9      4.362      6.963
REMARK  Name = 
REMARK  8 active torsions:
REMARK  status: ('A' for Active; 'I' for Inactive)
REMARK    1  A    between atoms: C_7  and  C_11
REMARK    2  A    between atoms: C_14  and  C_16
REMARK    3  A    between atoms: C_16  and  O_17
REMARK    4  A    between atoms: O_17  and  P_18
REMARK    5  A    between atoms: P_18  and  O_19
REMARK    6  A    between atoms: P_18  and  O_20
REMARK    7  A    between atoms: C_22  and  O_24
REMARK    8  A    between atoms: C_25  and  O_27
REMARK                            x       y       z     vdW  Elec       q    Type
REMARK                         _______ _______ _______ _____ _____    ______ ____
ROOT
ATOM      1  C   UNL     1       9.104  -2.469  24.270  0.00  0.00    +0.200 C 
ATOM      2  C   UNL     1       8.582  -2.271  22.842  0.00  0.00    +0.180 C 
ATOM      3  C   UNL     1       7.625  -1.082  22.934  0.00  0.00    +0.177 C 
ATOM      4  C   UNL     1       7.818  -0.544  24.349  0.00  0.00    +0.176 C 
ATOM      5  O   UNL     1       9.010  -1.164  24.881  0.00  0.00    -0.360 OA
ENDROOT
BRANCH   1  12
ATOM      6  N   UNL     1       5.704  -6.743  27.266  0.00  0.00    -0.341 N 
ATOM      7  H   UNL     1       6.073  -6.401  28.145  0.00  0.00    +0.144 HD
ATOM      8  H   UNL     1       4.749  -7.072  27.242  0.00  0.00    +0.144 HD
ATOM      9  C   UNL     1       6.006  -5.931  26.180  0.00  0.00    +0.147 A 
ATOM     10  C   UNL     1       7.068  -4.992  26.136  0.00  0.00    +0.150 A 
ATOM     11  C   UNL     1       7.283  -4.234  24.934  0.00  0.00    +0.119 A 
ATOM     12  C   UNL     1       8.364  -3.421  25.135  0.00  0.00    +0.093 A 
ATOM     13  N   UNL     1       8.753  -3.706  26.418  0.00  0.00    -0.276 N 
ATOM     14  H   UNL     1       9.531  -3.292  26.923  0.00  0.00    +0.189 HD
ATOM     15  N   UNL     1       6.550  -4.331  23.808  0.00  0.00    -0.232 NA
ATOM     16  C   UNL     1       5.547  -5.231  23.980  0.00  0.00    +0.224 A 
ATOM     17  N   UNL     1       7.991  -4.625  27.053  0.00  0.00    -0.168 NA
ATOM     18  N   UNL     1       5.239  -6.007  25.063  0.00  0.00    -0.219 NA
ENDBRANCH   1  12
BRANCH   2  19
ATOM     19  O   UNL     1       9.674  -1.911  21.969  0.00  0.00    -0.386 OA
ATOM     20  H   UNL     1       9.506  -2.300  21.093  0.00  0.00    +0.210 HD
ENDBRANCH   2  19
BRANCH   3  21
ATOM     21  O   UNL     1       6.273  -1.494  22.741  0.00  0.00    -0.386 OA
ATOM     22  H   UNL     1       6.275  -2.314  22.219  0.00  0.00    +0.210 HD
ENDBRANCH   3  21
BRANCH   4  23
ATOM     23  C   UNL     1       7.954   0.975  24.379  0.00  0.00    +0.206 C 
BRANCH  23  24
ATOM     24  O   UNL     1       8.407   1.431  23.112  0.00  0.00    -0.284 OA
BRANCH  24  25
ATOM     25  P   UNL     1       9.910   1.978  23.031  0.00  0.00    +0.472 P 
ATOM     26  O   UNL     1      10.202   3.156  23.889  0.00  0.00    -0.228 OA
BRANCH  25  27
ATOM     27  O   UNL     1      10.099   2.181  21.461  0.00  0.00    -0.303 OA
ATOM     28  H   UNL     1      11.031   2.257  21.197  0.00  0.00    +0.222 HD
ENDBRANCH  25  27
BRANCH  25  29
ATOM     29  O   UNL     1      10.735   0.648  23.321  0.00  0.00    -0.303 OA
ATOM     30  H   UNL     1      11.419   0.801  23.995  0.00  0.00    +0.222 HD
ENDBRANCH  25  29
ENDBRANCH  24  25
ENDBRANCH  23  24
ENDBRANCH   4  23
TORSDOF 8
ENDMDL
MODEL 6
REMARK VINA RESULT:      -6.9      2.226      2.962
REMARK  Name = 
REMARK  8 active torsions:
REMARK  status: ('A' for Active; 'I' for Inactive)
REMARK    1  A    between atoms: C_7  and  C_11
REMARK    2  A    between atoms: C_14  and  C_16
REMARK    3  A    between atoms: C_16  and  O_17
REMARK    4  A    between atoms: O_17  and  P_18
REMARK    5  A    between atoms: P_18  and  O_19
REMARK    6  A    between atoms: P_18  and  O_20
REMARK    7  A    between atoms: C_22  and  O_24
REMARK    8  A    between atoms: C_25  and  O_27
REMARK                            x       y       z     vdW  Elec       q    Type
REMARK                         _______ _______ _______ _____ _____    ______ ____
ROOT
ATOM      1  C   UNL     1       7.279  -2.945  23.344  0.00  0.00    +0.200 C 
ATOM      2  C   UNL     1       7.934  -4.330  23.323  0.00  0.00    +0.180 C 
ATOM      3  C   UNL     1       8.599  -4.472  24.692  0.00  0.00    +0.177 C 
ATOM      4  C   UNL     1       8.110  -3.261  25.483  0.00  0.00    +0.176 C 
ATOM      5  O   UNL     1       7.014  -2.684  24.739  0.00  0.00    -0.360 OA
ENDROOT
BRANCH   1  12
ATOM      6  N   UNL     1      10.167   2.266  21.527  0.00  0.00    -0.341 N 
ATOM      7  H   UNL     1      10.824   1.704  21.000  0.00  0.00    +0.144 HD
ATOM      8  H   UNL     1       9.896   3.165  21.151  0.00  0.00    +0.144 HD
ATOM      9  C   UNL     1       9.079   1.550  22.009  0.00  0.00    +0.147 A 
ATOM     10  C   UNL     1       9.045   0.144  22.191  0.00  0.00    +0.150 A 
ATOM     11  C   UNL     1       7.858  -0.464  22.726  0.00  0.00    +0.119 A 
ATOM     12  C   UNL     1       8.079  -1.810  22.821  0.00  0.00    +0.093 A 
ATOM     13  N   UNL     1       9.357  -1.965  22.351  0.00  0.00    -0.276 N 
ATOM     14  H   UNL     1       9.873  -2.835  22.270  0.00  0.00    +0.189 HD
ATOM     15  N   UNL     1       6.736   0.192  23.081  0.00  0.00    -0.232 NA
ATOM     16  C   UNL     1       6.873   1.520  22.831  0.00  0.00    +0.224 A 
ATOM     17  N   UNL     1       9.958  -0.823  21.949  0.00  0.00    -0.168 NA
ATOM     18  N   UNL     1       7.939   2.215  22.329  0.00  0.00    -0.219 NA
ENDBRANCH   1  12
BRANCH   2  19
ATOM     19  O   UNL     1       6.918  -5.349  23.202  0.00  0.00    -0.386 OA
ATOM     20  H   UNL     1       7.358  -6.216  23.153  0.00  0.00    +0.210 HD
ENDBRANCH   2  19
BRANCH   3  21
ATOM     21  O   UNL     1      10.021  -4.447  24.579  0.00  0.00    -0.386 OA
ATOM     22  H   UNL     1      10.392  -5.016  25.274  0.00  0.00    +0.210 HD
ENDBRANCH   3  21
BRANCH   4  23
ATOM     23  C   UNL     1       7.656  -3.632  26.891  0.00  0.00    +0.206 C 
BRANCH  23  24
ATOM     24  O   UNL     1       6.316  -4.104  26.843  0.00  0.00    -0.284 OA
BRANCH  24  25
ATOM     25  P   UNL     1       6.051  -5.596  27.360  0.00  0.00    +0.472 P 
ATOM     26  O   UNL     1       4.946  -5.738  28.344  0.00  0.00    -0.228 OA
BRANCH  25  27
ATOM     27  O   UNL     1       7.502  -6.032  27.859  0.00  0.00    -0.303 OA
ATOM     28  H   UNL     1       7.854  -6.800  27.379  0.00  0.00    +0.222 HD
ENDBRANCH  25  27
BRANCH  25  29
ATOM     29  O   UNL     1       5.898  -6.375  25.981  0.00  0.00    -0.303 OA
ATOM     30  H   UNL     1       5.052  -6.162  25.551  0.00  0.00    +0.222 HD
ENDBRANCH  25  29
ENDBRANCH  24  25
ENDBRANCH  23  24
ENDBRANCH   4  23
TORSDOF 8
ENDMDL
MODEL 7
REMARK VINA RESULT:      -6.9      2.338      3.483
REMARK  Name = 
REMARK  8 active torsions:
REMARK  status: ('A' for Active; 'I' for Inactive)
REMARK    1  A    between atoms: C_7  and  C_11
REMARK    2  A    between atoms: C_14  and  C_16
REMARK    3  A    between atoms: C_16  and  O_17
REMARK    4  A    between atoms: O_17  and  P_18
REMARK    5  A    between atoms: P_18  and  O_19
REMARK    6  A    between atoms: P_18  and  O_20
REMARK    7  A    between atoms: C_22  and  O_24
REMARK    8  A    between atoms: C_25  and  O_27
REMARK                            x       y       z     vdW  Elec       q    Type
REMARK                         _______ _______ _______ _____ _____    ______ ____
ROOT
ATOM      1  C   UNL     1       5.960  -2.830  22.588  0.00  0.00    +0.200 C 
ATOM      2  C   UNL     1       6.732  -4.036  22.043  0.00  0.00    +0.180 C 
ATOM      3  C   UNL     1       7.039  -4.895  23.270  0.00  0.00    +0.177 C 
ATOM      4  C   UNL     1       6.248  -4.242  24.401  0.00  0.00    +0.176 C 
ATOM      5  O   UNL     1       5.326  -3.312  23.793  0.00  0.00    -0.360 OA
ENDROOT
BRANCH   1  12
ATOM      6  N   UNL     1       9.833   1.922  23.691  0.00  0.00    -0.341 N 
ATOM      7  H   UNL     1       9.118   2.356  24.264  0.00  0.00    +0.144 HD
ATOM      8  H   UNL     1      10.800   2.035  23.965  0.00  0.00    +0.144 HD
ATOM      9  C   UNL     1       9.541   0.614  23.328  0.00  0.00    +0.147 A 
ATOM     10  C   UNL     1       8.243   0.043  23.316  0.00  0.00    +0.150 A 
ATOM     11  C   UNL     1       8.082  -1.321  22.890  0.00  0.00    +0.119 A 
ATOM     12  C   UNL     1       6.751  -1.628  22.950  0.00  0.00    +0.093 A 
ATOM     13  N   UNL     1       6.169  -0.471  23.400  0.00  0.00    -0.276 N 
ATOM     14  H   UNL     1       5.180  -0.315  23.570  0.00  0.00    +0.189 HD
ATOM     15  N   UNL     1       9.076  -2.136  22.490  0.00  0.00    -0.232 NA
ATOM     16  C   UNL     1      10.270  -1.494  22.576  0.00  0.00    +0.224 A 
ATOM     17  N   UNL     1       7.030   0.541  23.647  0.00  0.00    -0.168 NA
ATOM     18  N   UNL     1      10.553  -0.213  22.962  0.00  0.00    -0.219 NA
ENDBRANCH   1  12
BRANCH   2  19
ATOM     19  O   UNL     1       5.885  -4.797  21.155  0.00  0.00    -0.386 OA
ATOM     20  H   UNL     1       6.431  -5.470  20.713  0.00  0.00    +0.210 HD
ENDBRANCH   2  19
BRANCH   3  21
ATOM     21  O   UNL     1       8.433  -4.883  23.570  0.00  0.00    -0.386 OA
ATOM     22  H   UNL     1       8.568  -4.352  24.373  0.00  0.00    +0.210 HD
ENDBRANCH   3  21
BRANCH   4  23
ATOM     23  C   UNL     1       5.491  -5.263  25.245  0.00  0.00    +0.206 C 
BRANCH  23  24
ATOM     24  O   UNL     1       6.422  -6.048  25.977  0.00  0.00    -0.284 OA
BRANCH  24  25
ATOM     25  P   UNL     1       7.248  -5.308  27.133  0.00  0.00    +0.472 P 
ATOM     26  O   UNL     1       6.725  -3.975  27.530  0.00  0.00    -0.228 OA
BRANCH  25  27
ATOM     27  O   UNL     1       8.731  -5.340  26.546  0.00  0.00    -0.303 OA
ATOM     28  H   UNL     1       9.368  -5.760  27.147  0.00  0.00    +0.222 HD
ENDBRANCH  25  27
BRANCH  25  29
ATOM     29  O   UNL     1       7.283  -6.436  28.254  0.00  0.00    -0.303 OA
ATOM     30  H   UNL     1       7.025  -7.300  27.889  0.00  0.00    +0.222 HD
ENDBRANCH  25  29
ENDBRANCH  24  25
ENDBRANCH  23  24
ENDBRANCH   4  23
TORSDOF 8
ENDMDL
MODEL 8
REMARK VINA RESULT:      -6.8      5.056      7.118
REMARK  Name = 
REMARK  8 active torsions:
REMARK  status: ('A' for Active; 'I' for Inactive)
REMARK    1  A    between atoms: C_7  and  C_11
REMARK    2  A    between atoms: C_14  and  C_16
REMARK    3  A    between atoms: C_16  and  O_17
REMARK    4  A    between atoms: O_17  and  P_18
REMARK    5  A    between atoms: P_18  and  O_19
REMARK    6  A    between atoms: P_18  and  O_20
REMARK    7  A    between atoms: C_22  and  O_24
REMARK    8  A    between atoms: C_25  and  O_27
REMARK                            x       y       z     vdW  Elec       q    Type
REMARK                         _______ _______ _______ _____ _____    ______ ____
ROOT
ATOM      1  C   UNL     1       9.688   1.081  23.719  0.00  0.00    +0.200 C 
ATOM      2  C   UNL     1      10.081   1.654  22.353  0.00  0.00    +0.180 C 
ATOM      3  C   UNL     1       8.764   1.794  21.590  0.00  0.00    +0.177 C 
ATOM      4  C   UNL     1       7.686   1.494  22.629  0.00  0.00    +0.176 C 
ATOM      5  O   UNL     1       8.326   1.517  23.924  0.00  0.00    -0.360 OA
ENDROOT
BRANCH   1  12
ATOM      6  N   UNL     1       9.207  -5.034  24.807  0.00  0.00    -0.341 N 
ATOM      7  H   UNL     1       9.977  -5.195  24.168  0.00  0.00    +0.144 HD
ATOM      8  H   UNL     1       9.123  -5.633  25.617  0.00  0.00    +0.144 HD
ATOM      9  C   UNL     1       9.014  -3.695  25.122  0.00  0.00    +0.147 A 
ATOM     10  C   UNL     1       9.475  -2.601  24.346  0.00  0.00    +0.150 A 
ATOM     11  C   UNL     1       9.179  -1.262  24.779  0.00  0.00    +0.119 A 
ATOM     12  C   UNL     1       9.709  -0.396  23.863  0.00  0.00    +0.093 A 
ATOM     13  N   UNL     1      10.293  -1.219  22.935  0.00  0.00    -0.276 N 
ATOM     14  H   UNL     1      10.791  -0.932  22.098  0.00  0.00    +0.189 HD
ATOM     15  N   UNL     1       8.487  -0.935  25.887  0.00  0.00    -0.232 NA
ATOM     16  C   UNL     1       8.130  -2.057  26.563  0.00  0.00    +0.224 A 
ATOM     17  N   UNL     1      10.189  -2.540  23.200  0.00  0.00    -0.168 NA
ATOM     18  N   UNL     1       8.348  -3.373  26.260  0.00  0.00    -0.219 NA
ENDBRANCH   1  12
BRANCH   2  19
ATOM     19  O   UNL     1      10.651   2.970  22.522  0.00  0.00    -0.386 OA
ATOM     20  H   UNL     1      11.273   3.131  21.791  0.00  0.00    +0.210 HD
ENDBRANCH   2  19
BRANCH   3  21
ATOM     21  O   UNL     1       8.690   0.858  20.516  0.00  0.00    -0.386 OA
ATOM     22  H   UNL     1       8.270   1.297  19.757  0.00  0.00    +0.210 HD
ENDBRANCH   3  21
BRANCH   4  23
ATOM     23  C   UNL     1       6.543   2.503  22.586  0.00  0.00    +0.206 C 
BRANCH  23  24
ATOM     24  O   UNL     1       6.943   3.634  21.824  0.00  0.00    -0.284 OA
BRANCH  24  25
ATOM     25  P   UNL     1       7.099   5.022  22.609  0.00  0.00    +0.472 P 
ATOM     26  O   UNL     1       5.902   5.450  23.380  0.00  0.00    -0.228 OA
BRANCH  25  27
ATOM     27  O   UNL     1       7.580   6.001  21.446  0.00  0.00    -0.303 OA
ATOM     28  H   UNL     1       8.431   6.429  21.639  0.00  0.00    +0.222 HD
ENDBRANCH  25  27
BRANCH  25  29
ATOM     29  O   UNL     1       8.435   4.759  23.432  0.00  0.00    -0.303 OA
ATOM     30  H   UNL     1       8.324   5.004  24.366  0.00  0.00    +0.222 HD
ENDBRANCH  25  29
ENDBRANCH  24  25
ENDBRANCH  23  24
ENDBRANCH   4  23
TORSDOF 8
ENDMDL
MODEL 9
REMARK VINA RESULT:      -6.7      2.280      3.344
REMARK  Name = 
REMARK  8 active torsions:
REMARK  status: ('A' for Active; 'I' for Inactive)
REMARK    1  A    between atoms: C_7  and  C_11
REMARK    2  A    between atoms: C_14  and  C_16
REMARK    3  A    between atoms: C_16  and  O_17
REMARK    4  A    between atoms: O_17  and  P_18
REMARK    5  A    between atoms: P_18  and  O_19
REMARK    6  A    between atoms: P_18  and  O_20
REMARK    7  A    between atoms: C_22  and  O_24
REMARK    8  A    between atoms: C_25  and  O_27
REMARK                            x       y       z     vdW  Elec       q    Type
REMARK                         _______ _______ _______ _____ _____    ______ ____
ROOT
ATOM      1  C   UNL     1       6.577  -1.501  25.292  0.00  0.00    +0.200 C 
ATOM      2  C   UNL     1       5.225  -2.078  24.858  0.00  0.00    +0.180 C 
ATOM      3  C   UNL     1       5.563  -3.393  24.157  0.00  0.00    +0.177 C 
ATOM      4  C   UNL     1       7.055  -3.592  24.417  0.00  0.00    +0.176 C 
ATOM      5  O   UNL     1       7.436  -2.652  25.446  0.00  0.00    -0.360 OA
ENDROOT
BRANCH   1  12
ATOM      6  N   UNL     1      10.033   2.205  21.668  0.00  0.00    -0.341 N 
ATOM      7  H   UNL     1       9.187   2.528  21.214  0.00  0.00    +0.144 HD
ATOM      8  H   UNL     1      10.789   2.863  21.798  0.00  0.00    +0.144 HD
ATOM      9  C   UNL     1       9.799   1.443  22.807  0.00  0.00    +0.147 A 
ATOM     10  C   UNL     1       8.587   0.769  23.101  0.00  0.00    +0.150 A 
ATOM     11  C   UNL     1       8.493  -0.008  24.307  0.00  0.00    +0.119 A 
ATOM     12  C   UNL     1       7.246  -0.567  24.353  0.00  0.00    +0.093 A 
ATOM     13  N   UNL     1       6.645  -0.118  23.206  0.00  0.00    -0.276 N 
ATOM     14  H   UNL     1       5.702  -0.328  22.893  0.00  0.00    +0.189 HD
ATOM     15  N   UNL     1       9.476  -0.162  25.215  0.00  0.00    -0.232 NA
ATOM     16  C   UNL     1      10.570   0.554  24.846  0.00  0.00    +0.224 A 
ATOM     17  N   UNL     1       7.408   0.696  22.443  0.00  0.00    -0.168 NA
ATOM     18  N   UNL     1      10.782   1.325  23.735  0.00  0.00    -0.219 NA
ENDBRANCH   1  12
BRANCH   2  19
ATOM     19  O   UNL     1       4.424  -2.374  26.023  0.00  0.00    -0.386 OA
ATOM     20  H   UNL     1       4.847  -1.963  26.797  0.00  0.00    +0.210 HD
ENDBRANCH   2  19
BRANCH   3  21
ATOM     21  O   UNL     1       5.312  -3.309  22.756  0.00  0.00    -0.386 OA
ATOM     22  H   UNL     1       5.300  -2.370  22.504  0.00  0.00    +0.210 HD
ENDBRANCH   3  21
BRANCH   4  23
ATOM     23  C   UNL     1       7.383  -5.016  24.853  0.00  0.00    +0.206 C 
BRANCH  23  24
ATOM     24  O   UNL     1       6.293  -5.542  25.597  0.00  0.00    -0.284 OA
BRANCH  24  25
ATOM     25  P   UNL     1       6.485  -5.666  27.182  0.00  0.00    +0.472 P 
ATOM     26  O   UNL     1       5.740  -6.780  27.825  0.00  0.00    -0.228 OA
BRANCH  25  27
ATOM     27  O   UNL     1       6.118  -4.193  27.672  0.00  0.00    -0.303 OA
ATOM     28  H   UNL     1       5.385  -3.799  27.172  0.00  0.00    +0.222 HD
ENDBRANCH  25  27
BRANCH  25  29
ATOM     29  O   UNL     1       8.072  -5.695  27.295  0.00  0.00    -0.303 OA
ATOM     30  H   UNL     1       8.448  -6.412  26.757  0.00  0.00    +0.222 HD
ENDBRANCH  25  29
ENDBRANCH  24  25
ENDBRANCH  23  24
ENDBRANCH   4  23
TORSDOF 8
ENDMDL
