MODEL 1
REMARK VINA RESULT:      -6.4      0.000      0.000
REMARK  Name = 
REMARK  13 active torsions:
REMARK  status: ('A' for Active; 'I' for Inactive)
REMARK    1  A    between atoms: C_1  and  N_2
REMARK    2  A    between atoms: N_2  and  C_3
REMARK    3  A    between atoms: N_2  and  C_4
REMARK    4  A    between atoms: C_9  and  S_14
REMARK    5  A    between atoms: S_14  and  N_17
REMARK    6  A    between atoms: N_17  and  C_18
REMARK    7  A    between atoms: C_18  and  C_19
REMARK    8  A    between atoms: C_19  and  C_20
REMARK    9  A    between atoms: C_20  and  C_21
REMARK   10  A    between atoms: C_21  and  N_22
REMARK   11  A    between atoms: C_23  and  C_25
REMARK   12  A    between atoms: C_25  and  C_26
REMARK   13  A    between atoms: C_26  and  S_27
REMARK                            x       y       z     vdW  Elec       q    Type
REMARK                         _______ _______ _______ _____ _____    ______ ____
ROOT
ATOM      1  S   UNL     1       9.387  -2.374  23.829  0.00  0.00    +0.059 S 
ATOM      2  O   UNL     1      10.268  -3.501  24.038  0.00  0.00    -0.153 OA
ATOM      3  O   UNL     1       9.333  -1.260  24.749  0.00  0.00    -0.153 OA
ENDROOT
BRANCH   1   9
ATOM      4  C   UNL     1       5.275  -5.251  25.432  0.00  0.00    +0.037 A 
ATOM      5  C   UNL     1       6.034  -5.556  26.576  0.00  0.00    +0.024 A 
ATOM      6  C   UNL     1       7.316  -5.055  26.763  0.00  0.00    +0.002 A 
ATOM      7  C   UNL     1       7.881  -4.237  25.796  0.00  0.00    +0.010 A 
ATOM      8  C   UNL     1       7.181  -3.857  24.634  0.00  0.00    +0.010 A 
ATOM      9  C   UNL     1       7.725  -2.988  23.643  0.00  0.00    +0.113 A 
ATOM     10  C   UNL     1       6.978  -2.580  22.533  0.00  0.00    +0.029 A 
ATOM     11  C   UNL     1       5.675  -3.024  22.390  0.00  0.00    +0.003 A 
ATOM     12  C   UNL     1       5.126  -3.881  23.343  0.00  0.00    +0.010 A 
ATOM     13  C   UNL     1       5.850  -4.356  24.465  0.00  0.00    +0.005 A 
BRANCH   4  15
ATOM     14  C   UNL     1       2.893  -5.330  26.098  0.00  0.00    +0.129 C 
ATOM     15  N   UNL     1       3.988  -5.818  25.260  0.00  0.00    -0.336 N 
ATOM     16  C   UNL     1       3.964  -7.261  24.992  0.00  0.00    +0.129 C 
ENDBRANCH   4  15
ENDBRANCH   1   9
BRANCH   1  17
ATOM     17  N   UNL     1       9.801  -1.679  22.345  0.00  0.00    -0.190 NA
ATOM     18  H   UNL     1       9.124  -1.982  21.643  0.00  0.00    +0.148 HD
BRANCH  17  19
ATOM     19  C   UNL     1      10.203  -0.266  22.345  0.00  0.00    +0.106 C 
BRANCH  19  20
ATOM     20  C   UNL     1       9.258   0.552  21.464  0.00  0.00    +0.018 C 
BRANCH  20  21
ATOM     21  C   UNL     1       8.989   1.954  22.024  0.00  0.00    +0.020 C 
BRANCH  21  22
ATOM     22  C   UNL     1       9.780   2.210  23.304  0.00  0.00    +0.104 C 
BRANCH  22  23
ATOM     23  N   UNL     1      10.526   3.451  23.223  0.00  0.00    -0.315 N 
ATOM     24  H   UNL     1      11.469   3.425  22.857  0.00  0.00    +0.149 HD
ATOM     25  C   UNL     1      10.053   4.612  23.799  0.00  0.00    +0.214 C 
ATOM     26  O   UNL     1       8.963   4.689  24.351  0.00  0.00    -0.276 OA
BRANCH  25  27
ATOM     27  C   UNL     1      10.995   5.789  23.653  0.00  0.00    +0.106 C 
BRANCH  27  28
ATOM     28  C   UNL     1      12.441   5.313  23.681  0.00  0.00    +0.075 C 
BRANCH  28  29
ATOM     29  S   UNL     1      13.261   5.654  22.094  0.00  0.00    -0.178 S 
ATOM     30  H   UNL     1      13.155   4.416  21.590  0.00  0.00    +0.102 HD
ENDBRANCH  28  29
ENDBRANCH  27  28
ENDBRANCH  25  27
ENDBRANCH  22  23
ENDBRANCH  21  22
ENDBRANCH  20  21
ENDBRANCH  19  20
ENDBRANCH  17  19
ENDBRANCH   1  17
TORSDOF 11
ENDMDL
MODEL 2
REMARK VINA RESULT:      -6.4      3.394      8.537
REMARK  Name = 
REMARK  13 active torsions:
REMARK  status: ('A' for Active; 'I' for Inactive)
REMARK    1  A    between atoms: C_1  and  N_2
REMARK    2  A    between atoms: N_2  and  C_3
REMARK    3  A    between atoms: N_2  and  C_4
REMARK    4  A    between atoms: C_9  and  S_14
REMARK    5  A    between atoms: S_14  and  N_17
REMARK    6  A    between atoms: N_17  and  C_18
REMARK    7  A    between atoms: C_18  and  C_19
REMARK    8  A    between atoms: C_19  and  C_20
REMARK    9  A    between atoms: C_20  and  C_21
REMARK   10  A    between atoms: C_21  and  N_22
REMARK   11  A    between atoms: C_23  and  C_25
REMARK   12  A    between atoms: C_25  and  C_26
REMARK   13  A    between atoms: C_26  and  S_27
REMARK                            x       y       z     vdW  Elec       q    Type
REMARK                         _______ _______ _______ _____ _____    ______ ____
ROOT
ATOM      1  S   UNL     1       8.846  -3.958  25.499  0.00  0.00    +0.059 S 
ATOM      2  O   UNL     1       8.806  -4.442  26.862  0.00  0.00    -0.153 OA
ATOM      3  O   UNL     1       9.942  -4.266  24.607  0.00  0.00    -0.153 OA
ENDROOT
BRANCH   1   9
ATOM      4  C   UNL     1       9.505   0.826  23.394  0.00  0.00    +0.037 A 
ATOM      5  C   UNL     1      10.053   0.172  22.276  0.00  0.00    +0.024 A 
ATOM      6  C   UNL     1      10.164  -1.210  22.213  0.00  0.00    +0.002 A 
ATOM      7  C   UNL     1       9.736  -1.983  23.283  0.00  0.00    +0.010 A 
ATOM      8  C   UNL     1       9.149  -1.413  24.430  0.00  0.00    +0.010 A 
ATOM      9  C   UNL     1       8.667  -2.186  25.527  0.00  0.00    +0.113 A 
ATOM     10  C   UNL     1       8.031  -1.592  26.622  0.00  0.00    +0.029 A 
ATOM     11  C   UNL     1       7.857  -0.218  26.645  0.00  0.00    +0.003 A 
ATOM     12  C   UNL     1       8.328   0.557  25.585  0.00  0.00    +0.010 A 
ATOM     13  C   UNL     1       9.013   0.012  24.472  0.00  0.00    +0.005 A 
BRANCH   4  15
ATOM     14  C   UNL     1       8.383   2.919  22.701  0.00  0.00    +0.129 C 
ATOM     15  N   UNL     1       9.451   2.241  23.435  0.00  0.00    -0.336 N 
ATOM     16  C   UNL     1      10.749   2.925  23.408  0.00  0.00    +0.129 C 
ENDBRANCH   4  15
ENDBRANCH   1   9
BRANCH   1  17
ATOM     17  N   UNL     1       7.477  -4.557  24.711  0.00  0.00    -0.190 NA
ATOM     18  H   UNL     1       7.070  -5.298  25.283  0.00  0.00    +0.148 HD
BRANCH  17  19
ATOM     19  C   UNL     1       6.564  -3.583  24.099  0.00  0.00    +0.106 C 
BRANCH  19  20
ATOM     20  C   UNL     1       6.707  -3.609  22.576  0.00  0.00    +0.018 C 
BRANCH  20  21
ATOM     21  C   UNL     1       7.154  -4.975  22.045  0.00  0.00    +0.020 C 
BRANCH  21  22
ATOM     22  C   UNL     1       5.963  -5.840  21.637  0.00  0.00    +0.104 C 
BRANCH  22  23
ATOM     23  N   UNL     1       5.398  -6.531  22.779  0.00  0.00    -0.315 N 
ATOM     24  H   UNL     1       5.862  -7.365  23.117  0.00  0.00    +0.149 HD
ATOM     25  C   UNL     1       4.161  -6.189  23.286  0.00  0.00    +0.214 C 
ATOM     26  O   UNL     1       3.497  -5.255  22.857  0.00  0.00    -0.276 OA
BRANCH  25  27
ATOM     27  C   UNL     1       3.720  -7.058  24.447  0.00  0.00    +0.106 C 
BRANCH  27  28
ATOM     28  C   UNL     1       4.612  -6.814  25.656  0.00  0.00    +0.075 C 
BRANCH  28  29
ATOM     29  S   UNL     1       4.110  -5.302  26.531  0.00  0.00    -0.178 S 
ATOM     30  H   UNL     1       3.717  -5.896  27.666  0.00  0.00    +0.102 HD
ENDBRANCH  28  29
ENDBRANCH  27  28
ENDBRANCH  25  27
ENDBRANCH  22  23
ENDBRANCH  21  22
ENDBRANCH  20  21
ENDBRANCH  19  20
ENDBRANCH  17  19
ENDBRANCH   1  17
TORSDOF 11
ENDMDL
MODEL 3
REMARK VINA RESULT:      -6.3      1.843      2.171
REMARK  Name = 
REMARK  13 active torsions:
REMARK  status: ('A' for Active; 'I' for Inactive)
REMARK    1  A    between atoms: C_1  and  N_2
REMARK    2  A    between atoms: N_2  and  C_3
REMARK    3  A    between atoms: N_2  and  C_4
REMARK    4  A    between atoms: C_9  and  S_14
REMARK    5  A    between atoms: S_14  and  N_17
REMARK    6  A    between atoms: N_17  and  C_18
REMARK    7  A    between atoms: C_18  and  C_19
REMARK    8  A    between atoms: C_19  and  C_20
REMARK    9  A    between atoms: C_20  and  C_21
REMARK   10  A    between atoms: C_21  and  N_22
REMARK   11  A    between atoms: C_23  and  C_25
REMARK   12  A    between atoms: C_25  and  C_26
REMARK   13  A    between atoms: C_26  and  S_27
REMARK                            x       y       z     vdW  Elec       q    Type
REMARK                         _______ _______ _______ _____ _____    ______ ____
ROOT
ATOM      1  S   UNL     1       9.080  -3.996  24.765  0.00  0.00    +0.059 S 
ATOM      2  O   UNL     1       9.904  -5.155  25.028  0.00  0.00    -0.153 OA
ATOM      3  O   UNL     1       8.661  -3.096  25.817  0.00  0.00    -0.153 OA
ENDROOT
BRANCH   1   9
ATOM      4  C   UNL     1       4.350  -6.311  24.633  0.00  0.00    +0.037 A 
ATOM      5  C   UNL     1       4.472  -6.462  26.026  0.00  0.00    +0.024 A 
ATOM      6  C   UNL     1       5.588  -6.013  26.719  0.00  0.00    +0.002 A 
ATOM      7  C   UNL     1       6.627  -5.405  26.029  0.00  0.00    +0.010 A 
ATOM      8  C   UNL     1       6.574  -5.187  24.639  0.00  0.00    +0.010 A 
ATOM      9  C   UNL     1       7.611  -4.533  23.911  0.00  0.00    +0.113 A 
ATOM     10  C   UNL     1       7.499  -4.276  22.541  0.00  0.00    +0.029 A 
ATOM     11  C   UNL     1       6.351  -4.660  21.869  0.00  0.00    +0.003 A 
ATOM     12  C   UNL     1       5.329  -5.309  22.560  0.00  0.00    +0.010 A 
ATOM     13  C   UNL     1       5.407  -5.628  23.937  0.00  0.00    +0.005 A 
BRANCH   4  15
ATOM     14  C   UNL     1       2.175  -5.884  23.532  0.00  0.00    +0.129 C 
ATOM     15  N   UNL     1       3.213  -6.822  23.959  0.00  0.00    -0.336 N 
ATOM     16  C   UNL     1       2.715  -8.113  24.448  0.00  0.00    +0.129 C 
ENDBRANCH   4  15
ENDBRANCH   1   9
BRANCH   1  17
ATOM     17  N   UNL     1       9.924  -3.014  23.679  0.00  0.00    -0.190 NA
ATOM     18  H   UNL     1       9.882  -3.442  22.753  0.00  0.00    +0.148 HD
BRANCH  17  19
ATOM     19  C   UNL     1       9.718  -1.563  23.774  0.00  0.00    +0.106 C 
BRANCH  19  20
ATOM     20  C   UNL     1       8.942  -1.057  22.556  0.00  0.00    +0.018 C 
BRANCH  20  21
ATOM     21  C   UNL     1       9.754  -0.079  21.699  0.00  0.00    +0.020 C 
BRANCH  21  22
ATOM     22  C   UNL     1       8.968   1.195  21.399  0.00  0.00    +0.104 C 
BRANCH  22  23
ATOM     23  N   UNL     1       9.644   2.367  21.918  0.00  0.00    -0.315 N 
ATOM     24  H   UNL     1      10.364   2.800  21.353  0.00  0.00    +0.149 HD
ATOM     25  C   UNL     1       9.462   2.783  23.221  0.00  0.00    +0.214 C 
ATOM     26  O   UNL     1       8.682   2.241  23.994  0.00  0.00    -0.276 OA
BRANCH  25  27
ATOM     27  C   UNL     1      10.291   3.995  23.593  0.00  0.00    +0.106 C 
BRANCH  27  28
ATOM     28  C   UNL     1       9.442   5.000  24.359  0.00  0.00    +0.075 C 
BRANCH  28  29
ATOM     29  S   UNL     1       8.531   6.079  23.213  0.00  0.00    -0.178 S 
ATOM     30  H   UNL     1       9.364   7.126  23.285  0.00  0.00    +0.102 HD
ENDBRANCH  28  29
ENDBRANCH  27  28
ENDBRANCH  25  27
ENDBRANCH  22  23
ENDBRANCH  21  22
ENDBRANCH  20  21
ENDBRANCH  19  20
ENDBRANCH  17  19
ENDBRANCH   1  17
TORSDOF 11
ENDMDL
MODEL 4
REMARK VINA RESULT:      -6.3      2.783      3.536
REMARK  Name = 
REMARK  13 active torsions:
REMARK  status: ('A' for Active; 'I' for Inactive)
REMARK    1  A    between atoms: C_1  and  N_2
REMARK    2  A    between atoms: N_2  and  C_3
REMARK    3  A    between atoms: N_2  and  C_4
REMARK    4  A    between atoms: C_9  and  S_14
REMARK    5  A    between atoms: S_14  and  N_17
REMARK    6  A    between atoms: N_17  and  C_18
REMARK    7  A    between atoms: C_18  and  C_19
REMARK    8  A    between atoms: C_19  and  C_20
REMARK    9  A    between atoms: C_20  and  C_21
REMARK   10  A    between atoms: C_21  and  N_22
REMARK   11  A    between atoms: C_23  and  C_25
REMARK   12  A    between atoms: C_25  and  C_26
REMARK   13  A    between atoms: C_26  and  S_27
REMARK                            x       y       z     vdW  Elec       q    Type
REMARK                         _______ _______ _______ _____ _____    ______ ____
ROOT
ATOM      1  S   UNL     1       9.373  -2.993  24.137  0.00  0.00    +0.059 S 
ATOM      2  O   UNL     1      10.090  -4.192  24.509  0.00  0.00    -0.153 OA
ATOM      3  O   UNL     1       9.200  -1.887  25.052  0.00  0.00    -0.153 OA
ENDROOT
BRANCH   1   9
ATOM      4  C   UNL     1       4.780  -5.512  24.689  0.00  0.00    +0.037 A 
ATOM      5  C   UNL     1       5.226  -5.883  25.971  0.00  0.00    +0.024 A 
ATOM      6  C   UNL     1       6.467  -5.493  26.458  0.00  0.00    +0.002 A 
ATOM      7  C   UNL     1       7.306  -4.724  25.664  0.00  0.00    +0.010 A 
ATOM      8  C   UNL     1       6.926  -4.284  24.381  0.00  0.00    +0.010 A 
ATOM      9  C   UNL     1       7.754  -3.463  23.561  0.00  0.00    +0.113 A 
ATOM     10  C   UNL     1       7.320  -2.991  22.318  0.00  0.00    +0.029 A 
ATOM     11  C   UNL     1       6.053  -3.322  21.869  0.00  0.00    +0.003 A 
ATOM     12  C   UNL     1       5.230  -4.131  22.653  0.00  0.00    +0.010 A 
ATOM     13  C   UNL     1       5.633  -4.668  23.900  0.00  0.00    +0.005 A 
BRANCH   4  15
ATOM     14  C   UNL     1       2.364  -5.088  24.356  0.00  0.00    +0.129 C 
ATOM     15  N   UNL     1       3.524  -5.968  24.214  0.00  0.00    -0.336 N 
ATOM     16  C   UNL     1       3.248  -7.393  24.426  0.00  0.00    +0.129 C 
ENDBRANCH   4  15
ENDBRANCH   1   9
BRANCH   1  17
ATOM     17  N   UNL     1      10.170  -2.321  22.807  0.00  0.00    -0.190 NA
ATOM     18  H   UNL     1       9.790  -2.737  21.955  0.00  0.00    +0.148 HD
BRANCH  17  19
ATOM     19  C   UNL     1      10.404  -0.872  22.816  0.00  0.00    +0.106 C 
BRANCH  19  20
ATOM     20  C   UNL     1       9.650  -0.206  21.663  0.00  0.00    +0.018 C 
BRANCH  20  21
ATOM     21  C   UNL     1       9.603   1.321  21.788  0.00  0.00    +0.020 C 
BRANCH  21  22
ATOM     22  C   UNL     1       8.171   1.830  21.934  0.00  0.00    +0.104 C 
BRANCH  22  23
ATOM     23  N   UNL     1       7.313   0.828  22.535  0.00  0.00    -0.315 N 
ATOM     24  H   UNL     1       6.793   0.208  21.926  0.00  0.00    +0.149 HD
ATOM     25  C   UNL     1       7.051   0.826  23.890  0.00  0.00    +0.214 C 
ATOM     26  O   UNL     1       7.565   1.615  24.672  0.00  0.00    -0.276 OA
BRANCH  25  27
ATOM     27  C   UNL     1       6.094  -0.267  24.321  0.00  0.00    +0.106 C 
BRANCH  27  28
ATOM     28  C   UNL     1       5.553   0.026  25.714  0.00  0.00    +0.075 C 
BRANCH  28  29
ATOM     29  S   UNL     1       6.021  -1.292  26.876  0.00  0.00    -0.178 S 
ATOM     30  H   UNL     1       6.753  -2.012  26.014  0.00  0.00    +0.102 HD
ENDBRANCH  28  29
ENDBRANCH  27  28
ENDBRANCH  25  27
ENDBRANCH  22  23
ENDBRANCH  21  22
ENDBRANCH  20  21
ENDBRANCH  19  20
ENDBRANCH  17  19
ENDBRANCH   1  17
TORSDOF 11
ENDMDL
MODEL 5
REMARK VINA RESULT:      -6.3      3.384      7.669
REMARK  Name = 
REMARK  13 active torsions:
REMARK  status: ('A' for Active; 'I' for Inactive)
REMARK    1  A    between atoms: C_1  and  N_2
REMARK    2  A    between atoms: N_2  and  C_3
REMARK    3  A    between atoms: N_2  and  C_4
REMARK    4  A    between atoms: C_9  and  S_14
REMARK    5  A    between atoms: S_14  and  N_17
REMARK    6  A    between atoms: N_17  and  C_18
REMARK    7  A    between atoms: C_18  and  C_19
REMARK    8  A    between atoms: C_19  and  C_20
REMARK    9  A    between atoms: C_20  and  C_21
REMARK   10  A    between atoms: C_21  and  N_22
REMARK   11  A    between atoms: C_23  and  C_25
REMARK   12  A    between atoms: C_25  and  C_26
REMARK   13  A    between atoms: C_26  and  S_27
REMARK                            x       y       z     vdW  Elec       q    Type
REMARK                         _______ _______ _______ _____ _____    ______ ____
ROOT
ATOM      1  S   UNL     1       8.906  -4.378  25.353  0.00  0.00    +0.059 S 
ATOM      2  O   UNL     1      10.288  -4.725  25.107  0.00  0.00    -0.153 OA
ATOM      3  O   UNL     1       7.835  -4.835  24.496  0.00  0.00    -0.153 OA
ENDROOT
BRANCH   1   9
ATOM      4  C   UNL     1       9.302   0.447  23.275  0.00  0.00    +0.037 A 
ATOM      5  C   UNL     1       9.621  -0.187  22.060  0.00  0.00    +0.024 A 
ATOM      6  C   UNL     1       9.681  -1.570  21.947  0.00  0.00    +0.002 A 
ATOM      7  C   UNL     1       9.433  -2.362  23.059  0.00  0.00    +0.010 A 
ATOM      8  C   UNL     1       9.079  -1.811  24.305  0.00  0.00    +0.010 A 
ATOM      9  C   UNL     1       8.783  -2.603  25.454  0.00  0.00    +0.113 A 
ATOM     10  C   UNL     1       8.372  -2.025  26.660  0.00  0.00    +0.029 A 
ATOM     11  C   UNL     1       8.242  -0.650  26.745  0.00  0.00    +0.003 A 
ATOM     12  C   UNL     1       8.534   0.144  25.636  0.00  0.00    +0.010 A 
ATOM     13  C   UNL     1       8.991  -0.385  24.405  0.00  0.00    +0.005 A 
BRANCH   4  15
ATOM     14  C   UNL     1       8.354   2.604  22.518  0.00  0.00    +0.129 C 
ATOM     15  N   UNL     1       9.294   1.862  23.358  0.00  0.00    -0.336 N 
ATOM     16  C   UNL     1      10.609   2.493  23.519  0.00  0.00    +0.129 C 
ENDBRANCH   4  15
ENDBRANCH   1   9
BRANCH   1  17
ATOM     17  N   UNL     1       8.503  -4.965  26.885  0.00  0.00    -0.190 NA
ATOM     18  H   UNL     1       8.611  -4.209  27.563  0.00  0.00    +0.148 HD
BRANCH  17  19
ATOM     19  C   UNL     1       7.314  -5.820  26.994  0.00  0.00    +0.106 C 
BRANCH  19  20
ATOM     20  C   UNL     1       6.370  -5.279  28.070  0.00  0.00    +0.018 C 
BRANCH  20  21
ATOM     21  C   UNL     1       5.756  -3.925  27.695  0.00  0.00    +0.020 C 
BRANCH  21  22
ATOM     22  C   UNL     1       4.641  -4.079  26.663  0.00  0.00    +0.104 C 
BRANCH  22  23
ATOM     23  N   UNL     1       5.124  -3.823  25.321  0.00  0.00    -0.315 N 
ATOM     24  H   UNL     1       5.605  -4.567  24.830  0.00  0.00    +0.149 HD
ATOM     25  C   UNL     1       5.110  -2.554  24.782  0.00  0.00    +0.214 C 
ATOM     26  O   UNL     1       4.636  -1.585  25.363  0.00  0.00    -0.276 OA
BRANCH  25  27
ATOM     27  C   UNL     1       5.702  -2.479  23.389  0.00  0.00    +0.106 C 
BRANCH  27  28
ATOM     28  C   UNL     1       5.112  -3.570  22.507  0.00  0.00    +0.075 C 
BRANCH  28  29
ATOM     29  S   UNL     1       6.406  -4.347  21.492  0.00  0.00    -0.178 S 
ATOM     30  H   UNL     1       5.936  -3.949  20.302  0.00  0.00    +0.102 HD
ENDBRANCH  28  29
ENDBRANCH  27  28
ENDBRANCH  25  27
ENDBRANCH  22  23
ENDBRANCH  21  22
ENDBRANCH  20  21
ENDBRANCH  19  20
ENDBRANCH  17  19
ENDBRANCH   1  17
TORSDOF 11
ENDMDL
MODEL 6
REMARK VINA RESULT:      -6.2      2.420      3.249
REMARK  Name = 
REMARK  13 active torsions:
REMARK  status: ('A' for Active; 'I' for Inactive)
REMARK    1  A    between atoms: C_1  and  N_2
REMARK    2  A    between atoms: N_2  and  C_3
REMARK    3  A    between atoms: N_2  and  C_4
REMARK    4  A    between atoms: C_9  and  S_14
REMARK    5  A    between atoms: S_14  and  N_17
REMARK    6  A    between atoms: N_17  and  C_18
REMARK    7  A    between atoms: C_18  and  C_19
REMARK    8  A    between atoms: C_19  and  C_20
REMARK    9  A    between atoms: C_20  and  C_21
REMARK   10  A    between atoms: C_21  and  N_22
REMARK   11  A    between atoms: C_23  and  C_25
REMARK   12  A    between atoms: C_25  and  C_26
REMARK   13  A    between atoms: C_26  and  S_27
REMARK                            x       y       z     vdW  Elec       q    Type
REMARK                         _______ _______ _______ _____ _____    ______ ____
ROOT
ATOM      1  S   UNL     1       9.120  -2.452  23.555  0.00  0.00    +0.059 S 
ATOM      2  O   UNL     1       8.941  -2.172  22.147  0.00  0.00    -0.153 OA
ATOM      3  O   UNL     1      10.112  -3.391  24.031  0.00  0.00    -0.153 OA
ENDROOT
BRANCH   1   9
ATOM      4  C   UNL     1       4.878  -5.572  23.679  0.00  0.00    +0.037 A 
ATOM      5  C   UNL     1       5.490  -6.314  22.652  0.00  0.00    +0.024 A 
ATOM      6  C   UNL     1       6.732  -5.970  22.137  0.00  0.00    +0.002 A 
ATOM      7  C   UNL     1       7.397  -4.857  22.633  0.00  0.00    +0.010 A 
ATOM      8  C   UNL     1       6.871  -4.076  23.680  0.00  0.00    +0.010 A 
ATOM      9  C   UNL     1       7.550  -2.951  24.233  0.00  0.00    +0.113 A 
ATOM     10  C   UNL     1       7.028  -2.235  25.315  0.00  0.00    +0.029 A 
ATOM     11  C   UNL     1       5.823  -2.629  25.873  0.00  0.00    +0.003 A 
ATOM     12  C   UNL     1       5.139  -3.722  25.343  0.00  0.00    +0.010 A 
ATOM     13  C   UNL     1       5.602  -4.456  24.224  0.00  0.00    +0.005 A 
BRANCH   4  15
ATOM     14  C   UNL     1       3.466  -7.099  25.020  0.00  0.00    +0.129 C 
ATOM     15  N   UNL     1       3.589  -5.933  24.146  0.00  0.00    -0.336 N 
ATOM     16  C   UNL     1       2.497  -5.767  23.180  0.00  0.00    +0.129 C 
ENDBRANCH   4  15
ENDBRANCH   1   9
BRANCH   1  17
ATOM     17  N   UNL     1       9.519  -0.995  24.312  0.00  0.00    -0.190 NA
ATOM     18  H   UNL     1       9.536  -1.146  25.322  0.00  0.00    +0.148 HD
BRANCH  17  19
ATOM     19  C   UNL     1      10.598  -0.194  23.720  0.00  0.00    +0.106 C 
BRANCH  19  20
ATOM     20  C   UNL     1      10.693   1.164  24.418  0.00  0.00    +0.018 C 
BRANCH  20  21
ATOM     21  C   UNL     1      10.657   2.340  23.435  0.00  0.00    +0.020 C 
BRANCH  21  22
ATOM     22  C   UNL     1      10.054   1.934  22.092  0.00  0.00    +0.104 C 
BRANCH  22  23
ATOM     23  N   UNL     1       8.804   2.624  21.845  0.00  0.00    -0.315 N 
ATOM     24  H   UNL     1       8.836   3.558  21.454  0.00  0.00    +0.149 HD
ATOM     25  C   UNL     1       7.603   2.118  22.297  0.00  0.00    +0.214 C 
ATOM     26  O   UNL     1       7.503   1.041  22.870  0.00  0.00    -0.276 OA
BRANCH  25  27
ATOM     27  C   UNL     1       6.415   3.006  21.985  0.00  0.00    +0.106 C 
BRANCH  27  28
ATOM     28  C   UNL     1       6.631   4.397  22.567  0.00  0.00    +0.075 C 
BRANCH  28  29
ATOM     29  S   UNL     1       6.658   4.335  24.384  0.00  0.00    -0.178 S 
ATOM     30  H   UNL     1       6.272   3.058  24.507  0.00  0.00    +0.102 HD
ENDBRANCH  28  29
ENDBRANCH  27  28
ENDBRANCH  25  27
ENDBRANCH  22  23
ENDBRANCH  21  22
ENDBRANCH  20  21
ENDBRANCH  19  20
ENDBRANCH  17  19
ENDBRANCH   1  17
TORSDOF 11
ENDMDL
MODEL 7
REMARK VINA RESULT:      -6.2      1.433      1.530
REMARK  Name = 
REMARK  13 active torsions:
REMARK  status: ('A' for Active; 'I' for Inactive)
REMARK    1  A    between atoms: C_1  and  N_2
REMARK    2  A    between atoms: N_2  and  C_3
REMARK    3  A    between atoms: N_2  and  C_4
REMARK    4  A    between atoms: C_9  and  S_14
REMARK    5  A    between atoms: S_14  and  N_17
REMARK    6  A    between atoms: N_17  and  C_18
REMARK    7  A    between atoms: C_18  and  C_19
REMARK    8  A    between atoms: C_19  and  C_20
REMARK    9  A    between atoms: C_20  and  C_21
REMARK   10  A    between atoms: C_21  and  N_22
REMARK   11  A    between atoms: C_23  and  C_25
REMARK   12  A    between atoms: C_25  and  C_26
REMARK   13  A    between atoms: C_26  and  S_27
REMARK                            x       y       z     vdW  Elec       q    Type
REMARK                         _______ _______ _______ _____ _____    ______ ____
ROOT
ATOM      1  S   UNL     1       9.338  -2.555  23.998  0.00  0.00    +0.059 S 
ATOM      2  O   UNL     1      10.152  -3.727  24.234  0.00  0.00    -0.153 OA
ATOM      3  O   UNL     1       9.225  -1.490  24.970  0.00  0.00    -0.153 OA
ENDROOT
BRANCH   1   9
ATOM      4  C   UNL     1       4.998  -5.379  24.967  0.00  0.00    +0.037 A 
ATOM      5  C   UNL     1       5.628  -5.796  26.154  0.00  0.00    +0.024 A 
ATOM      6  C   UNL     1       6.899  -5.360  26.503  0.00  0.00    +0.002 A 
ATOM      7  C   UNL     1       7.585  -4.495  25.661  0.00  0.00    +0.010 A 
ATOM      8  C   UNL     1       7.017  -4.006  24.469  0.00  0.00    +0.010 A 
ATOM      9  C   UNL     1       7.684  -3.089  23.604  0.00  0.00    +0.113 A 
ATOM     10  C   UNL     1       7.066  -2.573  22.460  0.00  0.00    +0.029 A 
ATOM     11  C   UNL     1       5.771  -2.955  22.157  0.00  0.00    +0.003 A 
ATOM     12  C   UNL     1       5.103  -3.857  22.985  0.00  0.00    +0.010 A 
ATOM     13  C   UNL     1       5.694  -4.440  24.132  0.00  0.00    +0.005 A 
BRANCH   4  15
ATOM     14  C   UNL     1       2.537  -5.207  25.165  0.00  0.00    +0.129 C 
ATOM     15  N   UNL     1       3.718  -5.883  24.627  0.00  0.00    -0.336 N 
ATOM     16  C   UNL     1       3.612  -7.345  24.555  0.00  0.00    +0.129 C 
ENDBRANCH   4  15
ENDBRANCH   1   9
BRANCH   1  17
ATOM     17  N   UNL     1       9.932  -1.799  22.609  0.00  0.00    -0.190 NA
ATOM     18  H   UNL     1       9.341  -2.060  21.818  0.00  0.00    +0.148 HD
BRANCH  17  19
ATOM     19  C   UNL     1      10.345  -0.394  22.723  0.00  0.00    +0.106 C 
BRANCH  19  20
ATOM     20  C   UNL     1       9.512   0.480  21.782  0.00  0.00    +0.018 C 
BRANCH  20  21
ATOM     21  C   UNL     1       9.818   1.974  21.934  0.00  0.00    +0.020 C 
BRANCH  21  22
ATOM     22  C   UNL     1      10.170   2.334  23.377  0.00  0.00    +0.104 C 
BRANCH  22  23
ATOM     23  N   UNL     1      10.020   3.755  23.617  0.00  0.00    -0.315 N 
ATOM     24  H   UNL     1       9.086   4.132  23.720  0.00  0.00    +0.149 HD
ATOM     25  C   UNL     1      11.093   4.617  23.523  0.00  0.00    +0.214 C 
ATOM     26  O   UNL     1      12.236   4.240  23.298  0.00  0.00    -0.276 OA
BRANCH  25  27
ATOM     27  C   UNL     1      10.728   6.068  23.759  0.00  0.00    +0.106 C 
BRANCH  27  28
ATOM     28  C   UNL     1       9.287   6.324  23.338  0.00  0.00    +0.075 C 
BRANCH  28  29
ATOM     29  S   UNL     1       8.303   6.922  24.745  0.00  0.00    -0.178 S 
ATOM     30  H   UNL     1       7.175   6.265  24.441  0.00  0.00    +0.102 HD
ENDBRANCH  28  29
ENDBRANCH  27  28
ENDBRANCH  25  27
ENDBRANCH  22  23
ENDBRANCH  21  22
ENDBRANCH  20  21
ENDBRANCH  19  20
ENDBRANCH  17  19
ENDBRANCH   1  17
TORSDOF 11
ENDMDL
MODEL 8
REMARK VINA RESULT:      -6.2      3.067      5.534
REMARK  Name = 
REMARK  13 active torsions:
REMARK  status: ('A' for Active; 'I' for Inactive)
REMARK    1  A    between atoms: C_1  and  N_2
REMARK    2  A    between atoms: N_2  and  C_3
REMARK    3  A    between atoms: N_2  and  C_4
REMARK    4  A    between atoms: C_9  and  S_14
REMARK    5  A    between atoms: S_14  and  N_17
REMARK    6  A    between atoms: N_17  and  C_18
REMARK    7  A    between atoms: C_18  and  C_19
REMARK    8  A    between atoms: C_19  and  C_20
REMARK    9  A    between atoms: C_20  and  C_21
REMARK   10  A    between atoms: C_21  and  N_22
REMARK   11  A    between atoms: C_23  and  C_25
REMARK   12  A    between atoms: C_25  and  C_26
REMARK   13  A    between atoms: C_26  and  S_27
REMARK                            x       y       z     vdW  Elec       q    Type
REMARK                         _______ _______ _______ _____ _____    ______ ____
ROOT
ATOM      1  S   UNL     1       7.716  -0.521  25.857  0.00  0.00    +0.059 S 
ATOM      2  O   UNL     1       7.172   0.137  27.024  0.00  0.00    -0.153 OA
ATOM      3  O   UNL     1       7.233  -0.243  24.523  0.00  0.00    -0.153 OA
ENDROOT
BRANCH   1   9
ATOM      4  C   UNL     1       5.007  -5.034  26.089  0.00  0.00    +0.037 A 
ATOM      5  C   UNL     1       3.880  -4.286  25.701  0.00  0.00    +0.024 A 
ATOM      6  C   UNL     1       3.951  -2.921  25.462  0.00  0.00    +0.002 A 
ATOM      7  C   UNL     1       5.160  -2.257  25.617  0.00  0.00    +0.010 A 
ATOM      8  C   UNL     1       6.343  -2.933  25.974  0.00  0.00    +0.010 A 
ATOM      9  C   UNL     1       7.605  -2.283  26.104  0.00  0.00    +0.113 A 
ATOM     10  C   UNL     1       8.773  -2.994  26.398  0.00  0.00    +0.029 A 
ATOM     11  C   UNL     1       8.709  -4.368  26.563  0.00  0.00    +0.003 A 
ATOM     12  C   UNL     1       7.483  -5.022  26.448  0.00  0.00    +0.010 A 
ATOM     13  C   UNL     1       6.265  -4.346  26.191  0.00  0.00    +0.005 A 
BRANCH   4  15
ATOM     14  C   UNL     1       4.204  -7.266  25.385  0.00  0.00    +0.129 C 
ATOM     15  N   UNL     1       4.882  -6.418  26.366  0.00  0.00    -0.336 N 
ATOM     16  C   UNL     1       4.616  -6.761  27.767  0.00  0.00    +0.129 C 
ENDBRANCH   4  15
ENDBRANCH   1   9
BRANCH   1  17
ATOM     17  N   UNL     1       9.365  -0.157  25.795  0.00  0.00    -0.190 NA
ATOM     18  H   UNL     1       9.892  -1.031  25.810  0.00  0.00    +0.148 HD
BRANCH  17  19
ATOM     19  C   UNL     1       9.795   0.888  24.858  0.00  0.00    +0.106 C 
BRANCH  19  20
ATOM     20  C   UNL     1      10.785   0.314  23.843  0.00  0.00    +0.018 C 
BRANCH  20  21
ATOM     21  C   UNL     1      10.120  -0.064  22.514  0.00  0.00    +0.020 C 
BRANCH  21  22
ATOM     22  C   UNL     1       9.907  -1.571  22.398  0.00  0.00    +0.104 C 
BRANCH  22  23
ATOM     23  N   UNL     1       8.524  -1.887  22.099  0.00  0.00    -0.315 N 
ATOM     24  H   UNL     1       7.945  -1.171  21.679  0.00  0.00    +0.149 HD
ATOM     25  C   UNL     1       7.943  -3.058  22.539  0.00  0.00    +0.214 C 
ATOM     26  O   UNL     1       8.561  -3.925  23.145  0.00  0.00    -0.276 OA
BRANCH  25  27
ATOM     27  C   UNL     1       6.479  -3.186  22.170  0.00  0.00    +0.106 C 
BRANCH  27  28
ATOM     28  C   UNL     1       5.961  -4.568  22.544  0.00  0.00    +0.075 C 
BRANCH  28  29
ATOM     29  S   UNL     1       6.218  -5.741  21.178  0.00  0.00    -0.178 S 
ATOM     30  H   UNL     1       5.604  -6.787  21.749  0.00  0.00    +0.102 HD
ENDBRANCH  28  29
ENDBRANCH  27  28
ENDBRANCH  25  27
ENDBRANCH  22  23
ENDBRANCH  21  22
ENDBRANCH  20  21
ENDBRANCH  19  20
ENDBRANCH  17  19
ENDBRANCH   1  17
TORSDOF 11
ENDMDL
MODEL 9
REMARK VINA RESULT:      -6.1      3.728      8.456
REMARK  Name = 
REMARK  13 active torsions:
REMARK  status: ('A' for Active; 'I' for Inactive)
REMARK    1  A    between atoms: C_1  and  N_2
REMARK    2  A    between atoms: N_2  and  C_3
REMARK    3  A    between atoms: N_2  and  C_4
REMARK    4  A    between atoms: C_9  and  S_14
REMARK    5  A    between atoms: S_14  and  N_17
REMARK    6  A    between atoms: N_17  and  C_18
REMARK    7  A    between atoms: C_18  and  C_19
REMARK    8  A    between atoms: C_19  and  C_20
REMARK    9  A    between atoms: C_20  and  C_21
REMARK   10  A    between atoms: C_21  and  N_22
REMARK   11  A    between atoms: C_23  and  C_25
REMARK   12  A    between atoms: C_25  and  C_26
REMARK   13  A    between atoms: C_26  and  S_27
REMARK                            x       y       z     vdW  Elec       q    Type
REMARK                         _______ _______ _______ _____ _____    ______ ____
ROOT
ATOM      1  S   UNL     1       8.465  -4.768  25.354  0.00  0.00    +0.059 S 
ATOM      2  O   UNL     1       9.487  -4.517  26.346  0.00  0.00    -0.153 OA
ATOM      3  O   UNL     1       8.746  -5.468  24.121  0.00  0.00    -0.153 OA
ENDROOT
BRANCH   1   9
ATOM      4  C   UNL     1       8.588   0.021  23.162  0.00  0.00    +0.037 A 
ATOM      5  C   UNL     1       9.895  -0.290  22.744  0.00  0.00    +0.024 A 
ATOM      6  C   UNL     1      10.488  -1.511  23.033  0.00  0.00    +0.002 A 
ATOM      7  C   UNL     1       9.788  -2.459  23.766  0.00  0.00    +0.010 A 
ATOM      8  C   UNL     1       8.465  -2.242  24.199  0.00  0.00    +0.010 A 
ATOM      9  C   UNL     1       7.710  -3.213  24.921  0.00  0.00    +0.113 A 
ATOM     10  C   UNL     1       6.377  -2.989  25.280  0.00  0.00    +0.029 A 
ATOM     11  C   UNL     1       5.768  -1.798  24.924  0.00  0.00    +0.003 A 
ATOM     12  C   UNL     1       6.490  -0.833  24.225  0.00  0.00    +0.010 A 
ATOM     13  C   UNL     1       7.852  -0.990  23.870  0.00  0.00    +0.005 A 
BRANCH   4  15
ATOM     14  C   UNL     1       7.954   1.730  21.488  0.00  0.00    +0.129 C 
ATOM     15  N   UNL     1       8.036   1.296  22.883  0.00  0.00    -0.336 N 
ATOM     16  C   UNL     1       8.376   2.356  23.839  0.00  0.00    +0.129 C 
ENDBRANCH   4  15
ENDBRANCH   1   9
BRANCH   1  17
ATOM     17  N   UNL     1       7.256  -5.686  26.097  0.00  0.00    -0.190 NA
ATOM     18  H   UNL     1       7.211  -6.597  25.638  0.00  0.00    +0.148 HD
BRANCH  17  19
ATOM     19  C   UNL     1       7.182  -5.652  27.564  0.00  0.00    +0.106 C 
BRANCH  19  20
ATOM     20  C   UNL     1       5.725  -5.542  28.017  0.00  0.00    +0.018 C 
BRANCH  20  21
ATOM     21  C   UNL     1       4.927  -6.828  27.768  0.00  0.00    +0.020 C 
BRANCH  21  22
ATOM     22  C   UNL     1       3.654  -6.556  26.971  0.00  0.00    +0.104 C 
BRANCH  22  23
ATOM     23  N   UNL     1       3.938  -5.804  25.764  0.00  0.00    -0.315 N 
ATOM     24  H   UNL     1       3.892  -4.793  25.802  0.00  0.00    +0.149 HD
ATOM     25  C   UNL     1       4.081  -6.432  24.544  0.00  0.00    +0.214 C 
ATOM     26  O   UNL     1       4.044  -7.648  24.409  0.00  0.00    -0.276 OA
BRANCH  25  27
ATOM     27  C   UNL     1       4.323  -5.475  23.394  0.00  0.00    +0.106 C 
BRANCH  27  28
ATOM     28  C   UNL     1       5.585  -5.870  22.639  0.00  0.00    +0.075 C 
BRANCH  28  29
ATOM     29  S   UNL     1       6.245  -4.455  21.707  0.00  0.00    -0.178 S 
ATOM     30  H   UNL     1       7.461  -4.969  21.474  0.00  0.00    +0.102 HD
ENDBRANCH  28  29
ENDBRANCH  27  28
ENDBRANCH  25  27
ENDBRANCH  22  23
ENDBRANCH  21  22
ENDBRANCH  20  21
ENDBRANCH  19  20
ENDBRANCH  17  19
ENDBRANCH   1  17
TORSDOF 11
ENDMDL
