MODEL 1
REMARK VINA RESULT:      -4.1      0.000      0.000
REMARK  Name = 
REMARK  5 active torsions:
REMARK  status: ('A' for Active; 'I' for Inactive)
REMARK    1  A    between atoms: O_1  and  N_2
REMARK    2  A    between atoms: N_2  and  C_3
REMARK    3  A    between atoms: C_3  and  C_4
REMARK    4  A    between atoms: C_4  and  O_5
REMARK    5  A    between atoms: C_7  and  O_8
REMARK                            x       y       z     vdW  Elec       q    Type
REMARK                         _______ _______ _______ _____ _____    ______ ____
ROOT
ATOM      1  N   UNL     1       9.779  -1.061  22.924  0.00  0.00    -0.138 N 
ATOM      2  C   UNL     1       9.756  -1.806  24.094  0.00  0.00    +0.424 C 
ATOM      3  O   UNL     1       9.416  -1.368  25.179  0.00  0.00    -0.224 OA
ENDROOT
BRANCH   1   4
ATOM      4  O   UNL     1      10.513  -1.709  21.891  0.00  0.00    -0.289 OA
ATOM      5  H   UNL     1      10.714  -2.595  22.251  0.00  0.00    +0.242 HD
ENDBRANCH   1   4
BRANCH   2   6
ATOM      6  O   UNL     1      10.082  -3.093  23.871  0.00  0.00    -0.465 OA
ATOM      7  H   UNL     1      11.059  -3.105  23.971  0.00  0.00    +0.297 HD
ENDBRANCH   2   6
BRANCH   1   8
ATOM      8  C   UNL     1      10.040   0.379  23.035  0.00  0.00    +0.263 C 
BRANCH   8   9
ATOM      9  C   UNL     1       9.692   1.225  21.814  0.00  0.00    +0.325 C 
ATOM     10  O   UNL     1       8.862   0.859  20.990  0.00  0.00    -0.249 OA
BRANCH   9  11
ATOM     11  O   UNL     1      10.332   2.404  21.690  0.00  0.00    -0.479 OA
ATOM     12  H   UNL     1      10.861   2.661  22.471  0.00  0.00    +0.295 HD
ENDBRANCH   9  11
ENDBRANCH   8   9
ENDBRANCH   1   8
TORSDOF 5
ENDMDL
MODEL 2
REMARK VINA RESULT:      -4.0      4.788      6.491
REMARK  Name = 
REMARK  5 active torsions:
REMARK  status: ('A' for Active; 'I' for Inactive)
REMARK    1  A    between atoms: O_1  and  N_2
REMARK    2  A    between atoms: N_2  and  C_3
REMARK    3  A    between atoms: C_3  and  C_4
REMARK    4  A    between atoms: C_4  and  O_5
REMARK    5  A    between atoms: C_7  and  O_8
REMARK                            x       y       z     vdW  Elec       q    Type
REMARK                         _______ _______ _______ _____ _____    ______ ____
ROOT
ATOM      1  N   UNL     1       7.562  -5.567  26.187  0.00  0.00    -0.138 N 
ATOM      2  C   UNL     1       6.199  -5.747  26.004  0.00  0.00    +0.424 C 
ATOM      3  O   UNL     1       5.567  -5.299  25.063  0.00  0.00    -0.224 OA
ENDROOT
BRANCH   1   4
ATOM      4  O   UNL     1       7.975  -5.907  27.506  0.00  0.00    -0.289 OA
ATOM      5  H   UNL     1       7.587  -6.790  27.665  0.00  0.00    +0.242 HD
ENDBRANCH   1   4
BRANCH   2   6
ATOM      6  O   UNL     1       5.670  -6.541  26.954  0.00  0.00    -0.465 OA
ATOM      7  H   UNL     1       6.055  -6.194  27.788  0.00  0.00    +0.297 HD
ENDBRANCH   2   6
BRANCH   1   8
ATOM      8  C   UNL     1       8.164  -4.334  25.666  0.00  0.00    +0.263 C 
BRANCH   8   9
ATOM      9  C   UNL     1       9.550  -4.471  25.040  0.00  0.00    +0.325 C 
ATOM     10  O   UNL     1       9.996  -3.630  24.271  0.00  0.00    -0.249 OA
BRANCH   9  11
ATOM     11  O   UNL     1      10.267  -5.559  25.386  0.00  0.00    -0.479 OA
ATOM     12  H   UNL     1       9.839  -6.411  25.170  0.00  0.00    +0.295 HD
ENDBRANCH   9  11
ENDBRANCH   8   9
ENDBRANCH   1   8
TORSDOF 5
ENDMDL
MODEL 3
REMARK VINA RESULT:      -4.0      5.463      7.008
REMARK  Name = 
REMARK  5 active torsions:
REMARK  status: ('A' for Active; 'I' for Inactive)
REMARK    1  A    between atoms: O_1  and  N_2
REMARK    2  A    between atoms: N_2  and  C_3
REMARK    3  A    between atoms: C_3  and  C_4
REMARK    4  A    between atoms: C_4  and  O_5
REMARK    5  A    between atoms: C_7  and  O_8
REMARK                            x       y       z     vdW  Elec       q    Type
REMARK                         _______ _______ _______ _____ _____    ______ ____
ROOT
ATOM      1  N   UNL     1       8.631  -4.416  26.081  0.00  0.00    -0.138 N 
ATOM      2  C   UNL     1       8.951  -5.007  24.867  0.00  0.00    +0.424 C 
ATOM      3  O   UNL     1       8.192  -5.079  23.918  0.00  0.00    -0.224 OA
ENDROOT
BRANCH   1   4
ATOM      4  O   UNL     1       9.562  -4.754  27.103  0.00  0.00    -0.289 OA
ATOM      5  H   UNL     1      10.043  -5.528  26.752  0.00  0.00    +0.242 HD
ENDBRANCH   1   4
BRANCH   2   6
ATOM      6  O   UNL     1      10.231  -5.424  24.840  0.00  0.00    -0.465 OA
ATOM      7  H   UNL     1      10.680  -4.842  25.491  0.00  0.00    +0.297 HD
ENDBRANCH   2   6
BRANCH   1   8
ATOM      8  C   UNL     1       7.227  -4.452  26.509  0.00  0.00    +0.263 C 
BRANCH   8   9
ATOM      9  C   UNL     1       6.726  -5.781  27.069  0.00  0.00    +0.325 C 
ATOM     10  O   UNL     1       5.827  -6.412  26.526  0.00  0.00    -0.249 OA
BRANCH   9  11
ATOM     11  O   UNL     1       7.329  -6.235  28.185  0.00  0.00    -0.479 OA
ATOM     12  H   UNL     1       6.715  -6.499  28.898  0.00  0.00    +0.295 HD
ENDBRANCH   9  11
ENDBRANCH   8   9
ENDBRANCH   1   8
TORSDOF 5
ENDMDL
MODEL 4
REMARK VINA RESULT:      -4.0      1.338      3.864
REMARK  Name = 
REMARK  5 active torsions:
REMARK  status: ('A' for Active; 'I' for Inactive)
REMARK    1  A    between atoms: O_1  and  N_2
REMARK    2  A    between atoms: N_2  and  C_3
REMARK    3  A    between atoms: C_3  and  C_4
REMARK    4  A    between atoms: C_4  and  O_5
REMARK    5  A    between atoms: C_7  and  O_8
REMARK                            x       y       z     vdW  Elec       q    Type
REMARK                         _______ _______ _______ _____ _____    ______ ____
ROOT
ATOM      1  N   UNL     1      10.192   0.070  22.546  0.00  0.00    -0.138 N 
ATOM      2  C   UNL     1      10.060   1.447  22.653  0.00  0.00    +0.424 C 
ATOM      3  O   UNL     1      10.113   2.061  23.703  0.00  0.00    -0.224 OA
ENDROOT
BRANCH   1   4
ATOM      4  O   UNL     1       9.771  -0.411  21.274  0.00  0.00    -0.289 OA
ATOM      5  H   UNL     1      10.547  -0.892  20.924  0.00  0.00    +0.242 HD
ENDBRANCH   1   4
BRANCH   2   6
ATOM      6  O   UNL     1       9.943   2.031  21.445  0.00  0.00    -0.465 OA
ATOM      7  H   UNL     1      10.730   2.617  21.393  0.00  0.00    +0.297 HD
ENDBRANCH   2   6
BRANCH   1   8
ATOM      8  C   UNL     1       9.742  -0.749  23.678  0.00  0.00    +0.263 C 
BRANCH   8   9
ATOM      9  C   UNL     1       9.518  -2.232  23.392  0.00  0.00    +0.325 C 
ATOM     10  O   UNL     1      10.226  -3.099  23.890  0.00  0.00    -0.249 OA
BRANCH   9  11
ATOM     11  O   UNL     1       8.493  -2.544  22.574  0.00  0.00    -0.479 OA
ATOM     12  H   UNL     1       8.188  -1.807  22.010  0.00  0.00    +0.295 HD
ENDBRANCH   9  11
ENDBRANCH   8   9
ENDBRANCH   1   8
TORSDOF 5
ENDMDL
MODEL 5
REMARK VINA RESULT:      -4.0      5.601      7.254
REMARK  Name = 
REMARK  5 active torsions:
REMARK  status: ('A' for Active; 'I' for Inactive)
REMARK    1  A    between atoms: O_1  and  N_2
REMARK    2  A    between atoms: N_2  and  C_3
REMARK    3  A    between atoms: C_3  and  C_4
REMARK    4  A    between atoms: C_4  and  O_5
REMARK    5  A    between atoms: C_7  and  O_8
REMARK                            x       y       z     vdW  Elec       q    Type
REMARK                         _______ _______ _______ _____ _____    ______ ____
ROOT
ATOM      1  N   UNL     1       7.956  -5.041  26.210  0.00  0.00    -0.138 N 
ATOM      2  C   UNL     1       8.828  -5.340  25.173  0.00  0.00    +0.424 C 
ATOM      3  O   UNL     1       8.688  -4.955  24.026  0.00  0.00    -0.224 OA
ENDROOT
BRANCH   1   4
ATOM      4  O   UNL     1       8.172  -5.870  27.347  0.00  0.00    -0.289 OA
ATOM      5  H   UNL     1       7.662  -6.683  27.159  0.00  0.00    +0.242 HD
ENDBRANCH   1   4
BRANCH   2   6
ATOM      6  O   UNL     1       9.891  -6.045  25.604  0.00  0.00    -0.465 OA
ATOM      7  H   UNL     1       9.630  -6.331  26.507  0.00  0.00    +0.297 HD
ENDBRANCH   2   6
BRANCH   1   8
ATOM      8  C   UNL     1       6.542  -4.835  25.875  0.00  0.00    +0.263 C 
BRANCH   8   9
ATOM      9  C   UNL     1       5.672  -6.087  25.817  0.00  0.00    +0.325 C 
ATOM     10  O   UNL     1       5.137  -6.454  24.778  0.00  0.00    -0.249 OA
BRANCH   9  11
ATOM     11  O   UNL     1       5.529  -6.781  26.964  0.00  0.00    -0.479 OA
ATOM     12  H   UNL     1       5.364  -6.228  27.753  0.00  0.00    +0.295 HD
ENDBRANCH   9  11
ENDBRANCH   8   9
ENDBRANCH   1   8
TORSDOF 5
ENDMDL
MODEL 6
REMARK VINA RESULT:      -3.9      2.074      3.806
REMARK  Name = 
REMARK  5 active torsions:
REMARK  status: ('A' for Active; 'I' for Inactive)
REMARK    1  A    between atoms: O_1  and  N_2
REMARK    2  A    between atoms: N_2  and  C_3
REMARK    3  A    between atoms: C_3  and  C_4
REMARK    4  A    between atoms: C_4  and  O_5
REMARK    5  A    between atoms: C_7  and  O_8
REMARK                            x       y       z     vdW  Elec       q    Type
REMARK                         _______ _______ _______ _____ _____    ______ ____
ROOT
ATOM      1  N   UNL     1      10.287   1.877  22.937  0.00  0.00    -0.138 N 
ATOM      2  C   UNL     1       9.525   2.746  23.704  0.00  0.00    +0.424 C 
ATOM      3  O   UNL     1       9.100   2.486  24.816  0.00  0.00    -0.224 OA
ENDROOT
BRANCH   1   4
ATOM      4  O   UNL     1      10.370   2.296  21.578  0.00  0.00    -0.289 OA
ATOM      5  H   UNL     1      10.436   1.464  21.069  0.00  0.00    +0.242 HD
ENDBRANCH   1   4
BRANCH   2   6
ATOM      6  O   UNL     1       9.374   3.941  23.102  0.00  0.00    -0.465 OA
ATOM      7  H   UNL     1      10.195   4.038  22.571  0.00  0.00    +0.297 HD
ENDBRANCH   2   6
BRANCH   1   8
ATOM      8  C   UNL     1      10.065   0.437  23.110  0.00  0.00    +0.263 C 
BRANCH   8   9
ATOM      9  C   UNL     1       9.791  -0.362  21.839  0.00  0.00    +0.325 C 
ATOM     10  O   UNL     1       9.017   0.040  20.979  0.00  0.00    -0.249 OA
BRANCH   9  11
ATOM     11  O   UNL     1      10.451  -1.528  21.702  0.00  0.00    -0.479 OA
ATOM     12  H   UNL     1       9.909  -2.323  21.877  0.00  0.00    +0.295 HD
ENDBRANCH   9  11
ENDBRANCH   8   9
ENDBRANCH   1   8
TORSDOF 5
ENDMDL
MODEL 7
REMARK VINA RESULT:      -3.9      3.541      4.764
REMARK  Name = 
REMARK  5 active torsions:
REMARK  status: ('A' for Active; 'I' for Inactive)
REMARK    1  A    between atoms: O_1  and  N_2
REMARK    2  A    between atoms: N_2  and  C_3
REMARK    3  A    between atoms: C_3  and  C_4
REMARK    4  A    between atoms: C_4  and  O_5
REMARK    5  A    between atoms: C_7  and  O_8
REMARK                            x       y       z     vdW  Elec       q    Type
REMARK                         _______ _______ _______ _____ _____    ______ ____
ROOT
ATOM      1  N   UNL     1       8.396  -5.245  24.689  0.00  0.00    -0.138 N 
ATOM      2  C   UNL     1       7.724  -5.208  25.902  0.00  0.00    +0.424 C 
ATOM      3  O   UNL     1       6.646  -4.666  26.072  0.00  0.00    -0.224 OA
ENDROOT
BRANCH   1   4
ATOM      4  O   UNL     1       9.754  -5.647  24.842  0.00  0.00    -0.289 OA
ATOM      5  H   UNL     1       9.703  -6.544  25.227  0.00  0.00    +0.242 HD
ENDBRANCH   1   4
BRANCH   2   6
ATOM      6  O   UNL     1       8.370  -5.910  26.852  0.00  0.00    -0.465 OA
ATOM      7  H   UNL     1       8.497  -6.793  26.442  0.00  0.00    +0.297 HD
ENDBRANCH   2   6
BRANCH   1   8
ATOM      8  C   UNL     1       8.201  -4.122  23.765  0.00  0.00    +0.263 C 
BRANCH   8   9
ATOM      9  C   UNL     1       9.089  -2.901  23.988  0.00  0.00    +0.325 C 
ATOM     10  O   UNL     1      10.297  -2.935  23.783  0.00  0.00    -0.249 OA
BRANCH   9  11
ATOM     11  O   UNL     1       8.479  -1.777  24.410  0.00  0.00    -0.479 OA
ATOM     12  H   UNL     1       8.832  -0.954  24.019  0.00  0.00    +0.295 HD
ENDBRANCH   9  11
ENDBRANCH   8   9
ENDBRANCH   1   8
TORSDOF 5
ENDMDL
MODEL 8
REMARK VINA RESULT:      -3.8      1.843      4.163
REMARK  Name = 
REMARK  5 active torsions:
REMARK  status: ('A' for Active; 'I' for Inactive)
REMARK    1  A    between atoms: O_1  and  N_2
REMARK    2  A    between atoms: N_2  and  C_3
REMARK    3  A    between atoms: C_3  and  C_4
REMARK    4  A    between atoms: C_4  and  O_5
REMARK    5  A    between atoms: C_7  and  O_8
REMARK                            x       y       z     vdW  Elec       q    Type
REMARK                         _______ _______ _______ _____ _____    ______ ____
ROOT
ATOM      1  N   UNL     1       9.363   1.425  21.962  0.00  0.00    -0.138 N 
ATOM      2  C   UNL     1       8.111   2.018  22.038  0.00  0.00    +0.424 C 
ATOM      3  O   UNL     1       7.066   1.403  22.146  0.00  0.00    -0.224 OA
ENDROOT
BRANCH   1   4
ATOM      4  O   UNL     1      10.362   2.337  21.518  0.00  0.00    -0.289 OA
ATOM      5  H   UNL     1       9.925   3.211  21.544  0.00  0.00    +0.242 HD
ENDBRANCH   1   4
BRANCH   2   6
ATOM      6  O   UNL     1       8.198   3.362  22.054  0.00  0.00    -0.465 OA
ATOM      7  H   UNL     1       9.165   3.532  22.067  0.00  0.00    +0.297 HD
ENDBRANCH   2   6
BRANCH   1   8
ATOM      8  C   UNL     1       9.452   0.092  21.353  0.00  0.00    +0.263 C 
BRANCH   8   9
ATOM      9  C   UNL     1       9.558  -1.085  22.318  0.00  0.00    +0.325 C 
ATOM     10  O   UNL     1      10.548  -1.806  22.350  0.00  0.00    -0.249 OA
BRANCH   9  11
ATOM     11  O   UNL     1       8.514  -1.288  23.146  0.00  0.00    -0.479 OA
ATOM     12  H   UNL     1       8.497  -2.169  23.569  0.00  0.00    +0.295 HD
ENDBRANCH   9  11
ENDBRANCH   8   9
ENDBRANCH   1   8
TORSDOF 5
ENDMDL
MODEL 9
REMARK VINA RESULT:      -3.8      2.049      2.988
REMARK  Name = 
REMARK  5 active torsions:
REMARK  status: ('A' for Active; 'I' for Inactive)
REMARK    1  A    between atoms: O_1  and  N_2
REMARK    2  A    between atoms: N_2  and  C_3
REMARK    3  A    between atoms: C_3  and  C_4
REMARK    4  A    between atoms: C_4  and  O_5
REMARK    5  A    between atoms: C_7  and  O_8
REMARK                            x       y       z     vdW  Elec       q    Type
REMARK                         _______ _______ _______ _____ _____    ______ ____
ROOT
ATOM      1  N   UNL     1       9.688   1.205  22.618  0.00  0.00    -0.138 N 
ATOM      2  C   UNL     1       9.978  -0.144  22.467  0.00  0.00    +0.424 C 
ATOM      3  O   UNL     1      10.275  -0.888  23.384  0.00  0.00    -0.224 OA
ENDROOT
BRANCH   1   4
ATOM      4  O   UNL     1       9.696   1.896  21.374  0.00  0.00    -0.289 OA
ATOM      5  H   UNL     1      10.593   2.280  21.311  0.00  0.00    +0.242 HD
ENDBRANCH   1   4
BRANCH   2   6
ATOM      6  O   UNL     1       9.817  -0.548  21.192  0.00  0.00    -0.465 OA
ATOM      7  H   UNL     1      10.265   0.152  20.669  0.00  0.00    +0.297 HD
ENDBRANCH   2   6
BRANCH   1   8
ATOM      8  C   UNL     1      10.347   1.927  23.712  0.00  0.00    +0.263 C 
BRANCH   8   9
ATOM      9  C   UNL     1      10.419   3.445  23.573  0.00  0.00    +0.325 C 
ATOM     10  O   UNL     1       9.621   4.183  24.139  0.00  0.00    -0.249 OA
BRANCH   9  11
ATOM     11  O   UNL     1      11.412   3.938  22.807  0.00  0.00    -0.479 OA
ATOM     12  H   UNL     1      11.130   4.627  22.174  0.00  0.00    +0.295 HD
ENDBRANCH   9  11
ENDBRANCH   8   9
ENDBRANCH   1   8
TORSDOF 5
ENDMDL
