MODEL 1
REMARK VINA RESULT:      -5.2      0.000      0.000
REMARK  Name = 
REMARK  14 active torsions:
REMARK  status: ('A' for Active; 'I' for Inactive)
REMARK    1  A    between atoms: C_2  and  O_3
REMARK    2  A    between atoms: C_2  and  C_4
REMARK    3  A    between atoms: C_2  and  C_13
REMARK    4  A    between atoms: C_4  and  O_5
REMARK    5  A    between atoms: O_5  and  C_6
REMARK    6  A    between atoms: C_6  and  C_8
REMARK    7  A    between atoms: C_8  and  C_9
REMARK    8  A    between atoms: C_9  and  C_10
REMARK    9  A    between atoms: C_10  and  C_11
REMARK   10  A    between atoms: C_11  and  C_12
REMARK   11  A    between atoms: C_13  and  O_14
REMARK   12  A    between atoms: O_14  and  P_15
REMARK   13  A    between atoms: P_15  and  O_16
REMARK   14  A    between atoms: P_15  and  O_17
REMARK                            x       y       z     vdW  Elec       q    Type
REMARK                         _______ _______ _______ _____ _____    ______ ____
ROOT
ATOM      1  C   UNL     1       8.575  -5.029  25.051  0.00  0.00    +0.178 C 
ENDROOT
BRANCH   1   2
ATOM      2  O   UNL     1       9.636  -5.904  25.463  0.00  0.00    -0.386 OA
ATOM      3  H   UNL     1      10.251  -5.402  26.022  0.00  0.00    +0.210 HD
ENDBRANCH   1   2
BRANCH   1   4
ATOM      4  C   UNL     1       8.040  -5.439  23.678  0.00  0.00    +0.207 C 
BRANCH   4   5
ATOM      5  O   UNL     1       6.721  -4.932  23.518  0.00  0.00    -0.284 OA
BRANCH   5   6
ATOM      6  P   UNL     1       6.030  -5.102  22.088  0.00  0.00    +0.472 P 
ATOM      7  O   UNL     1       5.518  -3.857  21.449  0.00  0.00    -0.228 OA
BRANCH   6   8
ATOM      8  O   UNL     1       4.899  -6.200  22.324  0.00  0.00    -0.303 OA
ATOM      9  H   UNL     1       5.297  -7.074  22.488  0.00  0.00    +0.222 HD
ENDBRANCH   6   8
BRANCH   6  10
ATOM     10  O   UNL     1       7.118  -5.869  21.208  0.00  0.00    -0.303 OA
ATOM     11  H   UNL     1       6.683  -6.513  20.618  0.00  0.00    +0.222 HD
ENDBRANCH   6  10
ENDBRANCH   5   6
ENDBRANCH   4   5
ENDBRANCH   1   4
BRANCH   1  12
ATOM     12  C   UNL     1       9.113  -3.593  25.030  0.00  0.00    +0.265 C 
BRANCH  12  13
ATOM     13  O   UNL     1      10.106  -3.332  24.031  0.00  0.00    -0.462 OA
BRANCH  13  14
ATOM     14  C   UNL     1      10.062  -2.079  23.503  0.00  0.00    +0.307 C 
ATOM     15  O   UNL     1      10.526  -1.765  22.416  0.00  0.00    -0.251 OA
BRANCH  14  16
ATOM     16  C   UNL     1       9.329  -1.137  24.424  0.00  0.00    +0.120 C 
BRANCH  16  17
ATOM     17  C   UNL     1      10.272  -0.007  24.830  0.00  0.00    +0.011 C 
BRANCH  17  18
ATOM     18  C   UNL     1       9.714   1.373  24.497  0.00  0.00    +0.000 C 
BRANCH  18  19
ATOM     19  C   UNL     1      10.531   2.020  23.378  0.00  0.00    -0.003 C 
ATOM     20  C   UNL     1       9.937   1.733  22.011  0.00  0.00    +0.004 C 
ENDBRANCH  18  19
ENDBRANCH  17  18
ENDBRANCH  16  17
ENDBRANCH  14  16
ENDBRANCH  13  14
ENDBRANCH  12  13
ENDBRANCH   1  12
TORSDOF 13
ENDMDL
MODEL 2
REMARK VINA RESULT:      -5.1      2.829      3.547
REMARK  Name = 
REMARK  14 active torsions:
REMARK  status: ('A' for Active; 'I' for Inactive)
REMARK    1  A    between atoms: C_2  and  O_3
REMARK    2  A    between atoms: C_2  and  C_4
REMARK    3  A    between atoms: C_2  and  C_13
REMARK    4  A    between atoms: C_4  and  O_5
REMARK    5  A    between atoms: O_5  and  C_6
REMARK    6  A    between atoms: C_6  and  C_8
REMARK    7  A    between atoms: C_8  and  C_9
REMARK    8  A    between atoms: C_9  and  C_10
REMARK    9  A    between atoms: C_10  and  C_11
REMARK   10  A    between atoms: C_11  and  C_12
REMARK   11  A    between atoms: C_13  and  O_14
REMARK   12  A    between atoms: O_14  and  P_15
REMARK   13  A    between atoms: P_15  and  O_16
REMARK   14  A    between atoms: P_15  and  O_17
REMARK                            x       y       z     vdW  Elec       q    Type
REMARK                         _______ _______ _______ _____ _____    ______ ____
ROOT
ATOM      1  C   UNL     1       9.121  -4.809  25.962  0.00  0.00    +0.178 C 
ENDROOT
BRANCH   1   2
ATOM      2  O   UNL     1       9.888  -5.761  25.209  0.00  0.00    -0.386 OA
ATOM      3  H   UNL     1       9.556  -5.774  24.297  0.00  0.00    +0.210 HD
ENDBRANCH   1   2
BRANCH   1   4
ATOM      4  C   UNL     1       7.730  -5.363  26.274  0.00  0.00    +0.207 C 
BRANCH   4   5
ATOM      5  O   UNL     1       7.650  -5.680  27.658  0.00  0.00    -0.284 OA
BRANCH   5   6
ATOM      6  P   UNL     1       6.225  -6.105  28.241  0.00  0.00    +0.472 P 
ATOM      7  O   UNL     1       5.407  -5.017  28.845  0.00  0.00    -0.228 OA
BRANCH   6   8
ATOM      8  O   UNL     1       6.551  -7.288  29.257  0.00  0.00    -0.303 OA
ATOM      9  H   UNL     1       6.096  -7.147  30.108  0.00  0.00    +0.222 HD
ENDBRANCH   6   8
BRANCH   6  10
ATOM     10  O   UNL     1       5.502  -6.845  27.025  0.00  0.00    -0.303 OA
ATOM     11  H   UNL     1       4.641  -7.204  27.312  0.00  0.00    +0.222 HD
ENDBRANCH   6  10
ENDBRANCH   5   6
ENDBRANCH   4   5
ENDBRANCH   1   4
BRANCH   1  12
ATOM     12  C   UNL     1       9.031  -3.510  25.153  0.00  0.00    +0.265 C 
BRANCH  12  13
ATOM     13  O   UNL     1       9.999  -3.383  24.103  0.00  0.00    -0.462 OA
BRANCH  13  14
ATOM     14  C   UNL     1      10.098  -2.134  23.574  0.00  0.00    +0.307 C 
ATOM     15  O   UNL     1      10.541  -1.881  22.463  0.00  0.00    -0.251 OA
BRANCH  14  16
ATOM     16  C   UNL     1       9.550  -1.104  24.529  0.00  0.00    +0.120 C 
BRANCH  16  17
ATOM     17  C   UNL     1      10.504   0.088  24.574  0.00  0.00    +0.011 C 
BRANCH  17  18
ATOM     18  C   UNL     1       9.776   1.427  24.517  0.00  0.00    +0.000 C 
BRANCH  18  19
ATOM     19  C   UNL     1       9.030   1.569  23.190  0.00  0.00    -0.003 C 
ATOM     20  C   UNL     1       9.987   1.637  22.013  0.00  0.00    +0.004 C 
ENDBRANCH  18  19
ENDBRANCH  17  18
ENDBRANCH  16  17
ENDBRANCH  14  16
ENDBRANCH  13  14
ENDBRANCH  12  13
ENDBRANCH   1  12
TORSDOF 13
ENDMDL
MODEL 3
REMARK VINA RESULT:      -5.1      1.229      1.698
REMARK  Name = 
REMARK  14 active torsions:
REMARK  status: ('A' for Active; 'I' for Inactive)
REMARK    1  A    between atoms: C_2  and  O_3
REMARK    2  A    between atoms: C_2  and  C_4
REMARK    3  A    between atoms: C_2  and  C_13
REMARK    4  A    between atoms: C_4  and  O_5
REMARK    5  A    between atoms: O_5  and  C_6
REMARK    6  A    between atoms: C_6  and  C_8
REMARK    7  A    between atoms: C_8  and  C_9
REMARK    8  A    between atoms: C_9  and  C_10
REMARK    9  A    between atoms: C_10  and  C_11
REMARK   10  A    between atoms: C_11  and  C_12
REMARK   11  A    between atoms: C_13  and  O_14
REMARK   12  A    between atoms: O_14  and  P_15
REMARK   13  A    between atoms: P_15  and  O_16
REMARK   14  A    between atoms: P_15  and  O_17
REMARK                            x       y       z     vdW  Elec       q    Type
REMARK                         _______ _______ _______ _____ _____    ______ ____
ROOT
ATOM      1  C   UNL     1       8.631  -4.855  24.757  0.00  0.00    +0.178 C 
ENDROOT
BRANCH   1   2
ATOM      2  O   UNL     1       9.904  -5.520  24.738  0.00  0.00    -0.386 OA
ATOM      3  H   UNL     1       9.985  -6.008  23.903  0.00  0.00    +0.210 HD
ENDBRANCH   1   2
BRANCH   1   4
ATOM      4  C   UNL     1       7.744  -5.355  23.616  0.00  0.00    +0.207 C 
BRANCH   4   5
ATOM      5  O   UNL     1       6.388  -5.363  24.044  0.00  0.00    -0.284 OA
BRANCH   5   6
ATOM      6  P   UNL     1       5.292  -5.919  23.025  0.00  0.00    +0.472 P 
ATOM      7  O   UNL     1       4.221  -4.965  22.619  0.00  0.00    -0.228 OA
BRANCH   6   8
ATOM      8  O   UNL     1       4.731  -7.235  23.727  0.00  0.00    -0.303 OA
ATOM      9  H   UNL     1       5.177  -7.387  24.580  0.00  0.00    +0.222 HD
ENDBRANCH   6   8
BRANCH   6  10
ATOM     10  O   UNL     1       6.140  -6.484  21.796  0.00  0.00    -0.303 OA
ATOM     11  H   UNL     1       5.766  -6.167  20.953  0.00  0.00    +0.222 HD
ENDBRANCH   6  10
ENDBRANCH   5   6
ENDBRANCH   4   5
ENDBRANCH   1   4
BRANCH   1  12
ATOM     12  C   UNL     1       8.873  -3.345  24.650  0.00  0.00    +0.265 C 
BRANCH  12  13
ATOM     13  O   UNL     1       9.781  -2.948  23.616  0.00  0.00    -0.462 OA
BRANCH  13  14
ATOM     14  C   UNL     1       9.261  -2.075  22.711  0.00  0.00    +0.307 C 
ATOM     15  O   UNL     1       8.134  -2.146  22.243  0.00  0.00    -0.251 OA
BRANCH  14  16
ATOM     16  C   UNL     1      10.253  -0.984  22.391  0.00  0.00    +0.120 C 
BRANCH  16  17
ATOM     17  C   UNL     1       9.537   0.127  21.626  0.00  0.00    +0.011 C 
BRANCH  17  18
ATOM     18  C   UNL     1       9.976   1.520  22.064  0.00  0.00    +0.000 C 
BRANCH  18  19
ATOM     19  C   UNL     1      10.382   1.509  23.538  0.00  0.00    -0.003 C 
ATOM     20  C   UNL     1       9.283   2.062  24.427  0.00  0.00    +0.004 C 
ENDBRANCH  18  19
ENDBRANCH  17  18
ENDBRANCH  16  17
ENDBRANCH  14  16
ENDBRANCH  13  14
ENDBRANCH  12  13
ENDBRANCH   1  12
TORSDOF 13
ENDMDL
MODEL 4
REMARK VINA RESULT:      -5.1      2.011      3.545
REMARK  Name = 
REMARK  14 active torsions:
REMARK  status: ('A' for Active; 'I' for Inactive)
REMARK    1  A    between atoms: C_2  and  O_3
REMARK    2  A    between atoms: C_2  and  C_4
REMARK    3  A    between atoms: C_2  and  C_13
REMARK    4  A    between atoms: C_4  and  O_5
REMARK    5  A    between atoms: O_5  and  C_6
REMARK    6  A    between atoms: C_6  and  C_8
REMARK    7  A    between atoms: C_8  and  C_9
REMARK    8  A    between atoms: C_9  and  C_10
REMARK    9  A    between atoms: C_10  and  C_11
REMARK   10  A    between atoms: C_11  and  C_12
REMARK   11  A    between atoms: C_13  and  O_14
REMARK   12  A    between atoms: O_14  and  P_15
REMARK   13  A    between atoms: P_15  and  O_16
REMARK   14  A    between atoms: P_15  and  O_17
REMARK                            x       y       z     vdW  Elec       q    Type
REMARK                         _______ _______ _______ _____ _____    ______ ____
ROOT
ATOM      1  C   UNL     1       6.563  -3.740  22.550  0.00  0.00    +0.178 C 
ENDROOT
BRANCH   1   2
ATOM      2  O   UNL     1       5.271  -3.881  21.939  0.00  0.00    -0.386 OA
ATOM      3  H   UNL     1       4.820  -4.641  22.341  0.00  0.00    +0.210 HD
ENDBRANCH   1   2
BRANCH   1   4
ATOM      4  C   UNL     1       6.574  -4.375  23.941  0.00  0.00    +0.207 C 
BRANCH   4   5
ATOM      5  O   UNL     1       7.750  -5.160  24.090  0.00  0.00    -0.284 OA
BRANCH   5   6
ATOM      6  P   UNL     1       8.558  -5.033  25.462  0.00  0.00    +0.472 P 
ATOM      7  O   UNL     1       8.086  -5.884  26.589  0.00  0.00    -0.228 OA
BRANCH   6   8
ATOM      8  O   UNL     1       8.529  -3.474  25.794  0.00  0.00    -0.303 OA
ATOM      9  H   UNL     1       8.156  -3.318  26.681  0.00  0.00    +0.222 HD
ENDBRANCH   6   8
BRANCH   6  10
ATOM     10  O   UNL     1      10.078  -5.300  25.055  0.00  0.00    -0.303 OA
ATOM     11  H   UNL     1      10.211  -5.122  24.106  0.00  0.00    +0.222 HD
ENDBRANCH   6  10
ENDBRANCH   5   6
ENDBRANCH   4   5
ENDBRANCH   1   4
BRANCH   1  12
ATOM     12  C   UNL     1       6.907  -2.248  22.618  0.00  0.00    +0.265 C 
BRANCH  12  13
ATOM     13  O   UNL     1       7.990  -1.915  23.495  0.00  0.00    -0.462 OA
BRANCH  13  14
ATOM     14  C   UNL     1       9.219  -1.948  22.914  0.00  0.00    +0.307 C 
ATOM     15  O   UNL     1      10.166  -2.604  23.323  0.00  0.00    -0.251 OA
BRANCH  14  16
ATOM     16  C   UNL     1       9.245  -1.094  21.671  0.00  0.00    +0.120 C 
BRANCH  16  17
ATOM     17  C   UNL     1      10.068   0.163  21.951  0.00  0.00    +0.011 C 
BRANCH  17  18
ATOM     18  C   UNL     1       9.267   1.240  22.674  0.00  0.00    +0.000 C 
BRANCH  18  19
ATOM     19  C   UNL     1      10.111   1.878  23.778  0.00  0.00    -0.003 C 
ATOM     20  C   UNL     1      10.954   0.847  24.506  0.00  0.00    +0.004 C 
ENDBRANCH  18  19
ENDBRANCH  17  18
ENDBRANCH  16  17
ENDBRANCH  14  16
ENDBRANCH  13  14
ENDBRANCH  12  13
ENDBRANCH   1  12
TORSDOF 13
ENDMDL
MODEL 5
REMARK VINA RESULT:      -5.1      2.467      3.534
REMARK  Name = 
REMARK  14 active torsions:
REMARK  status: ('A' for Active; 'I' for Inactive)
REMARK    1  A    between atoms: C_2  and  O_3
REMARK    2  A    between atoms: C_2  and  C_4
REMARK    3  A    between atoms: C_2  and  C_13
REMARK    4  A    between atoms: C_4  and  O_5
REMARK    5  A    between atoms: O_5  and  C_6
REMARK    6  A    between atoms: C_6  and  C_8
REMARK    7  A    between atoms: C_8  and  C_9
REMARK    8  A    between atoms: C_9  and  C_10
REMARK    9  A    between atoms: C_10  and  C_11
REMARK   10  A    between atoms: C_11  and  C_12
REMARK   11  A    between atoms: C_13  and  O_14
REMARK   12  A    between atoms: O_14  and  P_15
REMARK   13  A    between atoms: P_15  and  O_16
REMARK   14  A    between atoms: P_15  and  O_17
REMARK                            x       y       z     vdW  Elec       q    Type
REMARK                         _______ _______ _______ _____ _____    ______ ____
ROOT
ATOM      1  C   UNL     1       8.678  -3.189  23.780  0.00  0.00    +0.178 C 
ENDROOT
BRANCH   1   2
ATOM      2  O   UNL     1      10.086  -3.305  24.043  0.00  0.00    -0.386 OA
ATOM      3  H   UNL     1      10.293  -4.239  24.206  0.00  0.00    +0.210 HD
ENDBRANCH   1   2
BRANCH   1   4
ATOM      4  C   UNL     1       8.019  -4.569  23.754  0.00  0.00    +0.207 C 
BRANCH   4   5
ATOM      5  O   UNL     1       7.459  -4.846  25.031  0.00  0.00    -0.284 OA
BRANCH   5   6
ATOM      6  P   UNL     1       8.466  -5.078  26.248  0.00  0.00    +0.472 P 
ATOM      7  O   UNL     1       8.939  -3.856  26.957  0.00  0.00    -0.228 OA
BRANCH   6   8
ATOM      8  O   UNL     1       9.649  -5.942  25.623  0.00  0.00    -0.303 OA
ATOM      9  H   UNL     1      10.419  -5.958  26.221  0.00  0.00    +0.222 HD
ENDBRANCH   6   8
BRANCH   6  10
ATOM     10  O   UNL     1       7.710  -6.114  27.200  0.00  0.00    -0.303 OA
ATOM     11  H   UNL     1       6.844  -5.755  27.469  0.00  0.00    +0.222 HD
ENDBRANCH   6  10
ENDBRANCH   5   6
ENDBRANCH   4   5
ENDBRANCH   1   4
BRANCH   1  12
ATOM     12  C   UNL     1       8.493  -2.461  22.444  0.00  0.00    +0.265 C 
BRANCH  12  13
ATOM     13  O   UNL     1       9.688  -1.895  21.892  0.00  0.00    -0.462 OA
BRANCH  13  14
ATOM     14  C   UNL     1       9.966  -0.633  22.317  0.00  0.00    +0.307 C 
ATOM     15  O   UNL     1      10.680  -0.362  23.272  0.00  0.00    -0.251 OA
BRANCH  14  16
ATOM     16  C   UNL     1       9.304   0.388  21.427  0.00  0.00    +0.120 C 
BRANCH  16  17
ATOM     17  C   UNL     1       9.782   1.782  21.832  0.00  0.00    +0.011 C 
BRANCH  17  18
ATOM     18  C   UNL     1       8.802   2.493  22.759  0.00  0.00    +0.000 C 
BRANCH  18  19
ATOM     19  C   UNL     1       9.538   3.515  23.626  0.00  0.00    -0.003 C 
ATOM     20  C   UNL     1      11.044   3.409  23.462  0.00  0.00    +0.004 C 
ENDBRANCH  18  19
ENDBRANCH  17  18
ENDBRANCH  16  17
ENDBRANCH  14  16
ENDBRANCH  13  14
ENDBRANCH  12  13
ENDBRANCH   1  12
TORSDOF 13
ENDMDL
MODEL 6
REMARK VINA RESULT:      -5.1      2.574      3.702
REMARK  Name = 
REMARK  14 active torsions:
REMARK  status: ('A' for Active; 'I' for Inactive)
REMARK    1  A    between atoms: C_2  and  O_3
REMARK    2  A    between atoms: C_2  and  C_4
REMARK    3  A    between atoms: C_2  and  C_13
REMARK    4  A    between atoms: C_4  and  O_5
REMARK    5  A    between atoms: O_5  and  C_6
REMARK    6  A    between atoms: C_6  and  C_8
REMARK    7  A    between atoms: C_8  and  C_9
REMARK    8  A    between atoms: C_9  and  C_10
REMARK    9  A    between atoms: C_10  and  C_11
REMARK   10  A    between atoms: C_11  and  C_12
REMARK   11  A    between atoms: C_13  and  O_14
REMARK   12  A    between atoms: O_14  and  P_15
REMARK   13  A    between atoms: P_15  and  O_16
REMARK   14  A    between atoms: P_15  and  O_17
REMARK                            x       y       z     vdW  Elec       q    Type
REMARK                         _______ _______ _______ _____ _____    ______ ____
ROOT
ATOM      1  C   UNL     1       8.405  -1.193  26.152  0.00  0.00    +0.178 C 
ENDROOT
BRANCH   1   2
ATOM      2  O   UNL     1       9.027  -0.639  27.322  0.00  0.00    -0.386 OA
ATOM      3  H   UNL     1       9.145  -1.348  27.974  0.00  0.00    +0.210 HD
ENDBRANCH   1   2
BRANCH   1   4
ATOM      4  C   UNL     1       8.004  -2.649  26.392  0.00  0.00    +0.207 C 
BRANCH   4   5
ATOM      5  O   UNL     1       9.152  -3.479  26.267  0.00  0.00    -0.284 OA
BRANCH   5   6
ATOM      6  P   UNL     1       8.984  -4.867  25.496  0.00  0.00    +0.472 P 
ATOM      7  O   UNL     1       7.964  -5.807  26.040  0.00  0.00    -0.228 OA
BRANCH   6   8
ATOM      8  O   UNL     1      10.453  -5.482  25.463  0.00  0.00    -0.303 OA
ATOM      9  H   UNL     1      10.536  -6.213  26.102  0.00  0.00    +0.222 HD
ENDBRANCH   6   8
BRANCH   6  10
ATOM     10  O   UNL     1       8.719  -4.450  23.978  0.00  0.00    -0.303 OA
ATOM     11  H   UNL     1       8.848  -3.491  23.863  0.00  0.00    +0.222 HD
ENDBRANCH   6  10
ENDBRANCH   5   6
ENDBRANCH   4   5
ENDBRANCH   1   4
BRANCH   1  12
ATOM     12  C   UNL     1       9.386  -1.074  24.979  0.00  0.00    +0.265 C 
BRANCH  12  13
ATOM     13  O   UNL     1       8.805  -1.256  23.682  0.00  0.00    -0.462 OA
BRANCH  13  14
ATOM     14  C   UNL     1       9.704  -1.482  22.687  0.00  0.00    +0.307 C 
ATOM     15  O   UNL     1      10.600  -2.312  22.732  0.00  0.00    -0.251 OA
BRANCH  14  16
ATOM     16  C   UNL     1       9.420  -0.595  21.501  0.00  0.00    +0.120 C 
BRANCH  16  17
ATOM     17  C   UNL     1       9.792   0.843  21.857  0.00  0.00    +0.011 C 
BRANCH  17  18
ATOM     18  C   UNL     1       8.593   1.785  21.827  0.00  0.00    +0.000 C 
BRANCH  18  19
ATOM     19  C   UNL     1       8.762   2.892  22.868  0.00  0.00    -0.003 C 
ATOM     20  C   UNL     1       9.656   2.454  24.014  0.00  0.00    +0.004 C 
ENDBRANCH  18  19
ENDBRANCH  17  18
ENDBRANCH  16  17
ENDBRANCH  14  16
ENDBRANCH  13  14
ENDBRANCH  12  13
ENDBRANCH   1  12
TORSDOF 13
ENDMDL
MODEL 7
REMARK VINA RESULT:      -5.0      2.140      3.548
REMARK  Name = 
REMARK  14 active torsions:
REMARK  status: ('A' for Active; 'I' for Inactive)
REMARK    1  A    between atoms: C_2  and  O_3
REMARK    2  A    between atoms: C_2  and  C_4
REMARK    3  A    between atoms: C_2  and  C_13
REMARK    4  A    between atoms: C_4  and  O_5
REMARK    5  A    between atoms: O_5  and  C_6
REMARK    6  A    between atoms: C_6  and  C_8
REMARK    7  A    between atoms: C_8  and  C_9
REMARK    8  A    between atoms: C_9  and  C_10
REMARK    9  A    between atoms: C_10  and  C_11
REMARK   10  A    between atoms: C_11  and  C_12
REMARK   11  A    between atoms: C_13  and  O_14
REMARK   12  A    between atoms: O_14  and  P_15
REMARK   13  A    between atoms: P_15  and  O_16
REMARK   14  A    between atoms: P_15  and  O_17
REMARK                            x       y       z     vdW  Elec       q    Type
REMARK                         _______ _______ _______ _____ _____    ______ ____
ROOT
ATOM      1  C   UNL     1       7.145  -4.614  23.102  0.00  0.00    +0.178 C 
ENDROOT
BRANCH   1   2
ATOM      2  O   UNL     1       6.312  -5.307  22.158  0.00  0.00    -0.386 OA
ATOM      3  H   UNL     1       5.559  -4.738  21.935  0.00  0.00    +0.210 HD
ENDBRANCH   1   2
BRANCH   1   4
ATOM      4  C   UNL     1       6.418  -4.439  24.436  0.00  0.00    +0.207 C 
BRANCH   4   5
ATOM      5  O   UNL     1       6.873  -5.427  25.352  0.00  0.00    -0.284 OA
BRANCH   5   6
ATOM      6  P   UNL     1       8.022  -5.011  26.380  0.00  0.00    +0.472 P 
ATOM      7  O   UNL     1       8.139  -3.559  26.690  0.00  0.00    -0.228 OA
BRANCH   6   8
ATOM      8  O   UNL     1       9.352  -5.632  25.758  0.00  0.00    -0.303 OA
ATOM      9  H   UNL     1      10.125  -5.412  26.309  0.00  0.00    +0.222 HD
ENDBRANCH   6   8
BRANCH   6  10
ATOM     10  O   UNL     1       7.754  -5.918  27.666  0.00  0.00    -0.303 OA
ATOM     11  H   UNL     1       6.992  -5.574  28.169  0.00  0.00    +0.222 HD
ENDBRANCH   6  10
ENDBRANCH   5   6
ENDBRANCH   4   5
ENDBRANCH   1   4
BRANCH   1  12
ATOM     12  C   UNL     1       7.534  -3.259  22.500  0.00  0.00    +0.265 C 
BRANCH  12  13
ATOM     13  O   UNL     1       8.205  -2.367  23.399  0.00  0.00    -0.462 OA
BRANCH  13  14
ATOM     14  C   UNL     1       9.561  -2.466  23.388  0.00  0.00    +0.307 C 
ATOM     15  O   UNL     1      10.208  -3.257  24.058  0.00  0.00    -0.251 OA
BRANCH  14  16
ATOM     16  C   UNL     1      10.159  -1.491  22.405  0.00  0.00    +0.120 C 
BRANCH  16  17
ATOM     17  C   UNL     1       9.923  -0.069  22.912  0.00  0.00    +0.011 C 
BRANCH  17  18
ATOM     18  C   UNL     1       9.758   0.939  21.779  0.00  0.00    +0.000 C 
BRANCH  18  19
ATOM     19  C   UNL     1       8.780   2.041  22.189  0.00  0.00    -0.003 C 
ATOM     20  C   UNL     1       7.346   1.543  22.202  0.00  0.00    +0.004 C 
ENDBRANCH  18  19
ENDBRANCH  17  18
ENDBRANCH  16  17
ENDBRANCH  14  16
ENDBRANCH  13  14
ENDBRANCH  12  13
ENDBRANCH   1  12
TORSDOF 13
ENDMDL
MODEL 8
REMARK VINA RESULT:      -5.0      2.675      4.605
REMARK  Name = 
REMARK  14 active torsions:
REMARK  status: ('A' for Active; 'I' for Inactive)
REMARK    1  A    between atoms: C_2  and  O_3
REMARK    2  A    between atoms: C_2  and  C_4
REMARK    3  A    between atoms: C_2  and  C_13
REMARK    4  A    between atoms: C_4  and  O_5
REMARK    5  A    between atoms: O_5  and  C_6
REMARK    6  A    between atoms: C_6  and  C_8
REMARK    7  A    between atoms: C_8  and  C_9
REMARK    8  A    between atoms: C_9  and  C_10
REMARK    9  A    between atoms: C_10  and  C_11
REMARK   10  A    between atoms: C_11  and  C_12
REMARK   11  A    between atoms: C_13  and  O_14
REMARK   12  A    between atoms: O_14  and  P_15
REMARK   13  A    between atoms: P_15  and  O_16
REMARK   14  A    between atoms: P_15  and  O_17
REMARK                            x       y       z     vdW  Elec       q    Type
REMARK                         _______ _______ _______ _____ _____    ______ ____
ROOT
ATOM      1  C   UNL     1      10.153  -1.435  22.968  0.00  0.00    +0.178 C 
ENDROOT
BRANCH   1   2
ATOM      2  O   UNL     1      10.212  -1.620  21.545  0.00  0.00    -0.386 OA
ATOM      3  H   UNL     1      10.771  -0.923  21.166  0.00  0.00    +0.210 HD
ENDBRANCH   1   2
BRANCH   1   4
ATOM      4  C   UNL     1       9.232  -2.474  23.610  0.00  0.00    +0.207 C 
BRANCH   4   5
ATOM      5  O   UNL     1      10.020  -3.446  24.285  0.00  0.00    -0.284 OA
BRANCH   5   6
ATOM      6  P   UNL     1       9.254  -4.631  25.033  0.00  0.00    +0.472 P 
ATOM      7  O   UNL     1       8.355  -4.235  26.153  0.00  0.00    -0.228 OA
BRANCH   6   8
ATOM      8  O   UNL     1      10.412  -5.631  25.478  0.00  0.00    -0.303 OA
ATOM      9  H   UNL     1      11.118  -5.153  25.951  0.00  0.00    +0.222 HD
ENDBRANCH   6   8
BRANCH   6  10
ATOM     10  O   UNL     1       8.506  -5.422  23.865  0.00  0.00    -0.303 OA
ATOM     11  H   UNL     1       7.756  -4.898  23.528  0.00  0.00    +0.222 HD
ENDBRANCH   6  10
ENDBRANCH   5   6
ENDBRANCH   4   5
ENDBRANCH   1   4
BRANCH   1  12
ATOM     12  C   UNL     1       9.664  -0.010  23.251  0.00  0.00    +0.265 C 
BRANCH  12  13
ATOM     13  O   UNL     1      10.196   0.998  22.382  0.00  0.00    -0.462 OA
BRANCH  13  14
ATOM     14  C   UNL     1       9.732   2.254  22.621  0.00  0.00    +0.307 C 
ATOM     15  O   UNL     1       8.616   2.653  22.324  0.00  0.00    -0.251 OA
BRANCH  14  16
ATOM     16  C   UNL     1      10.771   3.078  23.339  0.00  0.00    +0.120 C 
BRANCH  16  17
ATOM     17  C   UNL     1      10.121   4.366  23.842  0.00  0.00    +0.011 C 
BRANCH  17  18
ATOM     18  C   UNL     1      10.876   5.616  23.402  0.00  0.00    +0.000 C 
BRANCH  18  19
ATOM     19  C   UNL     1      12.373   5.454  23.671  0.00  0.00    -0.003 C 
ATOM     20  C   UNL     1      13.192   5.617  22.403  0.00  0.00    +0.004 C 
ENDBRANCH  18  19
ENDBRANCH  17  18
ENDBRANCH  16  17
ENDBRANCH  14  16
ENDBRANCH  13  14
ENDBRANCH  12  13
ENDBRANCH   1  12
TORSDOF 13
ENDMDL
MODEL 9
REMARK VINA RESULT:      -5.0      2.215      3.418
REMARK  Name = 
REMARK  14 active torsions:
REMARK  status: ('A' for Active; 'I' for Inactive)
REMARK    1  A    between atoms: C_2  and  O_3
REMARK    2  A    between atoms: C_2  and  C_4
REMARK    3  A    between atoms: C_2  and  C_13
REMARK    4  A    between atoms: C_4  and  O_5
REMARK    5  A    between atoms: O_5  and  C_6
REMARK    6  A    between atoms: C_6  and  C_8
REMARK    7  A    between atoms: C_8  and  C_9
REMARK    8  A    between atoms: C_9  and  C_10
REMARK    9  A    between atoms: C_10  and  C_11
REMARK   10  A    between atoms: C_11  and  C_12
REMARK   11  A    between atoms: C_13  and  O_14
REMARK   12  A    between atoms: O_14  and  P_15
REMARK   13  A    between atoms: P_15  and  O_16
REMARK   14  A    between atoms: P_15  and  O_17
REMARK                            x       y       z     vdW  Elec       q    Type
REMARK                         _______ _______ _______ _____ _____    ______ ____
ROOT
ATOM      1  C   UNL     1       7.477  -3.241  23.315  0.00  0.00    +0.178 C 
ENDROOT
BRANCH   1   2
ATOM      2  O   UNL     1       6.868  -2.644  24.470  0.00  0.00    -0.386 OA
ATOM      3  H   UNL     1       5.952  -2.961  24.534  0.00  0.00    +0.210 HD
ENDBRANCH   1   2
BRANCH   1   4
ATOM      4  C   UNL     1       7.947  -4.663  23.626  0.00  0.00    +0.207 C 
BRANCH   4   5
ATOM      5  O   UNL     1       7.467  -5.046  24.909  0.00  0.00    -0.284 OA
BRANCH   5   6
ATOM      6  P   UNL     1       8.503  -5.028  26.124  0.00  0.00    +0.472 P 
ATOM      7  O   UNL     1       8.853  -3.689  26.675  0.00  0.00    -0.228 OA
BRANCH   6   8
ATOM      8  O   UNL     1       9.765  -5.835  25.579  0.00  0.00    -0.303 OA
ATOM      9  H   UNL     1       9.635  -6.794  25.692  0.00  0.00    +0.222 HD
ENDBRANCH   6   8
BRANCH   6  10
ATOM     10  O   UNL     1       7.867  -6.015  27.205  0.00  0.00    -0.303 OA
ATOM     11  H   UNL     1       8.339  -6.868  27.203  0.00  0.00    +0.222 HD
ENDBRANCH   6  10
ENDBRANCH   5   6
ENDBRANCH   4   5
ENDBRANCH   1   4
BRANCH   1  12
ATOM     12  C   UNL     1       8.647  -2.355  22.872  0.00  0.00    +0.265 C 
BRANCH  12  13
ATOM     13  O   UNL     1       9.683  -2.185  23.848  0.00  0.00    -0.462 OA
BRANCH  13  14
ATOM     14  C   UNL     1       9.711  -0.959  24.436  0.00  0.00    +0.307 C 
ATOM     15  O   UNL     1       9.031  -0.632  25.398  0.00  0.00    -0.251 OA
BRANCH  14  16
ATOM     16  C   UNL     1      10.724  -0.067  23.762  0.00  0.00    +0.120 C 
BRANCH  16  17
ATOM     17  C   UNL     1      10.552   1.358  24.282  0.00  0.00    +0.011 C 
BRANCH  17  18
ATOM     18  C   UNL     1      10.149   2.339  23.186  0.00  0.00    +0.000 C 
BRANCH  18  19
ATOM     19  C   UNL     1       9.796   1.586  21.903  0.00  0.00    -0.003 C 
ATOM     20  C   UNL     1       8.323   1.717  21.563  0.00  0.00    +0.004 C 
ENDBRANCH  18  19
ENDBRANCH  17  18
ENDBRANCH  16  17
ENDBRANCH  14  16
ENDBRANCH  13  14
ENDBRANCH  12  13
ENDBRANCH   1  12
TORSDOF 13
ENDMDL
