MODEL 1
REMARK VINA RESULT:      -6.9      0.000      0.000
REMARK  Name = 
REMARK  3 active torsions:
REMARK  status: ('A' for Active; 'I' for Inactive)
REMARK    1  A    between atoms: C_2  and  C_6
REMARK    2  A    between atoms: C_11  and  C_13
REMARK    3  A    between atoms: C_18  and  O_19
REMARK                            x       y       z     vdW  Elec       q    Type
REMARK                         _______ _______ _______ _____ _____    ______ ____
ROOT
ATOM      1  C   UNL     1       5.823  -5.621  23.866  0.00  0.00    +0.061 A 
ATOM      2  C   UNL     1       6.108  -5.680  22.490  0.00  0.00    +0.018 A 
ATOM      3  C   UNL     1       6.960  -4.756  21.870  0.00  0.00    +0.027 A 
ATOM      4  C   UNL     1       7.489  -3.736  22.663  0.00  0.00    +0.047 A 
ATOM      5  N   UNL     1       8.272  -2.655  22.330  0.00  0.00    -0.354 N 
ATOM      6  H   UNL     1       8.597  -2.423  21.399  0.00  0.00    +0.166 HD
ATOM      7  C   UNL     1       8.468  -1.825  23.414  0.00  0.00    +0.051 A 
ATOM      8  C   UNL     1       7.914  -2.487  24.499  0.00  0.00    +0.036 A 
ATOM      9  C   UNL     1       7.254  -3.652  24.030  0.00  0.00    +0.001 A 
ATOM     10  C   UNL     1       6.442  -4.623  24.643  0.00  0.00    +0.025 A 
ENDROOT
BRANCH   1  14
ATOM     11  N   UNL     1       3.957  -7.160  23.748  0.00  0.00    -0.250 N 
ATOM     12  H   UNL     1       3.957  -7.045  22.738  0.00  0.00    +0.288 HD
ATOM     13  H   UNL     1       3.257  -7.774  24.142  0.00  0.00    +0.288 HD
ATOM     14  C   UNL     1       4.853  -6.544  24.486  0.00  0.00    +0.266 C 
ATOM     15  N   UNL     1       4.875  -6.729  25.791  0.00  0.00    -0.288 N 
ATOM     16  H   UNL     1       4.236  -7.348  26.267  0.00  0.00    +0.301 HD
ATOM     17  H   UNL     1       5.536  -6.221  26.366  0.00  0.00    +0.301 HD
ENDBRANCH   1  14
BRANCH   7  18
ATOM     18  C   UNL     1       9.110  -0.501  23.306  0.00  0.00    +0.040 A 
ATOM     19  C   UNL     1       9.539   0.049  22.083  0.00  0.00    +0.126 A 
ATOM     20  C   UNL     1      10.094   1.332  22.019  0.00  0.00    +0.046 A 
ATOM     21  C   UNL     1      10.228   2.092  23.180  0.00  0.00    +0.004 A 
ATOM     22  C   UNL     1       9.812   1.570  24.399  0.00  0.00    +0.001 A 
ATOM     23  C   UNL     1       9.262   0.286  24.461  0.00  0.00    +0.013 A 
BRANCH  19  24
ATOM     24  O   UNL     1       9.402  -0.666  20.916  0.00  0.00    -0.506 OA
ATOM     25  H   UNL     1       9.879  -1.509  21.024  0.00  0.00    +0.292 HD
ENDBRANCH  19  24
ENDBRANCH   7  18
TORSDOF 3
ENDMDL
MODEL 2
REMARK VINA RESULT:      -6.9      3.403      7.488
REMARK  Name = 
REMARK  3 active torsions:
REMARK  status: ('A' for Active; 'I' for Inactive)
REMARK    1  A    between atoms: C_2  and  C_6
REMARK    2  A    between atoms: C_11  and  C_13
REMARK    3  A    between atoms: C_18  and  O_19
REMARK                            x       y       z     vdW  Elec       q    Type
REMARK                         _______ _______ _______ _____ _____    ______ ____
ROOT
ATOM      1  C   UNL     1      10.148   2.605  23.305  0.00  0.00    +0.061 A 
ATOM      2  C   UNL     1      10.143   1.869  22.107  0.00  0.00    +0.018 A 
ATOM      3  C   UNL     1       9.673   0.550  22.048  0.00  0.00    +0.027 A 
ATOM      4  C   UNL     1       9.243  -0.032  23.243  0.00  0.00    +0.047 A 
ATOM      5  N   UNL     1       8.815  -1.311  23.514  0.00  0.00    -0.354 N 
ATOM      6  H   UNL     1       8.750  -2.069  22.845  0.00  0.00    +0.166 HD
ATOM      7  C   UNL     1       8.599  -1.491  24.865  0.00  0.00    +0.051 A 
ATOM      8  C   UNL     1       8.752  -0.239  25.440  0.00  0.00    +0.036 A 
ATOM      9  C   UNL     1       9.207   0.665  24.445  0.00  0.00    +0.001 A 
ATOM     10  C   UNL     1       9.631   2.005  24.469  0.00  0.00    +0.025 A 
ENDROOT
BRANCH   1  14
ATOM     11  N   UNL     1      12.036   4.122  23.346  0.00  0.00    -0.250 N 
ATOM     12  H   UNL     1      12.651   3.320  23.234  0.00  0.00    +0.288 HD
ATOM     13  H   UNL     1      12.471   5.031  23.419  0.00  0.00    +0.288 HD
ATOM     14  C   UNL     1      10.732   3.958  23.368  0.00  0.00    +0.266 C 
ATOM     15  N   UNL     1       9.936   5.005  23.472  0.00  0.00    -0.288 N 
ATOM     16  H   UNL     1      10.281   5.952  23.519  0.00  0.00    +0.301 HD
ATOM     17  H   UNL     1       8.933   4.877  23.534  0.00  0.00    +0.301 HD
ENDBRANCH   1  14
BRANCH   7  18
ATOM     18  C   UNL     1       8.316  -2.809  25.464  0.00  0.00    +0.040 A 
ATOM     19  C   UNL     1       9.078  -3.961  25.187  0.00  0.00    +0.126 A 
ATOM     20  C   UNL     1       8.808  -5.179  25.818  0.00  0.00    +0.046 A 
ATOM     21  C   UNL     1       7.770  -5.269  26.745  0.00  0.00    +0.004 A 
ATOM     22  C   UNL     1       7.004  -4.145  27.035  0.00  0.00    +0.001 A 
ATOM     23  C   UNL     1       7.273  -2.931  26.399  0.00  0.00    +0.013 A 
BRANCH  19  24
ATOM     24  O   UNL     1      10.121  -3.902  24.293  0.00  0.00    -0.506 OA
ATOM     25  H   UNL     1       9.763  -3.618  23.432  0.00  0.00    +0.292 HD
ENDBRANCH  19  24
ENDBRANCH   7  18
TORSDOF 3
ENDMDL
MODEL 3
REMARK VINA RESULT:      -6.8      2.895      4.774
REMARK  Name = 
REMARK  3 active torsions:
REMARK  status: ('A' for Active; 'I' for Inactive)
REMARK    1  A    between atoms: C_2  and  C_6
REMARK    2  A    between atoms: C_11  and  C_13
REMARK    3  A    between atoms: C_18  and  O_19
REMARK                            x       y       z     vdW  Elec       q    Type
REMARK                         _______ _______ _______ _____ _____    ______ ____
ROOT
ATOM      1  C   UNL     1       9.175  -2.312  23.418  0.00  0.00    +0.061 A 
ATOM      2  C   UNL     1       8.999  -1.985  22.062  0.00  0.00    +0.018 A 
ATOM      3  C   UNL     1       9.322  -0.719  21.556  0.00  0.00    +0.027 A 
ATOM      4  C   UNL     1       9.789   0.235  22.463  0.00  0.00    +0.047 A 
ATOM      5  N   UNL     1      10.102   1.563  22.286  0.00  0.00    -0.354 N 
ATOM      6  H   UNL     1      10.030   2.078  21.416  0.00  0.00    +0.166 HD
ATOM      7  C   UNL     1      10.414   2.169  23.486  0.00  0.00    +0.051 A 
ATOM      8  C   UNL     1      10.443   1.150  24.424  0.00  0.00    +0.036 A 
ATOM      9  C   UNL     1      10.002  -0.049  23.806  0.00  0.00    +0.001 A 
ATOM     10  C   UNL     1       9.725  -1.343  24.281  0.00  0.00    +0.025 A 
ENDROOT
BRANCH   1  14
ATOM     11  N   UNL     1       7.639  -4.182  23.518  0.00  0.00    -0.250 N 
ATOM     12  H   UNL     1       7.100  -3.747  22.774  0.00  0.00    +0.288 HD
ATOM     13  H   UNL     1       7.297  -5.060  23.883  0.00  0.00    +0.288 HD
ATOM     14  C   UNL     1       8.745  -3.617  23.952  0.00  0.00    +0.266 C 
ATOM     15  N   UNL     1       9.464  -4.206  24.888  0.00  0.00    -0.288 N 
ATOM     16  H   UNL     1       9.216  -5.098  25.289  0.00  0.00    +0.301 HD
ATOM     17  H   UNL     1      10.291  -3.751  25.255  0.00  0.00    +0.301 HD
ENDBRANCH   1  14
BRANCH   7  18
ATOM     18  C   UNL     1      10.607   3.624  23.624  0.00  0.00    +0.040 A 
ATOM     19  C   UNL     1       9.587   4.501  24.040  0.00  0.00    +0.126 A 
ATOM     20  C   UNL     1       9.828   5.869  24.209  0.00  0.00    +0.046 A 
ATOM     21  C   UNL     1      11.100   6.386  23.969  0.00  0.00    +0.004 A 
ATOM     22  C   UNL     1      12.124   5.541  23.557  0.00  0.00    +0.001 A 
ATOM     23  C   UNL     1      11.878   4.176  23.383  0.00  0.00    +0.013 A 
BRANCH  19  24
ATOM     24  O   UNL     1       8.326   4.019  24.306  0.00  0.00    -0.506 OA
ATOM     25  H   UNL     1       8.345   3.598  25.184  0.00  0.00    +0.292 HD
ENDBRANCH  19  24
ENDBRANCH   7  18
TORSDOF 3
ENDMDL
MODEL 4
REMARK VINA RESULT:      -6.7      3.133      4.504
REMARK  Name = 
REMARK  3 active torsions:
REMARK  status: ('A' for Active; 'I' for Inactive)
REMARK    1  A    between atoms: C_2  and  C_6
REMARK    2  A    between atoms: C_11  and  C_13
REMARK    3  A    between atoms: C_18  and  O_19
REMARK                            x       y       z     vdW  Elec       q    Type
REMARK                         _______ _______ _______ _____ _____    ______ ____
ROOT
ATOM      1  C   UNL     1       8.955  -3.195  25.137  0.00  0.00    +0.061 A 
ATOM      2  C   UNL     1       8.478  -2.670  26.351  0.00  0.00    +0.018 A 
ATOM      3  C   UNL     1       8.372  -1.290  26.571  0.00  0.00    +0.027 A 
ATOM      4  C   UNL     1       8.799  -0.441  25.548  0.00  0.00    +0.047 A 
ATOM      5  N   UNL     1       8.895   0.930  25.502  0.00  0.00    -0.354 N 
ATOM      6  H   UNL     1       8.658   1.567  26.253  0.00  0.00    +0.166 HD
ATOM      7  C   UNL     1       9.486   1.352  24.329  0.00  0.00    +0.051 A 
ATOM      8  C   UNL     1       9.629   0.215  23.550  0.00  0.00    +0.036 A 
ATOM      9  C   UNL     1       9.254  -0.914  24.324  0.00  0.00    +0.001 A 
ATOM     10  C   UNL     1       9.300  -2.302  24.103  0.00  0.00    +0.025 A 
ENDROOT
BRANCH   1  14
ATOM     11  N   UNL     1      10.102  -5.276  25.605  0.00  0.00    -0.250 N 
ATOM     12  H   UNL     1      10.680  -4.778  26.277  0.00  0.00    +0.288 HD
ATOM     13  H   UNL     1      10.283  -6.262  25.482  0.00  0.00    +0.288 HD
ATOM     14  C   UNL     1       9.148  -4.646  24.955  0.00  0.00    +0.266 C 
ATOM     15  N   UNL     1       8.373  -5.304  24.116  0.00  0.00    -0.288 N 
ATOM     16  H   UNL     1       8.462  -6.296  23.953  0.00  0.00    +0.301 HD
ATOM     17  H   UNL     1       7.668  -4.812  23.582  0.00  0.00    +0.301 HD
ENDBRANCH   1  14
BRANCH   7  18
ATOM     18  C   UNL     1       9.884   2.752  24.088  0.00  0.00    +0.040 A 
ATOM     19  C   UNL     1       9.088   3.854  24.458  0.00  0.00    +0.126 A 
ATOM     20  C   UNL     1       9.528   5.167  24.260  0.00  0.00    +0.046 A 
ATOM     21  C   UNL     1      10.778   5.404  23.690  0.00  0.00    +0.004 A 
ATOM     22  C   UNL     1      11.582   4.333  23.317  0.00  0.00    +0.001 A 
ATOM     23  C   UNL     1      11.137   3.023  23.511  0.00  0.00    +0.013 A 
BRANCH  19  24
ATOM     24  O   UNL     1       7.858   3.654  25.042  0.00  0.00    -0.506 OA
ATOM     25  H   UNL     1       7.190   4.100  24.491  0.00  0.00    +0.292 HD
ENDBRANCH  19  24
ENDBRANCH   7  18
TORSDOF 3
ENDMDL
MODEL 5
REMARK VINA RESULT:      -6.7      1.236      1.693
REMARK  Name = 
REMARK  3 active torsions:
REMARK  status: ('A' for Active; 'I' for Inactive)
REMARK    1  A    between atoms: C_2  and  C_6
REMARK    2  A    between atoms: C_11  and  C_13
REMARK    3  A    between atoms: C_18  and  O_19
REMARK                            x       y       z     vdW  Elec       q    Type
REMARK                         _______ _______ _______ _____ _____    ______ ____
ROOT
ATOM      1  C   UNL     1       5.564  -6.068  25.538  0.00  0.00    +0.061 A 
ATOM      2  C   UNL     1       5.241  -5.961  24.173  0.00  0.00    +0.018 A 
ATOM      3  C   UNL     1       5.912  -5.075  23.320  0.00  0.00    +0.027 A 
ATOM      4  C   UNL     1       6.894  -4.259  23.885  0.00  0.00    +0.047 A 
ATOM      5  N   UNL     1       7.651  -3.252  23.331  0.00  0.00    -0.354 N 
ATOM      6  H   UNL     1       7.599  -2.930  22.372  0.00  0.00    +0.166 HD
ATOM      7  C   UNL     1       8.422  -2.621  24.286  0.00  0.00    +0.051 A 
ATOM      8  C   UNL     1       8.255  -3.357  25.449  0.00  0.00    +0.036 A 
ATOM      9  C   UNL     1       7.263  -4.346  25.221  0.00  0.00    +0.001 A 
ATOM     10  C   UNL     1       6.616  -5.282  26.047  0.00  0.00    +0.025 A 
ENDROOT
BRANCH   1  14
ATOM     11  N   UNL     1       5.214  -7.179  27.661  0.00  0.00    -0.250 N 
ATOM     12  H   UNL     1       6.056  -6.729  28.008  0.00  0.00    +0.288 HD
ATOM     13  H   UNL     1       4.725  -7.795  28.296  0.00  0.00    +0.288 HD
ATOM     14  C   UNL     1       4.787  -6.937  26.441  0.00  0.00    +0.266 C 
ATOM     15  N   UNL     1       3.671  -7.491  26.009  0.00  0.00    -0.288 N 
ATOM     16  H   UNL     1       3.101  -8.094  26.584  0.00  0.00    +0.301 HD
ATOM     17  H   UNL     1       3.365  -7.341  25.056  0.00  0.00    +0.301 HD
ENDBRANCH   1  14
BRANCH   7  18
ATOM     18  C   UNL     1       9.188  -1.391  24.015  0.00  0.00    +0.040 A 
ATOM     19  C   UNL     1       9.687  -1.058  22.740  0.00  0.00    +0.126 A 
ATOM     20  C   UNL     1      10.362   0.146  22.516  0.00  0.00    +0.046 A 
ATOM     21  C   UNL     1      10.550   1.045  23.564  0.00  0.00    +0.004 A 
ATOM     22  C   UNL     1      10.067   0.739  24.832  0.00  0.00    +0.001 A 
ATOM     23  C   UNL     1       9.397  -0.467  25.054  0.00  0.00    +0.013 A 
BRANCH  19  24
ATOM     24  O   UNL     1       9.500  -1.914  21.680  0.00  0.00    -0.506 OA
ATOM     25  H   UNL     1       8.729  -1.601  21.174  0.00  0.00    +0.292 HD
ENDBRANCH  19  24
ENDBRANCH   7  18
TORSDOF 3
ENDMDL
MODEL 6
REMARK VINA RESULT:      -6.6      1.265      1.804
REMARK  Name = 
REMARK  3 active torsions:
REMARK  status: ('A' for Active; 'I' for Inactive)
REMARK    1  A    between atoms: C_2  and  C_6
REMARK    2  A    between atoms: C_11  and  C_13
REMARK    3  A    between atoms: C_18  and  O_19
REMARK                            x       y       z     vdW  Elec       q    Type
REMARK                         _______ _______ _______ _____ _____    ______ ____
ROOT
ATOM      1  C   UNL     1       6.738  -5.096  25.789  0.00  0.00    +0.061 A 
ATOM      2  C   UNL     1       6.228  -5.132  24.479  0.00  0.00    +0.018 A 
ATOM      3  C   UNL     1       6.634  -4.215  23.500  0.00  0.00    +0.027 A 
ATOM      4  C   UNL     1       7.540  -3.224  23.884  0.00  0.00    +0.047 A 
ATOM      5  N   UNL     1       8.049  -2.155  23.184  0.00  0.00    -0.354 N 
ATOM      6  H   UNL     1       7.823  -1.910  22.227  0.00  0.00    +0.166 HD
ATOM      7  C   UNL     1       8.829  -1.352  23.992  0.00  0.00    +0.051 A 
ATOM      8  C   UNL     1       8.933  -2.024  25.200  0.00  0.00    +0.036 A 
ATOM      9  C   UNL     1       8.088  -3.164  25.159  0.00  0.00    +0.001 A 
ATOM     10  C   UNL     1       7.710  -4.128  26.110  0.00  0.00    +0.025 A 
ENDROOT
BRANCH   1  14
ATOM     11  N   UNL     1       6.781  -6.023  28.026  0.00  0.00    -0.250 N 
ATOM     12  H   UNL     1       7.525  -5.369  28.257  0.00  0.00    +0.288 HD
ATOM     13  H   UNL     1       6.482  -6.656  28.754  0.00  0.00    +0.288 HD
ATOM     14  C   UNL     1       6.232  -6.009  26.832  0.00  0.00    +0.266 C 
ATOM     15  N   UNL     1       5.240  -6.830  26.550  0.00  0.00    -0.288 N 
ATOM     16  H   UNL     1       4.856  -7.475  27.224  0.00  0.00    +0.301 HD
ATOM     17  H   UNL     1       4.846  -6.851  25.617  0.00  0.00    +0.301 HD
ENDBRANCH   1  14
BRANCH   7  18
ATOM     18  C   UNL     1       9.349  -0.042  23.560  0.00  0.00    +0.040 A 
ATOM     19  C   UNL     1       9.762   0.226  22.240  0.00  0.00    +0.126 A 
ATOM     20  C   UNL     1      10.199   1.499  21.860  0.00  0.00    +0.046 A 
ATOM     21  C   UNL     1      10.228   2.533  22.794  0.00  0.00    +0.004 A 
ATOM     22  C   UNL     1       9.826   2.293  24.103  0.00  0.00    +0.001 A 
ATOM     23  C   UNL     1       9.395   1.019  24.481  0.00  0.00    +0.013 A 
BRANCH  19  24
ATOM     24  O   UNL     1       9.726  -0.767  21.288  0.00  0.00    -0.506 OA
ATOM     25  H   UNL     1      10.472  -1.371  21.458  0.00  0.00    +0.292 HD
ENDBRANCH  19  24
ENDBRANCH   7  18
TORSDOF 3
ENDMDL
MODEL 7
REMARK VINA RESULT:      -6.6      2.917      7.052
REMARK  Name = 
REMARK  3 active torsions:
REMARK  status: ('A' for Active; 'I' for Inactive)
REMARK    1  A    between atoms: C_2  and  C_6
REMARK    2  A    between atoms: C_11  and  C_13
REMARK    3  A    between atoms: C_18  and  O_19
REMARK                            x       y       z     vdW  Elec       q    Type
REMARK                         _______ _______ _______ _____ _____    ______ ____
ROOT
ATOM      1  C   UNL     1       9.015   0.088  22.239  0.00  0.00    +0.061 A 
ATOM      2  C   UNL     1      10.178  -0.682  22.421  0.00  0.00    +0.018 A 
ATOM      3  C   UNL     1      10.141  -1.953  23.011  0.00  0.00    +0.027 A 
ATOM      4  C   UNL     1       8.902  -2.418  23.457  0.00  0.00    +0.047 A 
ATOM      5  N   UNL     1       8.568  -3.566  24.137  0.00  0.00    -0.354 N 
ATOM      6  H   UNL     1       9.213  -4.286  24.439  0.00  0.00    +0.166 HD
ATOM      7  C   UNL     1       7.233  -3.570  24.488  0.00  0.00    +0.051 A 
ATOM      8  C   UNL     1       6.680  -2.457  23.875  0.00  0.00    +0.036 A 
ATOM      9  C   UNL     1       7.724  -1.704  23.276  0.00  0.00    +0.001 A 
ATOM     10  C   UNL     1       7.776  -0.456  22.631  0.00  0.00    +0.025 A 
ENDROOT
BRANCH   1  14
ATOM     11  N   UNL     1      10.208   2.137  21.749  0.00  0.00    -0.250 N 
ATOM     12  H   UNL     1      11.053   1.703  22.111  0.00  0.00    +0.288 HD
ATOM     13  H   UNL     1      10.284   3.090  21.420  0.00  0.00    +0.288 HD
ATOM     14  C   UNL     1       9.083   1.460  21.701  0.00  0.00    +0.266 C 
ATOM     15  N   UNL     1       7.999   2.013  21.194  0.00  0.00    -0.288 N 
ATOM     16  H   UNL     1       7.988   2.947  20.813  0.00  0.00    +0.301 HD
ATOM     17  H   UNL     1       7.121   1.508  21.198  0.00  0.00    +0.301 HD
ENDBRANCH   1  14
BRANCH   7  18
ATOM     18  C   UNL     1       6.640  -4.584  25.381  0.00  0.00    +0.040 A 
ATOM     19  C   UNL     1       7.168  -4.896  26.649  0.00  0.00    +0.126 A 
ATOM     20  C   UNL     1       6.543  -5.826  27.487  0.00  0.00    +0.046 A 
ATOM     21  C   UNL     1       5.373  -6.461  27.072  0.00  0.00    +0.004 A 
ATOM     22  C   UNL     1       4.833  -6.169  25.824  0.00  0.00    +0.001 A 
ATOM     23  C   UNL     1       5.463  -5.244  24.988  0.00  0.00    +0.013 A 
BRANCH  19  24
ATOM     24  O   UNL     1       8.309  -4.272  27.097  0.00  0.00    -0.506 OA
ATOM     25  H   UNL     1       8.259  -4.218  28.068  0.00  0.00    +0.292 HD
ENDBRANCH  19  24
ENDBRANCH   7  18
TORSDOF 3
ENDMDL
MODEL 8
REMARK VINA RESULT:      -6.6      2.752      7.398
REMARK  Name = 
REMARK  3 active torsions:
REMARK  status: ('A' for Active; 'I' for Inactive)
REMARK    1  A    between atoms: C_2  and  C_6
REMARK    2  A    between atoms: C_11  and  C_13
REMARK    3  A    between atoms: C_18  and  O_19
REMARK                            x       y       z     vdW  Elec       q    Type
REMARK                         _______ _______ _______ _____ _____    ______ ____
ROOT
ATOM      1  C   UNL     1       9.991   1.698  23.355  0.00  0.00    +0.061 A 
ATOM      2  C   UNL     1      10.582   1.105  24.485  0.00  0.00    +0.018 A 
ATOM      3  C   UNL     1      10.391  -0.247  24.798  0.00  0.00    +0.027 A 
ATOM      4  C   UNL     1       9.548  -0.987  23.965  0.00  0.00    +0.047 A 
ATOM      5  N   UNL     1       9.109  -2.287  24.060  0.00  0.00    -0.354 N 
ATOM      6  H   UNL     1       9.343  -2.939  24.799  0.00  0.00    +0.166 HD
ATOM      7  C   UNL     1       8.184  -2.576  23.078  0.00  0.00    +0.051 A 
ATOM      8  C   UNL     1       8.156  -1.466  22.249  0.00  0.00    +0.036 A 
ATOM      9  C   UNL     1       8.963  -0.449  22.825  0.00  0.00    +0.001 A 
ATOM     10  C   UNL     1       9.213   0.895  22.498  0.00  0.00    +0.025 A 
ENDROOT
BRANCH   1  14
ATOM     11  N   UNL     1      11.318   3.691  22.985  0.00  0.00    -0.250 N 
ATOM     12  H   UNL     1      12.153   3.114  23.034  0.00  0.00    +0.288 HD
ATOM     13  H   UNL     1      11.449   4.682  22.836  0.00  0.00    +0.288 HD
ATOM     14  C   UNL     1      10.127   3.143  23.091  0.00  0.00    +0.266 C 
ATOM     15  N   UNL     1       9.045   3.889  22.985  0.00  0.00    -0.288 N 
ATOM     16  H   UNL     1       9.079   4.881  22.806  0.00  0.00    +0.301 HD
ATOM     17  H   UNL     1       8.128   3.476  23.111  0.00  0.00    +0.301 HD
ENDBRANCH   1  14
BRANCH   7  18
ATOM     18  C   UNL     1       7.409  -3.831  23.049  0.00  0.00    +0.040 A 
ATOM     19  C   UNL     1       6.819  -4.398  24.196  0.00  0.00    +0.126 A 
ATOM     20  C   UNL     1       6.046  -5.561  24.115  0.00  0.00    +0.046 A 
ATOM     21  C   UNL     1       5.845  -6.179  22.882  0.00  0.00    +0.004 A 
ATOM     22  C   UNL     1       6.417  -5.639  21.736  0.00  0.00    +0.001 A 
ATOM     23  C   UNL     1       7.193  -4.479  21.821  0.00  0.00    +0.013 A 
BRANCH  19  24
ATOM     24  O   UNL     1       6.981  -3.801  25.425  0.00  0.00    -0.506 OA
ATOM     25  H   UNL     1       7.480  -2.975  25.293  0.00  0.00    +0.292 HD
ENDBRANCH  19  24
ENDBRANCH   7  18
TORSDOF 3
ENDMDL
MODEL 9
REMARK VINA RESULT:      -6.6      2.730      7.172
REMARK  Name = 
REMARK  3 active torsions:
REMARK  status: ('A' for Active; 'I' for Inactive)
REMARK    1  A    between atoms: C_2  and  C_6
REMARK    2  A    between atoms: C_11  and  C_13
REMARK    3  A    between atoms: C_18  and  O_19
REMARK                            x       y       z     vdW  Elec       q    Type
REMARK                         _______ _______ _______ _____ _____    ______ ____
ROOT
ATOM      1  C   UNL     1       9.267   1.936  22.926  0.00  0.00    +0.061 A 
ATOM      2  C   UNL     1       9.996   1.212  21.966  0.00  0.00    +0.018 A 
ATOM      3  C   UNL     1       9.639  -0.091  21.591  0.00  0.00    +0.027 A 
ATOM      4  C   UNL     1       8.548  -0.670  22.243  0.00  0.00    +0.047 A 
ATOM      5  N   UNL     1       8.021  -1.938  22.154  0.00  0.00    -0.354 N 
ATOM      6  H   UNL     1       8.372  -2.687  21.568  0.00  0.00    +0.166 HD
ATOM      7  C   UNL     1       7.007  -2.124  23.071  0.00  0.00    +0.051 A 
ATOM      8  C   UNL     1       6.792  -0.884  23.651  0.00  0.00    +0.036 A 
ATOM      9  C   UNL     1       7.785   0.015  23.180  0.00  0.00    +0.001 A 
ATOM     10  C   UNL     1       8.126   1.341  23.499  0.00  0.00    +0.025 A 
ENDROOT
BRANCH   1  14
ATOM     11  N   UNL     1      10.955   3.651  23.198  0.00  0.00    -0.250 N 
ATOM     12  H   UNL     1      11.610   3.051  22.705  0.00  0.00    +0.288 HD
ATOM     13  H   UNL     1      11.300   4.544  23.522  0.00  0.00    +0.288 HD
ATOM     14  C   UNL     1       9.709   3.269  23.376  0.00  0.00    +0.266 C 
ATOM     15  N   UNL     1       8.852   4.068  23.981  0.00  0.00    -0.288 N 
ATOM     16  H   UNL     1       9.101   4.989  24.309  0.00  0.00    +0.301 HD
ATOM     17  H   UNL     1       7.905   3.757  24.158  0.00  0.00    +0.301 HD
ENDBRANCH   1  14
BRANCH   7  18
ATOM     18  C   UNL     1       6.388  -3.438  23.327  0.00  0.00    +0.040 A 
ATOM     19  C   UNL     1       5.745  -4.196  22.328  0.00  0.00    +0.126 A 
ATOM     20  C   UNL     1       5.219  -5.462  22.603  0.00  0.00    +0.046 A 
ATOM     21  C   UNL     1       5.327  -5.999  23.885  0.00  0.00    +0.004 A 
ATOM     22  C   UNL     1       5.956  -5.270  24.888  0.00  0.00    +0.001 A 
ATOM     23  C   UNL     1       6.477  -4.003  24.612  0.00  0.00    +0.013 A 
BRANCH  19  24
ATOM     24  O   UNL     1       5.640  -3.704  21.048  0.00  0.00    -0.506 OA
ATOM     25  H   UNL     1       4.713  -3.804  20.764  0.00  0.00    +0.292 HD
ENDBRANCH  19  24
ENDBRANCH   7  18
TORSDOF 3
ENDMDL
