MODEL 1
REMARK VINA RESULT:      -3.4      0.000      0.000
REMARK  Name = 
REMARK  7 active torsions:
REMARK  status: ('A' for Active; 'I' for Inactive)
REMARK    1  A    between atoms: O_1  and  C_2
REMARK    2  A    between atoms: C_2  and  C_4
REMARK    3  A    between atoms: C_2  and  C_6
REMARK    4  A    between atoms: C_4  and  S_5
REMARK    5  A    between atoms: C_6  and  O_8
REMARK    6  A    between atoms: C_6  and  C_9
REMARK    7  A    between atoms: C_9  and  S_10
REMARK                            x       y       z     vdW  Elec       q    Type
REMARK                         _______ _______ _______ _____ _____    ______ ____
ROOT
ATOM      1  C   UNL     1       9.202   0.758  21.570  0.00  0.00    +0.153 C 
ENDROOT
BRANCH   1   2
ATOM      2  O   UNL     1       9.913   1.997  21.474  0.00  0.00    -0.388 OA
ATOM      3  H   UNL     1       9.480   2.608  22.099  0.00  0.00    +0.210 HD
ENDBRANCH   1   2
BRANCH   1   4
ATOM      4  C   UNL     1      10.130  -0.307  22.197  0.00  0.00    +0.153 C 
BRANCH   4   5
ATOM      5  O   UNL     1      10.110  -1.484  21.383  0.00  0.00    -0.388 OA
ATOM      6  H   UNL     1      10.278  -1.187  20.469  0.00  0.00    +0.210 HD
ENDBRANCH   4   5
BRANCH   4   7
ATOM      7  C   UNL     1       9.760  -0.653  23.647  0.00  0.00    +0.099 C 
BRANCH   7   8
ATOM      8  S   UNL     1       9.650  -2.464  23.880  0.00  0.00    -0.176 S 
ATOM      9  H   UNL     1       8.348  -2.497  24.200  0.00  0.00    +0.102 HD
ENDBRANCH   7   8
ENDBRANCH   4   7
ENDBRANCH   1   4
BRANCH   1  10
ATOM     10  C   UNL     1       7.887   0.946  22.341  0.00  0.00    +0.099 C 
BRANCH  10  11
ATOM     11  S   UNL     1       7.215   2.627  22.095  0.00  0.00    -0.176 S 
ATOM     12  H   UNL     1       7.501   2.712  20.787  0.00  0.00    +0.102 HD
ENDBRANCH  10  11
ENDBRANCH   1  10
TORSDOF 7
ENDMDL
MODEL 2
REMARK VINA RESULT:      -3.3      1.195      3.655
REMARK  Name = 
REMARK  7 active torsions:
REMARK  status: ('A' for Active; 'I' for Inactive)
REMARK    1  A    between atoms: O_1  and  C_2
REMARK    2  A    between atoms: C_2  and  C_4
REMARK    3  A    between atoms: C_2  and  C_6
REMARK    4  A    between atoms: C_4  and  S_5
REMARK    5  A    between atoms: C_6  and  O_8
REMARK    6  A    between atoms: C_6  and  C_9
REMARK    7  A    between atoms: C_9  and  S_10
REMARK                            x       y       z     vdW  Elec       q    Type
REMARK                         _______ _______ _______ _____ _____    ______ ____
ROOT
ATOM      1  C   UNL     1       9.926  -0.123  22.090  0.00  0.00    +0.153 C 
ENDROOT
BRANCH   1   2
ATOM      2  O   UNL     1       9.749  -1.291  21.281  0.00  0.00    -0.388 OA
ATOM      3  H   UNL     1       8.788  -1.459  21.253  0.00  0.00    +0.210 HD
ENDBRANCH   1   2
BRANCH   1   4
ATOM      4  C   UNL     1       9.117   1.042  21.477  0.00  0.00    +0.153 C 
BRANCH   4   5
ATOM      5  O   UNL     1       9.927   2.222  21.470  0.00  0.00    -0.388 OA
ATOM      6  H   UNL     1       9.330   2.966  21.677  0.00  0.00    +0.210 HD
ENDBRANCH   4   5
BRANCH   4   7
ATOM      7  C   UNL     1       7.791   1.307  22.206  0.00  0.00    +0.099 C 
BRANCH   7   8
ATOM      8  S   UNL     1       7.437   3.099  22.290  0.00  0.00    -0.176 S 
ATOM      9  H   UNL     1       6.168   2.984  22.708  0.00  0.00    +0.102 HD
ENDBRANCH   7   8
ENDBRANCH   4   7
ENDBRANCH   1   4
BRANCH   1  10
ATOM     10  C   UNL     1       9.555  -0.416  23.551  0.00  0.00    +0.099 C 
BRANCH  10  11
ATOM     11  S   UNL     1      10.637   0.502  24.702  0.00  0.00    -0.176 S 
ATOM     12  H   UNL     1       9.718   1.401  25.086  0.00  0.00    +0.102 HD
ENDBRANCH  10  11
ENDBRANCH   1  10
TORSDOF 7
ENDMDL
MODEL 3
REMARK VINA RESULT:      -3.3      5.980      6.850
REMARK  Name = 
REMARK  7 active torsions:
REMARK  status: ('A' for Active; 'I' for Inactive)
REMARK    1  A    between atoms: O_1  and  C_2
REMARK    2  A    between atoms: C_2  and  C_4
REMARK    3  A    between atoms: C_2  and  C_6
REMARK    4  A    between atoms: C_4  and  S_5
REMARK    5  A    between atoms: C_6  and  O_8
REMARK    6  A    between atoms: C_6  and  C_9
REMARK    7  A    between atoms: C_9  and  S_10
REMARK                            x       y       z     vdW  Elec       q    Type
REMARK                         _______ _______ _______ _____ _____    ______ ____
ROOT
ATOM      1  C   UNL     1       8.869  -5.337  25.318  0.00  0.00    +0.153 C 
ENDROOT
BRANCH   1   2
ATOM      2  O   UNL     1      10.277  -5.596  25.321  0.00  0.00    -0.388 OA
ATOM      3  H   UNL     1      10.714  -4.724  25.365  0.00  0.00    +0.210 HD
ENDBRANCH   1   2
BRANCH   1   4
ATOM      4  C   UNL     1       8.454  -4.792  26.704  0.00  0.00    +0.153 C 
BRANCH   4   5
ATOM      5  O   UNL     1       7.932  -5.867  27.493  0.00  0.00    -0.388 OA
ATOM      6  H   UNL     1       7.004  -5.636  27.689  0.00  0.00    +0.210 HD
ENDBRANCH   4   5
BRANCH   4   7
ATOM      7  C   UNL     1       7.438  -3.644  26.624  0.00  0.00    +0.099 C 
BRANCH   7   8
ATOM      8  S   UNL     1       5.826  -4.146  27.325  0.00  0.00    -0.176 S 
ATOM      9  H   UNL     1       6.312  -5.031  28.207  0.00  0.00    +0.102 HD
ENDBRANCH   7   8
ENDBRANCH   4   7
ENDBRANCH   1   4
BRANCH   1  10
ATOM     10  C   UNL     1       8.493  -4.398  24.162  0.00  0.00    +0.099 C 
BRANCH  10  11
ATOM     11  S   UNL     1       7.317  -5.202  23.019  0.00  0.00    -0.176 S 
ATOM     12  H   UNL     1       7.812  -6.443  23.143  0.00  0.00    +0.102 HD
ENDBRANCH  10  11
ENDBRANCH   1  10
TORSDOF 7
ENDMDL
MODEL 4
REMARK VINA RESULT:      -3.3      5.971      6.825
REMARK  Name = 
REMARK  7 active torsions:
REMARK  status: ('A' for Active; 'I' for Inactive)
REMARK    1  A    between atoms: O_1  and  C_2
REMARK    2  A    between atoms: C_2  and  C_4
REMARK    3  A    between atoms: C_2  and  C_6
REMARK    4  A    between atoms: C_4  and  S_5
REMARK    5  A    between atoms: C_6  and  O_8
REMARK    6  A    between atoms: C_6  and  C_9
REMARK    7  A    between atoms: C_9  and  S_10
REMARK                            x       y       z     vdW  Elec       q    Type
REMARK                         _______ _______ _______ _____ _____    ______ ____
ROOT
ATOM      1  C   UNL     1       8.445  -4.782  26.695  0.00  0.00    +0.153 C 
ENDROOT
BRANCH   1   2
ATOM      2  O   UNL     1       7.941  -5.865  27.484  0.00  0.00    -0.388 OA
ATOM      3  H   UNL     1       8.342  -6.676  27.120  0.00  0.00    +0.210 HD
ENDBRANCH   1   2
BRANCH   1   4
ATOM      4  C   UNL     1       8.889  -5.326  25.318  0.00  0.00    +0.153 C 
BRANCH   4   5
ATOM      5  O   UNL     1      10.301  -5.560  25.339  0.00  0.00    -0.388 OA
ATOM      6  H   UNL     1      10.632  -5.318  24.454  0.00  0.00    +0.210 HD
ENDBRANCH   4   5
BRANCH   4   7
ATOM      7  C   UNL     1       8.518  -4.397  24.152  0.00  0.00    +0.099 C 
BRANCH   7   8
ATOM      8  S   UNL     1       7.318  -5.202  23.031  0.00  0.00    -0.176 S 
ATOM      9  H   UNL     1       6.345  -5.362  23.939  0.00  0.00    +0.102 HD
ENDBRANCH   7   8
ENDBRANCH   4   7
ENDBRANCH   1   4
BRANCH   1  10
ATOM     10  C   UNL     1       7.406  -3.655  26.595  0.00  0.00    +0.099 C 
BRANCH  10  11
ATOM     11  S   UNL     1       5.822  -4.152  27.358  0.00  0.00    -0.176 S 
ATOM     12  H   UNL     1       5.195  -2.979  27.176  0.00  0.00    +0.102 HD
ENDBRANCH  10  11
ENDBRANCH   1  10
TORSDOF 7
ENDMDL
MODEL 5
REMARK VINA RESULT:      -3.1      1.589      1.655
REMARK  Name = 
REMARK  7 active torsions:
REMARK  status: ('A' for Active; 'I' for Inactive)
REMARK    1  A    between atoms: O_1  and  C_2
REMARK    2  A    between atoms: C_2  and  C_4
REMARK    3  A    between atoms: C_2  and  C_6
REMARK    4  A    between atoms: C_4  and  S_5
REMARK    5  A    between atoms: C_6  and  O_8
REMARK    6  A    between atoms: C_6  and  C_9
REMARK    7  A    between atoms: C_9  and  S_10
REMARK                            x       y       z     vdW  Elec       q    Type
REMARK                         _______ _______ _______ _____ _____    ______ ____
ROOT
ATOM      1  C   UNL     1       9.558   1.211  22.504  0.00  0.00    +0.153 C 
ENDROOT
BRANCH   1   2
ATOM      2  O   UNL     1      10.029   2.099  21.485  0.00  0.00    -0.388 OA
ATOM      3  H   UNL     1      10.149   1.555  20.684  0.00  0.00    +0.210 HD
ENDBRANCH   1   2
BRANCH   1   4
ATOM      4  C   UNL     1      10.045  -0.222  22.187  0.00  0.00    +0.153 C 
BRANCH   4   5
ATOM      5  O   UNL     1       9.480  -0.644  20.941  0.00  0.00    -0.388 OA
ATOM      6  H   UNL     1       9.980  -1.435  20.668  0.00  0.00    +0.210 HD
ENDBRANCH   4   5
BRANCH   4   7
ATOM      7  C   UNL     1       9.713  -1.233  23.295  0.00  0.00    +0.099 C 
BRANCH   7   8
ATOM      8  S   UNL     1       8.391  -2.378  22.762  0.00  0.00    -0.176 S 
ATOM      9  H   UNL     1       7.648  -2.281  23.874  0.00  0.00    +0.102 HD
ENDBRANCH   7   8
ENDBRANCH   4   7
ENDBRANCH   1   4
BRANCH   1  10
ATOM     10  C   UNL     1       9.990   1.703  23.893  0.00  0.00    +0.099 C 
BRANCH  10  11
ATOM     11  S   UNL     1       8.813   2.937  24.549  0.00  0.00    -0.176 S 
ATOM     12  H   UNL     1       8.050   3.014  23.448  0.00  0.00    +0.102 HD
ENDBRANCH  10  11
ENDBRANCH   1  10
TORSDOF 7
ENDMDL
MODEL 6
REMARK VINA RESULT:      -3.1      2.716      3.519
REMARK  Name = 
REMARK  7 active torsions:
REMARK  status: ('A' for Active; 'I' for Inactive)
REMARK    1  A    between atoms: O_1  and  C_2
REMARK    2  A    between atoms: C_2  and  C_4
REMARK    3  A    between atoms: C_2  and  C_6
REMARK    4  A    between atoms: C_4  and  S_5
REMARK    5  A    between atoms: C_6  and  O_8
REMARK    6  A    between atoms: C_6  and  C_9
REMARK    7  A    between atoms: C_9  and  S_10
REMARK                            x       y       z     vdW  Elec       q    Type
REMARK                         _______ _______ _______ _____ _____    ______ ____
ROOT
ATOM      1  C   UNL     1      10.048  -1.864  23.478  0.00  0.00    +0.153 C 
ENDROOT
BRANCH   1   2
ATOM      2  O   UNL     1      10.097  -3.207  23.971  0.00  0.00    -0.388 OA
ATOM      3  H   UNL     1       9.977  -3.147  24.937  0.00  0.00    +0.210 HD
ENDBRANCH   1   2
BRANCH   1   4
ATOM      4  C   UNL     1       9.056  -1.797  22.295  0.00  0.00    +0.153 C 
BRANCH   4   5
ATOM      5  O   UNL     1       9.680  -1.121  21.198  0.00  0.00    -0.388 OA
ATOM      6  H   UNL     1      10.006  -1.818  20.597  0.00  0.00    +0.210 HD
ENDBRANCH   4   5
BRANCH   4   7
ATOM      7  C   UNL     1       7.727  -1.117  22.656  0.00  0.00    +0.099 C 
BRANCH   7   8
ATOM      8  S   UNL     1       6.401  -2.354  22.891  0.00  0.00    -0.176 S 
ATOM      9  H   UNL     1       6.542  -2.477  24.219  0.00  0.00    +0.102 HD
ENDBRANCH   7   8
ENDBRANCH   4   7
ENDBRANCH   1   4
BRANCH   1  10
ATOM     10  C   UNL     1       9.706  -0.884  24.611  0.00  0.00    +0.099 C 
BRANCH  10  11
ATOM     11  S   UNL     1      10.722   0.630  24.500  0.00  0.00    -0.176 S 
ATOM     12  H   UNL     1      11.038   0.503  23.202  0.00  0.00    +0.102 HD
ENDBRANCH  10  11
ENDBRANCH   1  10
TORSDOF 7
ENDMDL
MODEL 7
REMARK VINA RESULT:      -3.1      2.282      2.757
REMARK  Name = 
REMARK  7 active torsions:
REMARK  status: ('A' for Active; 'I' for Inactive)
REMARK    1  A    between atoms: O_1  and  C_2
REMARK    2  A    between atoms: C_2  and  C_4
REMARK    3  A    between atoms: C_2  and  C_6
REMARK    4  A    between atoms: C_4  and  S_5
REMARK    5  A    between atoms: C_6  and  O_8
REMARK    6  A    between atoms: C_6  and  C_9
REMARK    7  A    between atoms: C_9  and  S_10
REMARK                            x       y       z     vdW  Elec       q    Type
REMARK                         _______ _______ _______ _____ _____    ______ ____
ROOT
ATOM      1  C   UNL     1      10.312   1.591  23.887  0.00  0.00    +0.153 C 
ENDROOT
BRANCH   1   2
ATOM      2  O   UNL     1      11.217   0.698  24.546  0.00  0.00    -0.388 OA
ATOM      3  H   UNL     1      10.773  -0.170  24.570  0.00  0.00    +0.210 HD
ENDBRANCH   1   2
BRANCH   1   4
ATOM      4  C   UNL     1      10.112   1.119  22.428  0.00  0.00    +0.153 C 
BRANCH   4   5
ATOM      5  O   UNL     1      10.077   2.261  21.567  0.00  0.00    -0.388 OA
ATOM      6  H   UNL     1      10.986   2.614  21.542  0.00  0.00    +0.210 HD
ENDBRANCH   4   5
BRANCH   4   7
ATOM      7  C   UNL     1       8.851   0.264  22.236  0.00  0.00    +0.099 C 
BRANCH   7   8
ATOM      8  S   UNL     1       9.275  -1.511  22.120  0.00  0.00    -0.176 S 
ATOM      9  H   UNL     1      10.028  -1.561  23.228  0.00  0.00    +0.102 HD
ENDBRANCH   7   8
ENDBRANCH   4   7
ENDBRANCH   1   4
BRANCH   1  10
ATOM     10  C   UNL     1       8.997   1.705  24.671  0.00  0.00    +0.099 C 
BRANCH  10  11
ATOM     11  S   UNL     1       8.453   3.445  24.793  0.00  0.00    -0.176 S 
ATOM     12  H   UNL     1       9.668   3.993  24.632  0.00  0.00    +0.102 HD
ENDBRANCH  10  11
ENDBRANCH   1  10
TORSDOF 7
ENDMDL
MODEL 8
REMARK VINA RESULT:      -3.1      2.265      3.370
REMARK  Name = 
REMARK  7 active torsions:
REMARK  status: ('A' for Active; 'I' for Inactive)
REMARK    1  A    between atoms: O_1  and  C_2
REMARK    2  A    between atoms: C_2  and  C_4
REMARK    3  A    between atoms: C_2  and  C_6
REMARK    4  A    between atoms: C_4  and  S_5
REMARK    5  A    between atoms: C_6  and  O_8
REMARK    6  A    between atoms: C_6  and  C_9
REMARK    7  A    between atoms: C_9  and  S_10
REMARK                            x       y       z     vdW  Elec       q    Type
REMARK                         _______ _______ _______ _____ _____    ______ ____
ROOT
ATOM      1  C   UNL     1      10.094   1.144  22.397  0.00  0.00    +0.153 C 
ENDROOT
BRANCH   1   2
ATOM      2  O   UNL     1      10.049   2.294  21.545  0.00  0.00    -0.388 OA
ATOM      3  H   UNL     1      10.800   2.205  20.928  0.00  0.00    +0.210 HD
ENDBRANCH   1   2
BRANCH   1   4
ATOM      4  C   UNL     1      10.300   1.607  23.857  0.00  0.00    +0.153 C 
BRANCH   4   5
ATOM      5  O   UNL     1      11.216   0.719  24.505  0.00  0.00    -0.388 OA
ATOM      6  H   UNL     1      11.913   1.280  24.894  0.00  0.00    +0.210 HD
ENDBRANCH   4   5
BRANCH   4   7
ATOM      7  C   UNL     1       8.990   1.698  24.653  0.00  0.00    +0.099 C 
BRANCH   7   8
ATOM      8  S   UNL     1       8.436   3.435  24.806  0.00  0.00    -0.176 S 
ATOM      9  H   UNL     1       9.407   3.831  25.642  0.00  0.00    +0.102 HD
ENDBRANCH   7   8
ENDBRANCH   4   7
ENDBRANCH   1   4
BRANCH   1  10
ATOM     10  C   UNL     1       8.839   0.280  22.206  0.00  0.00    +0.099 C 
BRANCH  10  11
ATOM     11  S   UNL     1       9.261  -1.498  22.186  0.00  0.00    -0.176 S 
ATOM     12  H   UNL     1       8.204  -1.910  22.903  0.00  0.00    +0.102 HD
ENDBRANCH  10  11
ENDBRANCH   1  10
TORSDOF 7
ENDMDL
MODEL 9
REMARK VINA RESULT:      -3.1      1.711      1.928
REMARK  Name = 
REMARK  7 active torsions:
REMARK  status: ('A' for Active; 'I' for Inactive)
REMARK    1  A    between atoms: O_1  and  C_2
REMARK    2  A    between atoms: C_2  and  C_4
REMARK    3  A    between atoms: C_2  and  C_6
REMARK    4  A    between atoms: C_4  and  S_5
REMARK    5  A    between atoms: C_6  and  O_8
REMARK    6  A    between atoms: C_6  and  C_9
REMARK    7  A    between atoms: C_9  and  S_10
REMARK                            x       y       z     vdW  Elec       q    Type
REMARK                         _______ _______ _______ _____ _____    ______ ____
ROOT
ATOM      1  C   UNL     1       9.394   1.293  22.078  0.00  0.00    +0.153 C 
ENDROOT
BRANCH   1   2
ATOM      2  O   UNL     1      10.286   2.289  21.565  0.00  0.00    -0.388 OA
ATOM      3  H   UNL     1      11.181   1.903  21.612  0.00  0.00    +0.210 HD
ENDBRANCH   1   2
BRANCH   1   4
ATOM      4  C   UNL     1       9.699   1.067  23.576  0.00  0.00    +0.153 C 
BRANCH   4   5
ATOM      5  O   UNL     1      10.671   2.026  24.006  0.00  0.00    -0.388 OA
ATOM      6  H   UNL     1      10.585   2.790  23.407  0.00  0.00    +0.210 HD
ENDBRANCH   4   5
BRANCH   4   7
ATOM      7  C   UNL     1      10.178  -0.358  23.888  0.00  0.00    +0.099 C 
BRANCH   7   8
ATOM      8  S   UNL     1      10.095  -1.417  22.400  0.00  0.00    -0.176 S 
ATOM      9  H   UNL     1      11.302  -1.983  22.548  0.00  0.00    +0.102 HD
ENDBRANCH   7   8
ENDBRANCH   4   7
ENDBRANCH   1   4
BRANCH   1  10
ATOM     10  C   UNL     1       7.934   1.685  21.809  0.00  0.00    +0.099 C 
BRANCH  10  11
ATOM     11  S   UNL     1       7.590   3.382  22.391  0.00  0.00    -0.176 S 
ATOM     12  H   UNL     1       6.363   3.477  21.858  0.00  0.00    +0.102 HD
ENDBRANCH  10  11
ENDBRANCH   1  10
TORSDOF 7
ENDMDL
