MODEL 1
REMARK VINA RESULT:      -6.2      0.000      0.000
REMARK  Name = 
REMARK  25 active torsions:
REMARK  status: ('A' for Active; 'I' for Inactive)
REMARK    1  A    between atoms: C_1  and  C_2
REMARK    2  A    between atoms: C_2  and  O_3
REMARK    3  A    between atoms: O_3  and  C_4
REMARK    4  A    between atoms: C_4  and  C_6
REMARK    5  A    between atoms: C_7  and  C_8
REMARK    6  A    between atoms: C_8  and  C_10
REMARK    7  A    between atoms: C_8  and  N_18
REMARK    8  A    between atoms: C_10  and  C_11
REMARK    9  A    between atoms: C_19  and  C_21
REMARK   10  A    between atoms: C_21  and  C_23
REMARK   11  A    between atoms: C_21  and  N_27
REMARK   12  A    between atoms: C_23  and  C_24
REMARK   13  A    between atoms: C_24  and  C_25
REMARK   14  A    between atoms: C_24  and  C_26
REMARK   15  A    between atoms: C_28  and  C_30
REMARK   16  A    between atoms: C_30  and  C_32
REMARK   17  A    between atoms: C_30  and  N_35
REMARK   18  A    between atoms: C_32  and  C_33
REMARK   19  A    between atoms: C_32  and  C_34
REMARK   20  A    between atoms: C_36  and  C_38
REMARK   21  A    between atoms: C_38  and  C_40
REMARK   22  A    between atoms: C_38  and  N_43
REMARK   23  A    between atoms: C_40  and  C_41
REMARK   24  A    between atoms: C_40  and  C_42
REMARK   25  A    between atoms: C_44  and  C_46
REMARK                            x       y       z     vdW  Elec       q    Type
REMARK                         _______ _______ _______ _____ _____    ______ ____
ROOT
ATOM      1  C   UNL     1       8.469   0.508  22.345  0.00  0.00    +0.159 C 
ENDROOT
BRANCH   1   2
ATOM      2  N   UNL     1       7.514   1.125  23.284  0.00  0.00    -0.302 N 
ATOM      3  H   UNL     1       7.325   0.597  24.128  0.00  0.00    +0.150 HD
ATOM      4  C   UNL     1       6.575   2.049  22.870  0.00  0.00    +0.234 C 
ATOM      5  O   UNL     1       6.582   2.513  21.730  0.00  0.00    -0.274 OA
BRANCH   4   6
ATOM      6  C   UNL     1       5.623   2.620  23.960  0.00  0.00    +0.161 C 
BRANCH   6   7
ATOM      7  N   UNL     1       5.913   2.040  25.276  0.00  0.00    -0.302 N 
ATOM      8  H   UNL     1       6.868   1.979  25.590  0.00  0.00    +0.150 HD
ATOM      9  C   UNL     1       4.939   1.343  25.973  0.00  0.00    +0.234 C 
ATOM     10  O   UNL     1       3.759   1.341  25.628  0.00  0.00    -0.274 OA
BRANCH   9  11
ATOM     11  C   UNL     1       5.402   0.692  27.294  0.00  0.00    +0.162 C 
BRANCH  11  12
ATOM     12  N   UNL     1       5.091  -0.738  27.290  0.00  0.00    -0.300 N 
ATOM     13  H   UNL     1       5.453  -1.327  26.556  0.00  0.00    +0.150 HD
ATOM     14  C   UNL     1       4.418  -1.333  28.336  0.00  0.00    +0.248 C 
ATOM     15  O   UNL     1       4.092  -0.741  29.359  0.00  0.00    -0.270 OA
BRANCH  14  16
ATOM     16  C   UNL     1       4.153  -2.745  28.138  0.00  0.00    +0.074 A 
ATOM     17  C   UNL     1       3.835  -3.474  26.953  0.00  0.00    +0.054 A 
ATOM     18  C   UNL     1       3.602  -4.772  27.342  0.00  0.00    +0.195 A 
ATOM     19  O   UNL     1       3.793  -4.908  28.677  0.00  0.00    -0.470 OA
ATOM     20  C   UNL     1       4.112  -3.678  29.154  0.00  0.00    +0.207 A 
ENDBRANCH  14  16
ENDBRANCH  11  12
BRANCH  11  21
ATOM     21  C   UNL     1       6.887   0.984  27.618  0.00  0.00    +0.012 C 
ATOM     22  C   UNL     1       7.846  -0.157  27.273  0.00  0.00    +0.009 C 
ATOM     23  C   UNL     1       7.051   1.377  29.092  0.00  0.00    +0.009 C 
ENDBRANCH  11  21
ENDBRANCH   9  11
ENDBRANCH   6   7
BRANCH   6  24
ATOM     24  C   UNL     1       5.579   4.173  24.008  0.00  0.00    +0.012 C 
ATOM     25  C   UNL     1       4.596   4.755  22.984  0.00  0.00    +0.009 C 
ATOM     26  C   UNL     1       6.940   4.860  23.867  0.00  0.00    +0.009 C 
ENDBRANCH   6  24
ENDBRANCH   4   6
ENDBRANCH   1   2
BRANCH   1  29
ATOM     27  N   UNL     1       7.723  -1.550  23.548  0.00  0.00    -0.307 N 
ATOM     28  H   UNL     1       7.092  -0.950  24.068  0.00  0.00    +0.149 HD
ATOM     29  C   UNL     1       8.657  -0.986  22.702  0.00  0.00    +0.234 C 
ATOM     30  O   UNL     1       9.590  -1.630  22.224  0.00  0.00    -0.274 OA
BRANCH  27  31
ATOM     31  C   UNL     1       7.703  -2.982  23.833  0.00  0.00    +0.097 C 
BRANCH  31  33
ATOM     32  C   UNL     1       6.634  -4.968  22.666  0.00  0.00    +0.089 C 
ATOM     33  C   UNL     1       7.039  -3.683  22.672  0.00  0.00    +0.002 C 
BRANCH  32  34
ATOM     34  C   UNL     1       5.756  -5.465  21.588  0.00  0.00    +0.332 C 
ATOM     35  O   UNL     1       5.942  -5.311  20.394  0.00  0.00    -0.246 OA
BRANCH  34  36
ATOM     36  O   UNL     1       4.667  -6.010  22.189  0.00  0.00    -0.462 OA
BRANCH  36  38
ATOM     37  C   UNL     1       4.062  -6.941  24.321  0.00  0.00    +0.048 C 
ATOM     38  C   UNL     1       4.506  -5.692  23.578  0.00  0.00    +0.229 C 
ENDBRANCH  36  38
ENDBRANCH  34  36
ENDBRANCH  32  34
ENDBRANCH  31  33
BRANCH  31  39
ATOM     39  C   UNL     1       7.116  -3.268  25.234  0.00  0.00    +0.039 C 
BRANCH  39  40
ATOM     40  C   UNL     1       8.109  -3.695  26.336  0.00  0.00    +0.078 C 
ATOM     41  C   UNL     1       7.770  -5.009  27.008  0.00  0.00    +0.216 C 
ATOM     42  O   UNL     1       7.069  -5.159  27.993  0.00  0.00    -0.276 OA
ATOM     43  N   UNL     1       8.370  -6.028  26.295  0.00  0.00    -0.315 N 
ATOM     44  H   UNL     1       8.266  -6.996  26.575  0.00  0.00    +0.149 HD
ATOM     45  C   UNL     1       9.297  -5.533  25.322  0.00  0.00    +0.105 C 
ATOM     46  C   UNL     1       9.471  -4.076  25.725  0.00  0.00    +0.031 C 
ENDBRANCH  39  40
ENDBRANCH  31  39
ENDBRANCH  27  31
ENDBRANCH   1  29
BRANCH   1  47
ATOM     47  C   UNL     1       9.810   1.266  22.281  0.00  0.00    +0.034 C 
BRANCH  47  48
ATOM     48  C   UNL     1      10.306   1.907  23.597  0.00  0.00    -0.015 C 
ATOM     49  C   UNL     1      11.062   3.200  23.276  0.00  0.00    +0.007 C 
ATOM     50  C   UNL     1      11.208   0.993  24.425  0.00  0.00    +0.007 C 
ENDBRANCH  47  48
ENDBRANCH   1  47
TORSDOF 18
ENDMDL
MODEL 2
REMARK VINA RESULT:      -5.9      2.321      6.056
REMARK  Name = 
REMARK  25 active torsions:
REMARK  status: ('A' for Active; 'I' for Inactive)
REMARK    1  A    between atoms: C_1  and  C_2
REMARK    2  A    between atoms: C_2  and  O_3
REMARK    3  A    between atoms: O_3  and  C_4
REMARK    4  A    between atoms: C_4  and  C_6
REMARK    5  A    between atoms: C_7  and  C_8
REMARK    6  A    between atoms: C_8  and  C_10
REMARK    7  A    between atoms: C_8  and  N_18
REMARK    8  A    between atoms: C_10  and  C_11
REMARK    9  A    between atoms: C_19  and  C_21
REMARK   10  A    between atoms: C_21  and  C_23
REMARK   11  A    between atoms: C_21  and  N_27
REMARK   12  A    between atoms: C_23  and  C_24
REMARK   13  A    between atoms: C_24  and  C_25
REMARK   14  A    between atoms: C_24  and  C_26
REMARK   15  A    between atoms: C_28  and  C_30
REMARK   16  A    between atoms: C_30  and  C_32
REMARK   17  A    between atoms: C_30  and  N_35
REMARK   18  A    between atoms: C_32  and  C_33
REMARK   19  A    between atoms: C_32  and  C_34
REMARK   20  A    between atoms: C_36  and  C_38
REMARK   21  A    between atoms: C_38  and  C_40
REMARK   22  A    between atoms: C_38  and  N_43
REMARK   23  A    between atoms: C_40  and  C_41
REMARK   24  A    between atoms: C_40  and  C_42
REMARK   25  A    between atoms: C_44  and  C_46
REMARK                            x       y       z     vdW  Elec       q    Type
REMARK                         _______ _______ _______ _____ _____    ______ ____
ROOT
ATOM      1  C   UNL     1       4.790  -1.191  26.917  0.00  0.00    +0.159 C 
ENDROOT
BRANCH   1   2
ATOM      2  N   UNL     1       4.866   0.270  26.727  0.00  0.00    -0.302 N 
ATOM      3  H   UNL     1       4.319   0.641  25.958  0.00  0.00    +0.150 HD
ATOM      4  C   UNL     1       5.937   1.012  27.183  0.00  0.00    +0.234 C 
ATOM      5  O   UNL     1       6.810   0.518  27.897  0.00  0.00    -0.274 OA
BRANCH   4   6
ATOM      6  C   UNL     1       5.896   2.543  26.914  0.00  0.00    +0.161 C 
BRANCH   6   7
ATOM      7  N   UNL     1       6.768   2.909  25.791  0.00  0.00    -0.302 N 
ATOM      8  H   UNL     1       6.810   2.309  24.983  0.00  0.00    +0.150 HD
ATOM      9  C   UNL     1       7.719   3.907  25.928  0.00  0.00    +0.234 C 
ATOM     10  O   UNL     1       7.752   4.653  26.905  0.00  0.00    -0.274 OA
BRANCH   9  11
ATOM     11  C   UNL     1       8.641   4.121  24.709  0.00  0.00    +0.162 C 
BRANCH  11  12
ATOM     12  N   UNL     1       8.787   2.874  23.959  0.00  0.00    -0.300 N 
ATOM     13  H   UNL     1       7.969   2.342  23.707  0.00  0.00    +0.150 HD
ATOM     14  C   UNL     1      10.010   2.463  23.473  0.00  0.00    +0.248 C 
ATOM     15  O   UNL     1      11.038   3.125  23.569  0.00  0.00    -0.270 OA
BRANCH  14  16
ATOM     16  C   UNL     1       9.975   1.179  22.799  0.00  0.00    +0.074 A 
ATOM     17  C   UNL     1       9.381   0.796  21.559  0.00  0.00    +0.054 A 
ATOM     18  C   UNL     1       9.577  -0.560  21.433  0.00  0.00    +0.195 A 
ATOM     19  O   UNL     1      10.286  -1.036  22.486  0.00  0.00    -0.470 OA
ATOM     20  C   UNL     1      10.511   0.016  23.314  0.00  0.00    +0.207 A 
ENDBRANCH  14  16
ENDBRANCH  11  12
BRANCH  11  21
ATOM     21  C   UNL     1       8.196   5.308  23.822  0.00  0.00    +0.012 C 
ATOM     22  C   UNL     1       7.448   4.902  22.550  0.00  0.00    +0.009 C 
ATOM     23  C   UNL     1       9.397   6.193  23.462  0.00  0.00    +0.009 C 
ENDBRANCH  11  21
ENDBRANCH   9  11
ENDBRANCH   6   7
BRANCH   6  24
ATOM     24  C   UNL     1       4.462   3.116  26.744  0.00  0.00    +0.012 C 
ATOM     25  C   UNL     1       4.162   3.498  25.289  0.00  0.00    +0.009 C 
ATOM     26  C   UNL     1       4.124   4.289  27.667  0.00  0.00    +0.009 C 
ENDBRANCH   6  24
ENDBRANCH   4   6
ENDBRANCH   1   2
BRANCH   1  29
ATOM     27  N   UNL     1       4.953  -3.268  25.539  0.00  0.00    -0.307 N 
ATOM     28  H   UNL     1       4.754  -3.782  26.390  0.00  0.00    +0.149 HD
ATOM     29  C   UNL     1       5.178  -1.907  25.602  0.00  0.00    +0.234 C 
ATOM     30  O   UNL     1       5.643  -1.270  24.657  0.00  0.00    -0.274 OA
BRANCH  27  31
ATOM     31  C   UNL     1       5.131  -4.025  24.303  0.00  0.00    +0.097 C 
BRANCH  31  33
ATOM     32  C   UNL     1       3.486  -5.600  23.178  0.00  0.00    +0.089 C 
ATOM     33  C   UNL     1       3.766  -4.441  23.806  0.00  0.00    +0.002 C 
BRANCH  32  34
ATOM     34  C   UNL     1       2.084  -6.020  22.986  0.00  0.00    +0.332 C 
ATOM     35  O   UNL     1       1.109  -5.295  23.068  0.00  0.00    -0.246 OA
BRANCH  34  36
ATOM     36  O   UNL     1       2.098  -7.368  22.822  0.00  0.00    -0.462 OA
BRANCH  36  38
ATOM     37  C   UNL     1       1.968  -8.527  24.923  0.00  0.00    +0.048 C 
ATOM     38  C   UNL     1       1.211  -8.102  23.676  0.00  0.00    +0.229 C 
ENDBRANCH  36  38
ENDBRANCH  34  36
ENDBRANCH  32  34
ENDBRANCH  31  33
BRANCH  31  39
ATOM     39  C   UNL     1       6.171  -5.155  24.481  0.00  0.00    +0.039 C 
BRANCH  39  40
ATOM     40  C   UNL     1       7.506  -5.003  23.722  0.00  0.00    +0.078 C 
ATOM     41  C   UNL     1       7.714  -3.641  23.091  0.00  0.00    +0.216 C 
ATOM     42  O   UNL     1       7.378  -3.303  21.971  0.00  0.00    -0.276 OA
ATOM     43  N   UNL     1       8.332  -2.825  24.018  0.00  0.00    -0.315 N 
ATOM     44  H   UNL     1       8.561  -1.862  23.798  0.00  0.00    +0.149 HD
ATOM     45  C   UNL     1       8.793  -3.555  25.160  0.00  0.00    +0.105 C 
ATOM     46  C   UNL     1       8.694  -5.003  24.702  0.00  0.00    +0.031 C 
ENDBRANCH  39  40
ENDBRANCH  31  39
ENDBRANCH  27  31
ENDBRANCH   1  29
BRANCH   1  47
ATOM     47  C   UNL     1       3.416  -1.649  27.447  0.00  0.00    +0.034 C 
BRANCH  47  48
ATOM     48  C   UNL     1       3.383  -2.211  28.886  0.00  0.00    -0.015 C 
ATOM     49  C   UNL     1       3.880  -1.138  29.860  0.00  0.00    +0.007 C 
ATOM     50  C   UNL     1       4.217  -3.478  29.071  0.00  0.00    +0.007 C 
ENDBRANCH  47  48
ENDBRANCH   1  47
TORSDOF 18
ENDMDL
MODEL 3
REMARK VINA RESULT:      -5.9      2.045      4.588
REMARK  Name = 
REMARK  25 active torsions:
REMARK  status: ('A' for Active; 'I' for Inactive)
REMARK    1  A    between atoms: C_1  and  C_2
REMARK    2  A    between atoms: C_2  and  O_3
REMARK    3  A    between atoms: O_3  and  C_4
REMARK    4  A    between atoms: C_4  and  C_6
REMARK    5  A    between atoms: C_7  and  C_8
REMARK    6  A    between atoms: C_8  and  C_10
REMARK    7  A    between atoms: C_8  and  N_18
REMARK    8  A    between atoms: C_10  and  C_11
REMARK    9  A    between atoms: C_19  and  C_21
REMARK   10  A    between atoms: C_21  and  C_23
REMARK   11  A    between atoms: C_21  and  N_27
REMARK   12  A    between atoms: C_23  and  C_24
REMARK   13  A    between atoms: C_24  and  C_25
REMARK   14  A    between atoms: C_24  and  C_26
REMARK   15  A    between atoms: C_28  and  C_30
REMARK   16  A    between atoms: C_30  and  C_32
REMARK   17  A    between atoms: C_30  and  N_35
REMARK   18  A    between atoms: C_32  and  C_33
REMARK   19  A    between atoms: C_32  and  C_34
REMARK   20  A    between atoms: C_36  and  C_38
REMARK   21  A    between atoms: C_38  and  C_40
REMARK   22  A    between atoms: C_38  and  N_43
REMARK   23  A    between atoms: C_40  and  C_41
REMARK   24  A    between atoms: C_40  and  C_42
REMARK   25  A    between atoms: C_44  and  C_46
REMARK                            x       y       z     vdW  Elec       q    Type
REMARK                         _______ _______ _______ _____ _____    ______ ____
ROOT
ATOM      1  C   UNL     1       5.179   3.346  23.045  0.00  0.00    +0.159 C 
ENDROOT
BRANCH   1   2
ATOM      2  N   UNL     1       4.828   3.271  24.476  0.00  0.00    -0.302 N 
ATOM      3  H   UNL     1       5.601   3.099  25.109  0.00  0.00    +0.150 HD
ATOM      4  C   UNL     1       3.554   2.949  24.901  0.00  0.00    +0.234 C 
ATOM      5  O   UNL     1       2.614   2.852  24.112  0.00  0.00    -0.274 OA
BRANCH   4   6
ATOM      6  C   UNL     1       3.317   2.900  26.437  0.00  0.00    +0.161 C 
BRANCH   6   7
ATOM      7  N   UNL     1       3.156   1.518  26.906  0.00  0.00    -0.302 N 
ATOM      8  H   UNL     1       2.363   1.280  27.481  0.00  0.00    +0.150 HD
ATOM      9  C   UNL     1       4.194   0.607  26.796  0.00  0.00    +0.234 C 
ATOM     10  O   UNL     1       5.208   0.843  26.143  0.00  0.00    -0.274 OA
BRANCH   9  11
ATOM     11  C   UNL     1       3.934  -0.779  27.422  0.00  0.00    +0.162 C 
BRANCH  11  12
ATOM     12  N   UNL     1       5.159  -1.578  27.414  0.00  0.00    -0.300 N 
ATOM     13  H   UNL     1       5.936  -1.310  27.998  0.00  0.00    +0.150 HD
ATOM     14  C   UNL     1       5.241  -2.766  26.721  0.00  0.00    +0.248 C 
ATOM     15  O   UNL     1       4.296  -3.273  26.124  0.00  0.00    -0.270 OA
BRANCH  14  16
ATOM     16  C   UNL     1       6.546  -3.396  26.782  0.00  0.00    +0.074 A 
ATOM     17  C   UNL     1       7.827  -2.921  26.370  0.00  0.00    +0.054 A 
ATOM     18  C   UNL     1       8.714  -3.951  26.583  0.00  0.00    +0.195 A 
ATOM     19  O   UNL     1       8.081  -5.015  27.136  0.00  0.00    -0.470 OA
ATOM     20  C   UNL     1       6.770  -4.678  27.241  0.00  0.00    +0.207 A 
ENDBRANCH  14  16
ENDBRANCH  11  12
BRANCH  11  21
ATOM     21  C   UNL     1       3.283  -0.690  28.824  0.00  0.00    +0.012 C 
ATOM     22  C   UNL     1       4.257  -0.347  29.953  0.00  0.00    +0.009 C 
ATOM     23  C   UNL     1       2.536  -1.989  29.156  0.00  0.00    +0.009 C 
ENDBRANCH  11  21
ENDBRANCH   9  11
ENDBRANCH   6   7
BRANCH   6  24
ATOM     24  C   UNL     1       4.382   3.671  27.265  0.00  0.00    +0.012 C 
ATOM     25  C   UNL     1       4.381   3.252  28.741  0.00  0.00    +0.009 C 
ATOM     26  C   UNL     1       4.297   5.196  27.161  0.00  0.00    +0.009 C 
ENDBRANCH   6  24
ENDBRANCH   4   6
ENDBRANCH   1   2
BRANCH   1  29
ATOM     27  N   UNL     1       6.362   1.215  23.590  0.00  0.00    -0.307 N 
ATOM     28  H   UNL     1       5.918   1.265  24.500  0.00  0.00    +0.149 HD
ATOM     29  C   UNL     1       6.249   2.279  22.717  0.00  0.00    +0.234 C 
ATOM     30  O   UNL     1       6.942   2.379  21.705  0.00  0.00    -0.274 OA
BRANCH  27  31
ATOM     31  C   UNL     1       7.223   0.071  23.306  0.00  0.00    +0.097 C 
BRANCH  31  33
ATOM     32  C   UNL     1       6.409  -2.209  22.535  0.00  0.00    +0.089 C 
ATOM     33  C   UNL     1       6.387  -1.184  23.409  0.00  0.00    +0.002 C 
BRANCH  32  34
ATOM     34  C   UNL     1       5.762  -3.490  22.878  0.00  0.00    +0.332 C 
ATOM     35  O   UNL     1       4.575  -3.740  22.762  0.00  0.00    -0.246 OA
BRANCH  34  36
ATOM     36  O   UNL     1       6.718  -4.272  23.445  0.00  0.00    -0.462 OA
BRANCH  36  38
ATOM     37  C   UNL     1       7.027  -6.019  21.824  0.00  0.00    +0.048 C 
ATOM     38  C   UNL     1       6.567  -5.682  23.233  0.00  0.00    +0.229 C 
ENDBRANCH  36  38
ENDBRANCH  34  36
ENDBRANCH  32  34
ENDBRANCH  31  33
BRANCH  31  39
ATOM     39  C   UNL     1       8.509   0.109  24.163  0.00  0.00    +0.039 C 
BRANCH  39  40
ATOM     40  C   UNL     1       9.854   0.128  23.405  0.00  0.00    +0.078 C 
ATOM     41  C   UNL     1       9.739   0.482  21.936  0.00  0.00    +0.216 C 
ATOM     42  O   UNL     1       9.567  -0.296  21.015  0.00  0.00    -0.276 OA
ATOM     43  N   UNL     1       9.832   1.854  21.813  0.00  0.00    -0.315 N 
ATOM     44  H   UNL     1       9.775   2.304  20.907  0.00  0.00    +0.149 HD
ATOM     45  C   UNL     1      10.242   2.480  23.034  0.00  0.00    +0.105 C 
ATOM     46  C   UNL     1      10.728   1.307  23.873  0.00  0.00    +0.031 C 
ENDBRANCH  39  40
ENDBRANCH  31  39
ENDBRANCH  27  31
ENDBRANCH   1  29
BRANCH   1  47
ATOM     47  C   UNL     1       5.614   4.761  22.615  0.00  0.00    +0.034 C 
BRANCH  47  48
ATOM     48  C   UNL     1       7.078   5.156  22.917  0.00  0.00    -0.015 C 
ATOM     49  C   UNL     1       7.220   5.472  24.409  0.00  0.00    +0.007 C 
ATOM     50  C   UNL     1       7.573   6.351  22.103  0.00  0.00    +0.007 C 
ENDBRANCH  47  48
ENDBRANCH   1  47
TORSDOF 18
ENDMDL
MODEL 4
REMARK VINA RESULT:      -5.9      2.397      5.920
REMARK  Name = 
REMARK  25 active torsions:
REMARK  status: ('A' for Active; 'I' for Inactive)
REMARK    1  A    between atoms: C_1  and  C_2
REMARK    2  A    between atoms: C_2  and  O_3
REMARK    3  A    between atoms: O_3  and  C_4
REMARK    4  A    between atoms: C_4  and  C_6
REMARK    5  A    between atoms: C_7  and  C_8
REMARK    6  A    between atoms: C_8  and  C_10
REMARK    7  A    between atoms: C_8  and  N_18
REMARK    8  A    between atoms: C_10  and  C_11
REMARK    9  A    between atoms: C_19  and  C_21
REMARK   10  A    between atoms: C_21  and  C_23
REMARK   11  A    between atoms: C_21  and  N_27
REMARK   12  A    between atoms: C_23  and  C_24
REMARK   13  A    between atoms: C_24  and  C_25
REMARK   14  A    between atoms: C_24  and  C_26
REMARK   15  A    between atoms: C_28  and  C_30
REMARK   16  A    between atoms: C_30  and  C_32
REMARK   17  A    between atoms: C_30  and  N_35
REMARK   18  A    between atoms: C_32  and  C_33
REMARK   19  A    between atoms: C_32  and  C_34
REMARK   20  A    between atoms: C_36  and  C_38
REMARK   21  A    between atoms: C_38  and  C_40
REMARK   22  A    between atoms: C_38  and  N_43
REMARK   23  A    between atoms: C_40  and  C_41
REMARK   24  A    between atoms: C_40  and  C_42
REMARK   25  A    between atoms: C_44  and  C_46
REMARK                            x       y       z     vdW  Elec       q    Type
REMARK                         _______ _______ _______ _____ _____    ______ ____
ROOT
ATOM      1  C   UNL     1       5.642  -0.233  27.383  0.00  0.00    +0.159 C 
ENDROOT
BRANCH   1   2
ATOM      2  N   UNL     1       6.071   1.120  26.983  0.00  0.00    -0.302 N 
ATOM      3  H   UNL     1       6.541   1.185  26.087  0.00  0.00    +0.150 HD
ATOM      4  C   UNL     1       6.293   2.120  27.909  0.00  0.00    +0.234 C 
ATOM      5  O   UNL     1       6.005   1.978  29.097  0.00  0.00    -0.274 OA
BRANCH   4   6
ATOM      6  C   UNL     1       6.748   3.502  27.355  0.00  0.00    +0.161 C 
BRANCH   6   7
ATOM      7  N   UNL     1       7.001   3.438  25.912  0.00  0.00    -0.302 N 
ATOM      8  H   UNL     1       6.524   2.746  25.356  0.00  0.00    +0.150 HD
ATOM      9  C   UNL     1       8.064   4.125  25.348  0.00  0.00    +0.234 C 
ATOM     10  O   UNL     1       8.716   4.957  25.976  0.00  0.00    -0.274 OA
BRANCH   9  11
ATOM     11  C   UNL     1       8.285   3.890  23.839  0.00  0.00    +0.162 C 
BRANCH  11  12
ATOM     12  N   UNL     1       8.568   2.478  23.581  0.00  0.00    -0.300 N 
ATOM     13  H   UNL     1       7.826   1.798  23.648  0.00  0.00    +0.150 HD
ATOM     14  C   UNL     1       9.799   2.060  23.124  0.00  0.00    +0.248 C 
ATOM     15  O   UNL     1      10.714   2.825  22.838  0.00  0.00    -0.270 OA
BRANCH  14  16
ATOM     16  C   UNL     1       9.915   0.622  22.974  0.00  0.00    +0.074 A 
ATOM     17  C   UNL     1       9.815  -0.202  21.814  0.00  0.00    +0.054 A 
ATOM     18  C   UNL     1       9.925  -1.503  22.247  0.00  0.00    +0.195 A 
ATOM     19  O   UNL     1      10.128  -1.541  23.587  0.00  0.00    -0.470 OA
ATOM     20  C   UNL     1      10.108  -0.255  24.022  0.00  0.00    +0.207 A 
ENDBRANCH  14  16
ENDBRANCH  11  12
BRANCH  11  21
ATOM     21  C   UNL     1       7.127   4.440  22.971  0.00  0.00    +0.012 C 
ATOM     22  C   UNL     1       6.566   3.440  21.958  0.00  0.00    +0.009 C 
ATOM     23  C   UNL     1       7.554   5.727  22.253  0.00  0.00    +0.009 C 
ENDBRANCH  11  21
ENDBRANCH   9  11
ENDBRANCH   6   7
BRANCH   6  24
ATOM     24  C   UNL     1       5.797   4.673  27.726  0.00  0.00    +0.012 C 
ATOM     25  C   UNL     1       4.976   5.153  26.522  0.00  0.00    +0.009 C 
ATOM     26  C   UNL     1       6.479   5.868  28.396  0.00  0.00    +0.009 C 
ENDBRANCH   6  24
ENDBRANCH   4   6
ENDBRANCH   1   2
BRANCH   1  29
ATOM     27  N   UNL     1       6.367  -2.551  26.800  0.00  0.00    -0.307 N 
ATOM     28  H   UNL     1       5.427  -2.846  27.040  0.00  0.00    +0.149 HD
ATOM     29  C   UNL     1       6.759  -1.251  27.053  0.00  0.00    +0.234 C 
ATOM     30  O   UNL     1       7.935  -0.893  27.000  0.00  0.00    -0.274 OA
BRANCH  27  31
ATOM     31  C   UNL     1       7.307  -3.563  26.327  0.00  0.00    +0.097 C 
BRANCH  31  33
ATOM     32  C   UNL     1       6.225  -3.897  24.053  0.00  0.00    +0.089 C 
ATOM     33  C   UNL     1       7.282  -3.558  24.816  0.00  0.00    +0.002 C 
BRANCH  32  34
ATOM     34  C   UNL     1       6.224  -3.594  22.609  0.00  0.00    +0.332 C 
ATOM     35  O   UNL     1       5.343  -3.006  22.007  0.00  0.00    -0.246 OA
BRANCH  34  36
ATOM     36  O   UNL     1       7.324  -4.194  22.082  0.00  0.00    -0.462 OA
BRANCH  36  38
ATOM     37  C   UNL     1       6.188  -5.910  20.841  0.00  0.00    +0.048 C 
ATOM     38  C   UNL     1       7.227  -5.614  21.910  0.00  0.00    +0.229 C 
ENDBRANCH  36  38
ENDBRANCH  34  36
ENDBRANCH  32  34
ENDBRANCH  31  33
BRANCH  31  39
ATOM     39  C   UNL     1       7.058  -4.926  27.013  0.00  0.00    +0.039 C 
BRANCH  39  40
ATOM     40  C   UNL     1       5.623  -5.209  27.507  0.00  0.00    +0.078 C 
ATOM     41  C   UNL     1       5.151  -6.629  27.274  0.00  0.00    +0.216 C 
ATOM     42  O   UNL     1       4.577  -7.048  26.285  0.00  0.00    -0.276 OA
ATOM     43  N   UNL     1       5.508  -7.389  28.370  0.00  0.00    -0.315 N 
ATOM     44  H   UNL     1       5.287  -8.378  28.417  0.00  0.00    +0.149 HD
ATOM     45  C   UNL     1       5.976  -6.584  29.458  0.00  0.00    +0.105 C 
ATOM     46  C   UNL     1       5.561  -5.179  29.046  0.00  0.00    +0.031 C 
ENDBRANCH  39  40
ENDBRANCH  31  39
ENDBRANCH  27  31
ENDBRANCH   1  29
BRANCH   1  47
ATOM     47  C   UNL     1       4.287  -0.632  26.764  0.00  0.00    +0.034 C 
BRANCH  47  48
ATOM     48  C   UNL     1       3.121  -0.874  27.748  0.00  0.00    -0.015 C 
ATOM     49  C   UNL     1       3.663  -1.523  29.026  0.00  0.00    +0.007 C 
ATOM     50  C   UNL     1       2.005  -1.749  27.178  0.00  0.00    +0.007 C 
ENDBRANCH  47  48
ENDBRANCH   1  47
TORSDOF 18
ENDMDL
MODEL 5
REMARK VINA RESULT:      -5.8      2.329      9.007
REMARK  Name = 
REMARK  25 active torsions:
REMARK  status: ('A' for Active; 'I' for Inactive)
REMARK    1  A    between atoms: C_1  and  C_2
REMARK    2  A    between atoms: C_2  and  O_3
REMARK    3  A    between atoms: O_3  and  C_4
REMARK    4  A    between atoms: C_4  and  C_6
REMARK    5  A    between atoms: C_7  and  C_8
REMARK    6  A    between atoms: C_8  and  C_10
REMARK    7  A    between atoms: C_8  and  N_18
REMARK    8  A    between atoms: C_10  and  C_11
REMARK    9  A    between atoms: C_19  and  C_21
REMARK   10  A    between atoms: C_21  and  C_23
REMARK   11  A    between atoms: C_21  and  N_27
REMARK   12  A    between atoms: C_23  and  C_24
REMARK   13  A    between atoms: C_24  and  C_25
REMARK   14  A    between atoms: C_24  and  C_26
REMARK   15  A    between atoms: C_28  and  C_30
REMARK   16  A    between atoms: C_30  and  C_32
REMARK   17  A    between atoms: C_30  and  N_35
REMARK   18  A    between atoms: C_32  and  C_33
REMARK   19  A    between atoms: C_32  and  C_34
REMARK   20  A    between atoms: C_36  and  C_38
REMARK   21  A    between atoms: C_38  and  C_40
REMARK   22  A    between atoms: C_38  and  N_43
REMARK   23  A    between atoms: C_40  and  C_41
REMARK   24  A    between atoms: C_40  and  C_42
REMARK   25  A    between atoms: C_44  and  C_46
REMARK                            x       y       z     vdW  Elec       q    Type
REMARK                         _______ _______ _______ _____ _____    ______ ____
ROOT
ATOM      1  C   UNL     1       5.936   0.615  26.849  0.00  0.00    +0.159 C 
ENDROOT
BRANCH   1   2
ATOM      2  N   UNL     1       6.035  -0.794  26.427  0.00  0.00    -0.302 N 
ATOM      3  H   UNL     1       6.654  -0.976  25.645  0.00  0.00    +0.150 HD
ATOM      4  C   UNL     1       5.035  -1.709  26.693  0.00  0.00    +0.234 C 
ATOM      5  O   UNL     1       4.081  -1.433  27.419  0.00  0.00    -0.274 OA
BRANCH   4   6
ATOM      6  C   UNL     1       5.261  -3.163  26.188  0.00  0.00    +0.161 C 
BRANCH   6   7
ATOM      7  N   UNL     1       6.230  -3.199  25.087  0.00  0.00    -0.302 N 
ATOM      8  H   UNL     1       7.195  -2.975  25.270  0.00  0.00    +0.150 HD
ATOM      9  C   UNL     1       5.803  -3.275  23.770  0.00  0.00    +0.234 C 
ATOM     10  O   UNL     1       4.634  -3.507  23.471  0.00  0.00    -0.274 OA
BRANCH   9  11
ATOM     11  C   UNL     1       6.916  -3.197  22.704  0.00  0.00    +0.162 C 
BRANCH  11  12
ATOM     12  N   UNL     1       8.008  -2.345  23.172  0.00  0.00    -0.300 N 
ATOM     13  H   UNL     1       8.884  -2.760  23.451  0.00  0.00    +0.150 HD
ATOM     14  C   UNL     1       7.923  -0.970  23.124  0.00  0.00    +0.248 C 
ATOM     15  O   UNL     1       6.975  -0.364  22.636  0.00  0.00    -0.270 OA
BRANCH  14  16
ATOM     16  C   UNL     1       9.077  -0.288  23.677  0.00  0.00    +0.074 A 
ATOM     17  C   UNL     1      10.091   0.488  23.040  0.00  0.00    +0.054 A 
ATOM     18  C   UNL     1      10.992   0.836  24.019  0.00  0.00    +0.195 A 
ATOM     19  O   UNL     1      10.587   0.365  25.225  0.00  0.00    -0.470 OA
ATOM     20  C   UNL     1       9.437  -0.323  25.009  0.00  0.00    +0.207 A 
ENDBRANCH  14  16
ENDBRANCH  11  12
BRANCH  11  21
ATOM     21  C   UNL     1       7.398  -4.592  22.238  0.00  0.00    +0.012 C 
ATOM     22  C   UNL     1       6.382  -5.364  21.395  0.00  0.00    +0.009 C 
ATOM     23  C   UNL     1       7.833  -5.442  23.439  0.00  0.00    +0.009 C 
ENDBRANCH  11  21
ENDBRANCH   9  11
ENDBRANCH   6   7
BRANCH   6  24
ATOM     24  C   UNL     1       5.625  -4.172  27.313  0.00  0.00    +0.012 C 
ATOM     25  C   UNL     1       6.927  -4.926  27.012  0.00  0.00    +0.009 C 
ATOM     26  C   UNL     1       4.520  -5.169  27.666  0.00  0.00    +0.009 C 
ENDBRANCH   6  24
ENDBRANCH   4   6
ENDBRANCH   1   2
BRANCH   1  29
ATOM     27  N   UNL     1       6.873   2.573  25.614  0.00  0.00    -0.307 N 
ATOM     28  H   UNL     1       7.326   2.834  26.482  0.00  0.00    +0.149 HD
ATOM     29  C   UNL     1       5.964   1.534  25.605  0.00  0.00    +0.234 C 
ATOM     30  O   UNL     1       5.219   1.316  24.650  0.00  0.00    -0.274 OA
BRANCH  27  31
ATOM     31  C   UNL     1       7.103   3.409  24.439  0.00  0.00    +0.097 C 
BRANCH  31  33
ATOM     32  C   UNL     1       9.411   4.103  23.640  0.00  0.00    +0.089 C 
ATOM     33  C   UNL     1       8.454   4.068  24.587  0.00  0.00    +0.002 C 
BRANCH  32  34
ATOM     34  C   UNL     1      10.572   5.002  23.791  0.00  0.00    +0.332 C 
ATOM     35  O   UNL     1      10.526   6.169  24.138  0.00  0.00    -0.246 OA
BRANCH  34  36
ATOM     36  O   UNL     1      11.661   4.312  23.361  0.00  0.00    -0.462 OA
BRANCH  36  38
ATOM     37  C   UNL     1      13.200   5.539  21.983  0.00  0.00    +0.048 C 
ATOM     38  C   UNL     1      12.898   5.036  23.385  0.00  0.00    +0.229 C 
ENDBRANCH  36  38
ENDBRANCH  34  36
ENDBRANCH  32  34
ENDBRANCH  31  33
BRANCH  31  39
ATOM     39  C   UNL     1       5.906   4.352  24.178  0.00  0.00    +0.039 C 
BRANCH  39  40
ATOM     40  C   UNL     1       6.233   5.829  23.868  0.00  0.00    +0.078 C 
ATOM     41  C   UNL     1       6.314   6.154  22.391  0.00  0.00    +0.216 C 
ATOM     42  O   UNL     1       7.308   6.093  21.690  0.00  0.00    -0.276 OA
ATOM     43  N   UNL     1       5.052   6.508  21.955  0.00  0.00    -0.315 N 
ATOM     44  H   UNL     1       4.884   6.761  20.988  0.00  0.00    +0.149 HD
ATOM     45  C   UNL     1       4.138   6.693  23.041  0.00  0.00    +0.105 C 
ATOM     46  C   UNL     1       5.053   6.742  24.255  0.00  0.00    +0.031 C 
ENDBRANCH  39  40
ENDBRANCH  31  39
ENDBRANCH  27  31
ENDBRANCH   1  29
BRANCH   1  47
ATOM     47  C   UNL     1       7.013   1.001  27.883  0.00  0.00    +0.034 C 
BRANCH  47  48
ATOM     48  C   UNL     1       6.509   1.411  29.286  0.00  0.00    -0.015 C 
ATOM     49  C   UNL     1       4.980   1.498  29.269  0.00  0.00    +0.007 C 
ATOM     50  C   UNL     1       7.080   2.740  29.780  0.00  0.00    +0.007 C 
ENDBRANCH  47  48
ENDBRANCH   1  47
TORSDOF 18
ENDMDL
MODEL 6
REMARK VINA RESULT:      -5.8      2.447      7.616
REMARK  Name = 
REMARK  25 active torsions:
REMARK  status: ('A' for Active; 'I' for Inactive)
REMARK    1  A    between atoms: C_1  and  C_2
REMARK    2  A    between atoms: C_2  and  O_3
REMARK    3  A    between atoms: O_3  and  C_4
REMARK    4  A    between atoms: C_4  and  C_6
REMARK    5  A    between atoms: C_7  and  C_8
REMARK    6  A    between atoms: C_8  and  C_10
REMARK    7  A    between atoms: C_8  and  N_18
REMARK    8  A    between atoms: C_10  and  C_11
REMARK    9  A    between atoms: C_19  and  C_21
REMARK   10  A    between atoms: C_21  and  C_23
REMARK   11  A    between atoms: C_21  and  N_27
REMARK   12  A    between atoms: C_23  and  C_24
REMARK   13  A    between atoms: C_24  and  C_25
REMARK   14  A    between atoms: C_24  and  C_26
REMARK   15  A    between atoms: C_28  and  C_30
REMARK   16  A    between atoms: C_30  and  C_32
REMARK   17  A    between atoms: C_30  and  N_35
REMARK   18  A    between atoms: C_32  and  C_33
REMARK   19  A    between atoms: C_32  and  C_34
REMARK   20  A    between atoms: C_36  and  C_38
REMARK   21  A    between atoms: C_38  and  C_40
REMARK   22  A    between atoms: C_38  and  N_43
REMARK   23  A    between atoms: C_40  and  C_41
REMARK   24  A    between atoms: C_40  and  C_42
REMARK   25  A    between atoms: C_44  and  C_46
REMARK                            x       y       z     vdW  Elec       q    Type
REMARK                         _______ _______ _______ _____ _____    ______ ____
ROOT
ATOM      1  C   UNL     1       5.527   1.580  26.995  0.00  0.00    +0.159 C 
ENDROOT
BRANCH   1   2
ATOM      2  N   UNL     1       5.054   0.247  27.414  0.00  0.00    -0.302 N 
ATOM      3  H   UNL     1       5.773  -0.460  27.519  0.00  0.00    +0.150 HD
ATOM      4  C   UNL     1       3.756  -0.171  27.195  0.00  0.00    +0.234 C 
ATOM      5  O   UNL     1       2.891   0.596  26.774  0.00  0.00    -0.274 OA
BRANCH   4   6
ATOM      6  C   UNL     1       3.388  -1.603  27.681  0.00  0.00    +0.161 C 
BRANCH   6   7
ATOM      7  N   UNL     1       3.899  -2.624  26.760  0.00  0.00    -0.302 N 
ATOM      8  H   UNL     1       4.855  -2.930  26.842  0.00  0.00    +0.150 HD
ATOM      9  C   UNL     1       3.182  -2.981  25.628  0.00  0.00    +0.234 C 
ATOM     10  O   UNL     1       2.023  -2.614  25.442  0.00  0.00    -0.274 OA
BRANCH   9  11
ATOM     11  C   UNL     1       3.878  -3.987  24.688  0.00  0.00    +0.162 C 
BRANCH  11  12
ATOM     12  N   UNL     1       5.223  -4.291  25.175  0.00  0.00    -0.300 N 
ATOM     13  H   UNL     1       5.344  -4.915  25.957  0.00  0.00    +0.150 HD
ATOM     14  C   UNL     1       6.348  -3.844  24.515  0.00  0.00    +0.248 C 
ATOM     15  O   UNL     1       6.316  -3.229  23.455  0.00  0.00    -0.270 OA
BRANCH  14  16
ATOM     16  C   UNL     1       7.594  -4.196  25.170  0.00  0.00    +0.074 A 
ATOM     17  C   UNL     1       8.758  -4.848  24.663  0.00  0.00    +0.054 A 
ATOM     18  C   UNL     1       9.615  -5.004  25.728  0.00  0.00    +0.195 A 
ATOM     19  O   UNL     1       9.081  -4.458  26.849  0.00  0.00    -0.470 OA
ATOM     20  C   UNL     1       7.856  -3.984  26.508  0.00  0.00    +0.207 A 
ENDBRANCH  14  16
ENDBRANCH  11  12
BRANCH  11  21
ATOM     21  C   UNL     1       3.029  -5.257  24.435  0.00  0.00    +0.012 C 
ATOM     22  C   UNL     1       2.917  -6.193  25.640  0.00  0.00    +0.009 C 
ATOM     23  C   UNL     1       3.562  -6.029  23.221  0.00  0.00    +0.009 C 
ENDBRANCH  11  21
ENDBRANCH   9  11
ENDBRANCH   6   7
BRANCH   6  24
ATOM     24  C   UNL     1       3.794  -1.893  29.152  0.00  0.00    +0.012 C 
ATOM     25  C   UNL     1       3.676  -3.383  29.500  0.00  0.00    +0.009 C 
ATOM     26  C   UNL     1       3.056  -1.058  30.200  0.00  0.00    +0.009 C 
ENDBRANCH   6  24
ENDBRANCH   4   6
ENDBRANCH   1   2
BRANCH   1  29
ATOM     27  N   UNL     1       7.189   2.289  25.271  0.00  0.00    -0.307 N 
ATOM     28  H   UNL     1       6.428   2.787  24.823  0.00  0.00    +0.149 HD
ATOM     29  C   UNL     1       6.921   1.454  26.338  0.00  0.00    +0.234 C 
ATOM     30  O   UNL     1       7.750   0.656  26.776  0.00  0.00    -0.274 OA
BRANCH  27  31
ATOM     31  C   UNL     1       8.517   2.374  24.671  0.00  0.00    +0.097 C 
BRANCH  31  33
ATOM     32  C   UNL     1       9.993   4.311  23.948  0.00  0.00    +0.089 C 
ATOM     33  C   UNL     1       8.884   3.835  24.546  0.00  0.00    +0.002 C 
BRANCH  32  34
ATOM     34  C   UNL     1      10.112   5.750  23.643  0.00  0.00    +0.332 C 
ATOM     35  O   UNL     1       9.208   6.472  23.261  0.00  0.00    -0.246 OA
BRANCH  34  36
ATOM     36  O   UNL     1      11.428   6.067  23.759  0.00  0.00    -0.462 OA
BRANCH  36  38
ATOM     37  C   UNL     1      13.206   5.566  22.221  0.00  0.00    +0.048 C 
ATOM     38  C   UNL     1      12.347   5.041  23.359  0.00  0.00    +0.229 C 
ENDBRANCH  36  38
ENDBRANCH  34  36
ENDBRANCH  32  34
ENDBRANCH  31  33
BRANCH  31  39
ATOM     39  C   UNL     1       8.604   1.532  23.377  0.00  0.00    +0.039 C 
BRANCH  39  40
ATOM     40  C   UNL     1       9.754   0.507  23.285  0.00  0.00    +0.078 C 
ATOM     41  C   UNL     1       9.420  -0.859  23.850  0.00  0.00    +0.216 C 
ATOM     42  O   UNL     1       9.578  -1.225  25.000  0.00  0.00    -0.276 OA
ATOM     43  N   UNL     1       8.871  -1.622  22.838  0.00  0.00    -0.315 N 
ATOM     44  H   UNL     1       8.572  -2.576  23.005  0.00  0.00    +0.149 HD
ATOM     45  C   UNL     1       9.009  -1.001  21.556  0.00  0.00    +0.105 C 
ATOM     46  C   UNL     1      10.015   0.110  21.820  0.00  0.00    +0.031 C 
ENDBRANCH  39  40
ENDBRANCH  31  39
ENDBRANCH  27  31
ENDBRANCH   1  29
BRANCH   1  47
ATOM     47  C   UNL     1       5.515   2.602  28.150  0.00  0.00    +0.034 C 
BRANCH  47  48
ATOM     48  C   UNL     1       5.072   4.039  27.796  0.00  0.00    -0.015 C 
ATOM     49  C   UNL     1       4.159   3.999  26.566  0.00  0.00    +0.007 C 
ATOM     50  C   UNL     1       6.235   4.993  27.524  0.00  0.00    +0.007 C 
ENDBRANCH  47  48
ENDBRANCH   1  47
TORSDOF 18
ENDMDL
MODEL 7
REMARK VINA RESULT:      -5.8      2.182      6.705
REMARK  Name = 
REMARK  25 active torsions:
REMARK  status: ('A' for Active; 'I' for Inactive)
REMARK    1  A    between atoms: C_1  and  C_2
REMARK    2  A    between atoms: C_2  and  O_3
REMARK    3  A    between atoms: O_3  and  C_4
REMARK    4  A    between atoms: C_4  and  C_6
REMARK    5  A    between atoms: C_7  and  C_8
REMARK    6  A    between atoms: C_8  and  C_10
REMARK    7  A    between atoms: C_8  and  N_18
REMARK    8  A    between atoms: C_10  and  C_11
REMARK    9  A    between atoms: C_19  and  C_21
REMARK   10  A    between atoms: C_21  and  C_23
REMARK   11  A    between atoms: C_21  and  N_27
REMARK   12  A    between atoms: C_23  and  C_24
REMARK   13  A    between atoms: C_24  and  C_25
REMARK   14  A    between atoms: C_24  and  C_26
REMARK   15  A    between atoms: C_28  and  C_30
REMARK   16  A    between atoms: C_30  and  C_32
REMARK   17  A    between atoms: C_30  and  N_35
REMARK   18  A    between atoms: C_32  and  C_33
REMARK   19  A    between atoms: C_32  and  C_34
REMARK   20  A    between atoms: C_36  and  C_38
REMARK   21  A    between atoms: C_38  and  C_40
REMARK   22  A    between atoms: C_38  and  N_43
REMARK   23  A    between atoms: C_40  and  C_41
REMARK   24  A    between atoms: C_40  and  C_42
REMARK   25  A    between atoms: C_44  and  C_46
REMARK                            x       y       z     vdW  Elec       q    Type
REMARK                         _______ _______ _______ _____ _____    ______ ____
ROOT
ATOM      1  C   UNL     1       4.386   1.579  26.890  0.00  0.00    +0.159 C 
ENDROOT
BRANCH   1   2
ATOM      2  N   UNL     1       4.094   0.312  27.585  0.00  0.00    -0.302 N 
ATOM      3  H   UNL     1       4.901  -0.252  27.826  0.00  0.00    +0.150 HD
ATOM      4  C   UNL     1       2.868  -0.316  27.478  0.00  0.00    +0.234 C 
ATOM      5  O   UNL     1       1.913   0.221  26.918  0.00  0.00    -0.274 OA
BRANCH   4   6
ATOM      6  C   UNL     1       2.692  -1.650  28.258  0.00  0.00    +0.161 C 
BRANCH   6   7
ATOM      7  N   UNL     1       2.476  -2.777  27.342  0.00  0.00    -0.302 N 
ATOM      8  H   UNL     1       1.852  -3.520  27.611  0.00  0.00    +0.150 HD
ATOM      9  C   UNL     1       3.303  -2.967  26.247  0.00  0.00    +0.234 C 
ATOM     10  O   UNL     1       4.115  -2.120  25.881  0.00  0.00    -0.274 OA
BRANCH   9  11
ATOM     11  C   UNL     1       3.037  -4.246  25.425  0.00  0.00    +0.162 C 
BRANCH  11  12
ATOM     12  N   UNL     1       4.183  -4.545  24.567  0.00  0.00    -0.300 N 
ATOM     13  H   UNL     1       5.117  -4.489  24.940  0.00  0.00    +0.150 HD
ATOM     14  C   UNL     1       4.018  -5.027  23.286  0.00  0.00    +0.248 C 
ATOM     15  O   UNL     1       2.928  -5.301  22.796  0.00  0.00    -0.270 OA
BRANCH  14  16
ATOM     16  C   UNL     1       5.262  -5.217  22.563  0.00  0.00    +0.074 A 
ATOM     17  C   UNL     1       6.143  -6.338  22.510  0.00  0.00    +0.054 A 
ATOM     18  C   UNL     1       7.216  -5.957  21.738  0.00  0.00    +0.195 A 
ATOM     19  O   UNL     1       7.042  -4.694  21.276  0.00  0.00    -0.470 OA
ATOM     20  C   UNL     1       5.867  -4.248  21.789  0.00  0.00    +0.207 A 
ENDBRANCH  14  16
ENDBRANCH  11  12
BRANCH  11  21
ATOM     21  C   UNL     1       2.616  -5.448  26.307  0.00  0.00    +0.012 C 
ATOM     22  C   UNL     1       3.680  -6.539  26.438  0.00  0.00    +0.009 C 
ATOM     23  C   UNL     1       1.303  -6.057  25.797  0.00  0.00    +0.009 C 
ENDBRANCH  11  21
ENDBRANCH   9  11
ENDBRANCH   6   7
BRANCH   6  24
ATOM     24  C   UNL     1       3.829  -1.941  29.276  0.00  0.00    +0.012 C 
ATOM     25  C   UNL     1       3.818  -3.400  29.752  0.00  0.00    +0.009 C 
ATOM     26  C   UNL     1       3.865  -1.003  30.485  0.00  0.00    +0.009 C 
ENDBRANCH   6  24
ENDBRANCH   4   6
ENDBRANCH   1   2
BRANCH   1  29
ATOM     27  N   UNL     1       6.472   0.732  25.810  0.00  0.00    -0.307 N 
ATOM     28  H   UNL     1       6.882   0.722  26.737  0.00  0.00    +0.149 HD
ATOM     29  C   UNL     1       5.225   1.295  25.622  0.00  0.00    +0.234 C 
ATOM     30  O   UNL     1       4.775   1.544  24.505  0.00  0.00    -0.274 OA
BRANCH  27  31
ATOM     31  C   UNL     1       7.290   0.276  24.691  0.00  0.00    +0.097 C 
BRANCH  31  33
ATOM     32  C   UNL     1       7.488  -2.225  24.291  0.00  0.00    +0.089 C 
ATOM     33  C   UNL     1       7.779  -1.119  25.003  0.00  0.00    +0.002 C 
BRANCH  32  34
ATOM     34  C   UNL     1       8.237  -3.476  24.524  0.00  0.00    +0.332 C 
ATOM     35  O   UNL     1       9.371  -3.706  24.143  0.00  0.00    -0.246 OA
BRANCH  34  36
ATOM     36  O   UNL     1       7.379  -4.338  25.130  0.00  0.00    -0.462 OA
BRANCH  36  38
ATOM     37  C   UNL     1       6.862  -5.093  27.352  0.00  0.00    +0.048 C 
ATOM     38  C   UNL     1       7.913  -5.048  26.255  0.00  0.00    +0.229 C 
ENDBRANCH  36  38
ENDBRANCH  34  36
ENDBRANCH  32  34
ENDBRANCH  31  33
BRANCH  31  39
ATOM     39  C   UNL     1       8.374   1.316  24.325  0.00  0.00    +0.039 C 
BRANCH  39  40
ATOM     40  C   UNL     1       9.632   0.791  23.601  0.00  0.00    +0.078 C 
ATOM     41  C   UNL     1       9.632   1.020  22.104  0.00  0.00    +0.216 C 
ATOM     42  O   UNL     1       9.190   0.265  21.256  0.00  0.00    -0.276 OA
ATOM     43  N   UNL     1      10.198   2.254  21.854  0.00  0.00    -0.315 N 
ATOM     44  H   UNL     1      10.293   2.606  20.908  0.00  0.00    +0.149 HD
ATOM     45  C   UNL     1      10.814   2.812  23.020  0.00  0.00    +0.105 C 
ATOM     46  C   UNL     1      10.868   1.631  23.977  0.00  0.00    +0.031 C 
ENDBRANCH  39  40
ENDBRANCH  31  39
ENDBRANCH  27  31
ENDBRANCH   1  29
BRANCH   1  47
ATOM     47  C   UNL     1       5.054   2.620  27.811  0.00  0.00    +0.034 C 
BRANCH  47  48
ATOM     48  C   UNL     1       5.552   2.111  29.182  0.00  0.00    -0.015 C 
ATOM     49  C   UNL     1       5.228   3.154  30.257  0.00  0.00    +0.007 C 
ATOM     50  C   UNL     1       7.049   1.806  29.218  0.00  0.00    +0.007 C 
ENDBRANCH  47  48
ENDBRANCH   1  47
TORSDOF 18
ENDMDL
MODEL 8
REMARK VINA RESULT:      -5.7      2.748      8.371
REMARK  Name = 
REMARK  25 active torsions:
REMARK  status: ('A' for Active; 'I' for Inactive)
REMARK    1  A    between atoms: C_1  and  C_2
REMARK    2  A    between atoms: C_2  and  O_3
REMARK    3  A    between atoms: O_3  and  C_4
REMARK    4  A    between atoms: C_4  and  C_6
REMARK    5  A    between atoms: C_7  and  C_8
REMARK    6  A    between atoms: C_8  and  C_10
REMARK    7  A    between atoms: C_8  and  N_18
REMARK    8  A    between atoms: C_10  and  C_11
REMARK    9  A    between atoms: C_19  and  C_21
REMARK   10  A    between atoms: C_21  and  C_23
REMARK   11  A    between atoms: C_21  and  N_27
REMARK   12  A    between atoms: C_23  and  C_24
REMARK   13  A    between atoms: C_24  and  C_25
REMARK   14  A    between atoms: C_24  and  C_26
REMARK   15  A    between atoms: C_28  and  C_30
REMARK   16  A    between atoms: C_30  and  C_32
REMARK   17  A    between atoms: C_30  and  N_35
REMARK   18  A    between atoms: C_32  and  C_33
REMARK   19  A    between atoms: C_32  and  C_34
REMARK   20  A    between atoms: C_36  and  C_38
REMARK   21  A    between atoms: C_38  and  C_40
REMARK   22  A    between atoms: C_38  and  N_43
REMARK   23  A    between atoms: C_40  and  C_41
REMARK   24  A    between atoms: C_40  and  C_42
REMARK   25  A    between atoms: C_44  and  C_46
REMARK                            x       y       z     vdW  Elec       q    Type
REMARK                         _______ _______ _______ _____ _____    ______ ____
ROOT
ATOM      1  C   UNL     1       7.242   0.370  23.750  0.00  0.00    +0.159 C 
ENDROOT
BRANCH   1   2
ATOM      2  N   UNL     1       6.073  -0.480  24.041  0.00  0.00    -0.302 N 
ATOM      3  H   UNL     1       5.173  -0.094  23.776  0.00  0.00    +0.150 HD
ATOM      4  C   UNL     1       6.101  -1.452  25.021  0.00  0.00    +0.234 C 
ATOM      5  O   UNL     1       7.144  -1.759  25.598  0.00  0.00    -0.274 OA
BRANCH   4   6
ATOM      6  C   UNL     1       4.799  -2.276  25.231  0.00  0.00    +0.161 C 
BRANCH   6   7
ATOM      7  N   UNL     1       5.030  -3.706  24.996  0.00  0.00    -0.302 N 
ATOM      8  H   UNL     1       5.426  -4.270  25.731  0.00  0.00    +0.150 HD
ATOM      9  C   UNL     1       4.964  -4.234  23.716  0.00  0.00    +0.234 C 
ATOM     10  O   UNL     1       4.528  -3.591  22.763  0.00  0.00    -0.274 OA
BRANCH   9  11
ATOM     11  C   UNL     1       5.333  -5.727  23.591  0.00  0.00    +0.162 C 
BRANCH  11  12
ATOM     12  N   UNL     1       4.145  -6.517  23.269  0.00  0.00    -0.300 N 
ATOM     13  H   UNL     1       3.894  -6.674  22.305  0.00  0.00    +0.150 HD
ATOM     14  C   UNL     1       3.423  -7.166  24.247  0.00  0.00    +0.248 C 
ATOM     15  O   UNL     1       3.746  -7.188  25.430  0.00  0.00    -0.270 OA
BRANCH  14  16
ATOM     16  C   UNL     1       2.248  -7.858  23.751  0.00  0.00    +0.074 A 
ATOM     17  C   UNL     1       1.517  -7.696  22.537  0.00  0.00    +0.054 A 
ATOM     18  C   UNL     1       0.443  -8.552  22.608  0.00  0.00    +0.195 A 
ATOM     19  O   UNL     1       0.480  -9.262  23.762  0.00  0.00    -0.470 OA
ATOM     20  C   UNL     1       1.564  -8.830  24.454  0.00  0.00    +0.207 A 
ENDBRANCH  14  16
ENDBRANCH  11  12
BRANCH  11  21
ATOM     21  C   UNL     1       6.504  -5.974  22.609  0.00  0.00    +0.012 C 
ATOM     22  C   UNL     1       7.657  -4.977  22.737  0.00  0.00    +0.009 C 
ATOM     23  C   UNL     1       5.998  -6.005  21.161  0.00  0.00    +0.009 C 
ENDBRANCH  11  21
ENDBRANCH   9  11
ENDBRANCH   6   7
BRANCH   6  24
ATOM     24  C   UNL     1       4.103  -2.019  26.597  0.00  0.00    +0.012 C 
ATOM     25  C   UNL     1       4.195  -0.548  27.023  0.00  0.00    +0.009 C 
ATOM     26  C   UNL     1       4.578  -2.919  27.740  0.00  0.00    +0.009 C 
ENDBRANCH   6  24
ENDBRANCH   4   6
ENDBRANCH   1   2
BRANCH   1  29
ATOM     27  N   UNL     1       6.872   2.703  24.563  0.00  0.00    -0.307 N 
ATOM     28  H   UNL     1       7.026   2.342  25.498  0.00  0.00    +0.149 HD
ATOM     29  C   UNL     1       6.779   1.825  23.501  0.00  0.00    +0.234 C 
ATOM     30  O   UNL     1       6.370   2.170  22.393  0.00  0.00    -0.274 OA
BRANCH  27  31
ATOM     31  C   UNL     1       6.614   4.131  24.410  0.00  0.00    +0.097 C 
BRANCH  31  33
ATOM     32  C   UNL     1       9.007   4.929  24.108  0.00  0.00    +0.089 C 
ATOM     33  C   UNL     1       7.861   4.881  24.815  0.00  0.00    +0.002 C 
BRANCH  32  34
ATOM     34  C   UNL     1      10.055   5.907  24.458  0.00  0.00    +0.332 C 
ATOM     35  O   UNL     1      10.036   6.654  25.420  0.00  0.00    -0.246 OA
BRANCH  34  36
ATOM     36  O   UNL     1      10.964   5.885  23.449  0.00  0.00    -0.462 OA
BRANCH  36  38
ATOM     37  C   UNL     1      13.221   5.188  23.008  0.00  0.00    +0.048 C 
ATOM     38  C   UNL     1      11.829   4.741  23.423  0.00  0.00    +0.229 C 
ENDBRANCH  36  38
ENDBRANCH  34  36
ENDBRANCH  32  34
ENDBRANCH  31  33
BRANCH  31  39
ATOM     39  C   UNL     1       5.304   4.545  25.119  0.00  0.00    +0.039 C 
BRANCH  39  40
ATOM     40  C   UNL     1       4.258   5.301  24.272  0.00  0.00    +0.078 C 
ATOM     41  C   UNL     1       4.630   5.454  22.811  0.00  0.00    +0.216 C 
ATOM     42  O   UNL     1       5.261   6.371  22.317  0.00  0.00    -0.276 OA
ATOM     43  N   UNL     1       4.154   4.353  22.127  0.00  0.00    -0.315 N 
ATOM     44  H   UNL     1       4.299   4.254  21.128  0.00  0.00    +0.149 HD
ATOM     45  C   UNL     1       3.275   3.556  22.928  0.00  0.00    +0.105 C 
ATOM     46  C   UNL     1       2.976   4.463  24.113  0.00  0.00    +0.031 C 
ENDBRANCH  39  40
ENDBRANCH  31  39
ENDBRANCH  27  31
ENDBRANCH   1  29
BRANCH   1  47
ATOM     47  C   UNL     1       8.098  -0.176  22.589  0.00  0.00    +0.034 C 
BRANCH  47  48
ATOM     48  C   UNL     1       9.624   0.038  22.695  0.00  0.00    -0.015 C 
ATOM     49  C   UNL     1      10.020   1.274  21.880  0.00  0.00    +0.007 C 
ATOM     50  C   UNL     1      10.448  -1.158  22.218  0.00  0.00    +0.007 C 
ENDBRANCH  47  48
ENDBRANCH   1  47
TORSDOF 18
ENDMDL
MODEL 9
REMARK VINA RESULT:      -5.7      2.323      5.468
REMARK  Name = 
REMARK  25 active torsions:
REMARK  status: ('A' for Active; 'I' for Inactive)
REMARK    1  A    between atoms: C_1  and  C_2
REMARK    2  A    between atoms: C_2  and  O_3
REMARK    3  A    between atoms: O_3  and  C_4
REMARK    4  A    between atoms: C_4  and  C_6
REMARK    5  A    between atoms: C_7  and  C_8
REMARK    6  A    between atoms: C_8  and  C_10
REMARK    7  A    between atoms: C_8  and  N_18
REMARK    8  A    between atoms: C_10  and  C_11
REMARK    9  A    between atoms: C_19  and  C_21
REMARK   10  A    between atoms: C_21  and  C_23
REMARK   11  A    between atoms: C_21  and  N_27
REMARK   12  A    between atoms: C_23  and  C_24
REMARK   13  A    between atoms: C_24  and  C_25
REMARK   14  A    between atoms: C_24  and  C_26
REMARK   15  A    between atoms: C_28  and  C_30
REMARK   16  A    between atoms: C_30  and  C_32
REMARK   17  A    between atoms: C_30  and  N_35
REMARK   18  A    between atoms: C_32  and  C_33
REMARK   19  A    between atoms: C_32  and  C_34
REMARK   20  A    between atoms: C_36  and  C_38
REMARK   21  A    between atoms: C_38  and  C_40
REMARK   22  A    between atoms: C_38  and  N_43
REMARK   23  A    between atoms: C_40  and  C_41
REMARK   24  A    between atoms: C_40  and  C_42
REMARK   25  A    between atoms: C_44  and  C_46
REMARK                            x       y       z     vdW  Elec       q    Type
REMARK                         _______ _______ _______ _____ _____    ______ ____
ROOT
ATOM      1  C   UNL     1       8.808  -1.167  24.656  0.00  0.00    +0.159 C 
ENDROOT
BRANCH   1   2
ATOM      2  N   UNL     1       7.872  -0.754  25.718  0.00  0.00    -0.302 N 
ATOM      3  H   UNL     1       8.024  -1.179  26.626  0.00  0.00    +0.150 HD
ATOM      4  C   UNL     1       6.616  -0.256  25.433  0.00  0.00    +0.234 C 
ATOM      5  O   UNL     1       6.269   0.005  24.282  0.00  0.00    -0.274 OA
BRANCH   4   6
ATOM      6  C   UNL     1       5.725   0.138  26.646  0.00  0.00    +0.161 C 
BRANCH   6   7
ATOM      7  N   UNL     1       5.301   1.540  26.561  0.00  0.00    -0.302 N 
ATOM      8  H   UNL     1       4.674   1.823  25.825  0.00  0.00    +0.150 HD
ATOM      9  C   UNL     1       5.943   2.521  27.300  0.00  0.00    +0.234 C 
ATOM     10  O   UNL     1       6.749   2.251  28.189  0.00  0.00    -0.274 OA
BRANCH   9  11
ATOM     11  C   UNL     1       5.473   3.967  27.039  0.00  0.00    +0.162 C 
BRANCH  11  12
ATOM     12  N   UNL     1       6.512   4.720  26.338  0.00  0.00    -0.300 N 
ATOM     13  H   UNL     1       6.957   5.502  26.791  0.00  0.00    +0.150 HD
ATOM     14  C   UNL     1       6.996   4.312  25.113  0.00  0.00    +0.248 C 
ATOM     15  O   UNL     1       6.651   3.276  24.555  0.00  0.00    -0.270 OA
BRANCH  14  16
ATOM     16  C   UNL     1       7.986   5.207  24.543  0.00  0.00    +0.074 A 
ATOM     17  C   UNL     1       9.144   5.804  25.125  0.00  0.00    +0.054 A 
ATOM     18  C   UNL     1       9.684   6.629  24.166  0.00  0.00    +0.195 A 
ATOM     19  O   UNL     1       8.966   6.554  23.018  0.00  0.00    -0.470 OA
ATOM     20  C   UNL     1       7.935   5.704  23.256  0.00  0.00    +0.207 A 
ENDBRANCH  14  16
ENDBRANCH  11  12
BRANCH  11  21
ATOM     21  C   UNL     1       4.099   4.032  26.328  0.00  0.00    +0.012 C 
ATOM     22  C   UNL     1       3.844   5.332  25.562  0.00  0.00    +0.009 C 
ATOM     23  C   UNL     1       2.962   3.782  27.326  0.00  0.00    +0.009 C 
ENDBRANCH  11  21
ENDBRANCH   9  11
ENDBRANCH   6   7
BRANCH   6  24
ATOM     24  C   UNL     1       4.522  -0.818  26.882  0.00  0.00    +0.012 C 
ATOM     25  C   UNL     1       4.393  -1.231  28.354  0.00  0.00    +0.009 C 
ATOM     26  C   UNL     1       4.506  -2.063  25.993  0.00  0.00    +0.009 C 
ENDBRANCH   6  24
ENDBRANCH   4   6
ENDBRANCH   1   2
BRANCH   1  29
ATOM     27  N   UNL     1       7.954  -3.428  25.285  0.00  0.00    -0.307 N 
ATOM     28  H   UNL     1       7.295  -2.950  25.889  0.00  0.00    +0.149 HD
ATOM     29  C   UNL     1       8.952  -2.707  24.660  0.00  0.00    +0.234 C 
ATOM     30  O   UNL     1       9.908  -3.247  24.105  0.00  0.00    -0.274 OA
BRANCH  27  31
ATOM     31  C   UNL     1       7.896  -4.885  25.220  0.00  0.00    +0.097 C 
BRANCH  31  33
ATOM     32  C   UNL     1       5.941  -4.600  23.625  0.00  0.00    +0.089 C 
ATOM     33  C   UNL     1       7.032  -5.271  24.043  0.00  0.00    +0.002 C 
BRANCH  32  34
ATOM     34  C   UNL     1       5.340  -4.906  22.311  0.00  0.00    +0.332 C 
ATOM     35  O   UNL     1       5.729  -4.484  21.237  0.00  0.00    -0.246 OA
BRANCH  34  36
ATOM     36  O   UNL     1       4.222  -5.639  22.554  0.00  0.00    -0.462 OA
BRANCH  36  38
ATOM     37  C   UNL     1       1.895  -5.626  23.155  0.00  0.00    +0.048 C 
ATOM     38  C   UNL     1       3.266  -5.032  23.434  0.00  0.00    +0.229 C 
ENDBRANCH  36  38
ENDBRANCH  34  36
ENDBRANCH  32  34
ENDBRANCH  31  33
BRANCH  31  39
ATOM     39  C   UNL     1       7.505  -5.494  26.587  0.00  0.00    +0.039 C 
BRANCH  39  40
ATOM     40  C   UNL     1       6.029  -5.357  27.017  0.00  0.00    +0.078 C 
ATOM     41  C   UNL     1       5.239  -6.648  26.954  0.00  0.00    +0.216 C 
ATOM     42  O   UNL     1       4.614  -7.069  25.996  0.00  0.00    -0.276 OA
ATOM     43  N   UNL     1       5.367  -7.294  28.167  0.00  0.00    -0.315 N 
ATOM     44  H   UNL     1       4.915  -8.185  28.337  0.00  0.00    +0.149 HD
ATOM     45  C   UNL     1       5.978  -6.463  29.160  0.00  0.00    +0.105 C 
ATOM     46  C   UNL     1       5.925  -5.080  28.528  0.00  0.00    +0.031 C 
ENDBRANCH  39  40
ENDBRANCH  31  39
ENDBRANCH  27  31
ENDBRANCH   1  29
BRANCH   1  47
ATOM     47  C   UNL     1      10.171  -0.453  24.756  0.00  0.00    +0.034 C 
BRANCH  47  48
ATOM     48  C   UNL     1      10.462   0.634  23.697  0.00  0.00    -0.015 C 
ATOM     49  C   UNL     1       9.870   1.968  24.165  0.00  0.00    +0.007 C 
ATOM     50  C   UNL     1       9.914   0.303  22.309  0.00  0.00    +0.007 C 
ENDBRANCH  47  48
ENDBRANCH   1  47
TORSDOF 18
ENDMDL
