MODEL 1
REMARK VINA RESULT:      -7.1      0.000      0.000
REMARK  Name = 
REMARK  9 active torsions:
REMARK  status: ('A' for Active; 'I' for Inactive)
REMARK    1  A    between atoms: C_1  and  C_2
REMARK    2  A    between atoms: C_2  and  O_3
REMARK    3  A    between atoms: O_3  and  C_4
REMARK    4  A    between atoms: C_4  and  N_5
REMARK    5  A    between atoms: C_9  and  C_25
REMARK    6  A    between atoms: C_10  and  C_11
REMARK    7  A    between atoms: C_15  and  O_16
REMARK    8  A    between atoms: O_16  and  C_17
REMARK    9  A    between atoms: C_22  and  O_23
REMARK                            x       y       z     vdW  Elec       q    Type
REMARK                         _______ _______ _______ _____ _____    ______ ____
ROOT
ATOM      1  N   UNL     1       9.417   2.454  24.073  0.00  0.00    -0.176 N 
ATOM      2  C   UNL     1       8.852   1.210  24.215  0.00  0.00    +0.118 A 
ATOM      3  C   UNL     1       7.876   1.220  25.140  0.00  0.00    +0.097 A 
ATOM      4  C   UNL     1       7.880   2.633  25.654  0.00  0.00    +0.367 A 
ATOM      5  O   UNL     1       7.150   3.083  26.524  0.00  0.00    -0.243 OA
ATOM      6  O   UNL     1       8.862   3.338  24.990  0.00  0.00    -0.332 OA
ENDROOT
BRANCH   3   7
ATOM      7  C   UNL     1       6.929   0.171  25.548  0.00  0.00    -0.009 A 
ATOM      8  C   UNL     1       6.149  -0.479  24.573  0.00  0.00    +0.011 A 
ATOM      9  C   UNL     1       5.328  -1.558  24.904  0.00  0.00    +0.039 A 
ATOM     10  C   UNL     1       5.273  -2.000  26.218  0.00  0.00    +0.123 A 
ATOM     11  F   UNL     1       4.524  -3.064  26.529  0.00  0.00    -0.205 F 
ATOM     12  C   UNL     1       5.989  -1.348  27.212  0.00  0.00    +0.039 A 
ATOM     13  C   UNL     1       6.797  -0.257  26.880  0.00  0.00    +0.011 A 
ENDBRANCH   3   7
BRANCH   2  14
ATOM     14  C   UNL     1       9.315   0.067  23.431  0.00  0.00    +0.098 A 
ATOM     15  N   UNL     1       9.727  -0.995  24.158  0.00  0.00    -0.193 NA
ATOM     16  C   UNL     1      10.026  -2.123  23.502  0.00  0.00    +0.324 A 
ATOM     17  N   UNL     1       9.954  -2.255  22.170  0.00  0.00    -0.203 NA
ATOM     18  C   UNL     1       9.575  -1.156  21.477  0.00  0.00    +0.118 A 
ATOM     19  C   UNL     1       9.219   0.033  22.059  0.00  0.00    +0.050 A 
BRANCH  16  20
ATOM     20  O   UNL     1      10.134  -3.310  24.216  0.00  0.00    -0.420 OA
BRANCH  20  21
ATOM     21  C   UNL     1       9.013  -3.939  24.712  0.00  0.00    +0.173 A 
ATOM     22  C   UNL     1       7.900  -4.393  23.999  0.00  0.00    +0.159 A 
ATOM     23  C   UNL     1       6.822  -4.991  24.655  0.00  0.00    +0.049 A 
ATOM     24  C   UNL     1       6.867  -5.214  26.021  0.00  0.00    +0.004 A 
ATOM     25  C   UNL     1       8.020  -4.894  26.729  0.00  0.00    +0.004 A 
ATOM     26  C   UNL     1       9.081  -4.249  26.080  0.00  0.00    +0.050 A 
BRANCH  22  27
ATOM     27  O   UNL     1       7.766  -4.369  22.641  0.00  0.00    -0.503 OA
ATOM     28  H   UNL     1       8.612  -4.036  22.287  0.00  0.00    +0.292 HD
ENDBRANCH  22  27
ENDBRANCH  20  21
ENDBRANCH  16  20
ENDBRANCH   2  14
BRANCH   1  29
ATOM     29  C   UNL     1      10.580   2.922  23.360  0.00  0.00    +0.321 C 
BRANCH  29  30
ATOM     30  O   UNL     1      10.736   4.331  23.542  0.00  0.00    -0.357 OA
BRANCH  30  32
ATOM     31  C   UNL     1      12.395   6.000  24.060  0.00  0.00    +0.034 C 
ATOM     32  C   UNL     1      12.090   4.719  23.310  0.00  0.00    +0.159 C 
ENDBRANCH  30  32
ENDBRANCH  29  30
ENDBRANCH   1  29
TORSDOF 8
ENDMDL
MODEL 2
REMARK VINA RESULT:      -7.1      2.684      6.565
REMARK  Name = 
REMARK  9 active torsions:
REMARK  status: ('A' for Active; 'I' for Inactive)
REMARK    1  A    between atoms: C_1  and  C_2
REMARK    2  A    between atoms: C_2  and  O_3
REMARK    3  A    between atoms: O_3  and  C_4
REMARK    4  A    between atoms: C_4  and  N_5
REMARK    5  A    between atoms: C_9  and  C_25
REMARK    6  A    between atoms: C_10  and  C_11
REMARK    7  A    between atoms: C_15  and  O_16
REMARK    8  A    between atoms: O_16  and  C_17
REMARK    9  A    between atoms: C_22  and  O_23
REMARK                            x       y       z     vdW  Elec       q    Type
REMARK                         _______ _______ _______ _____ _____    ______ ____
ROOT
ATOM      1  N   UNL     1       5.282  -4.351  24.310  0.00  0.00    -0.176 N 
ATOM      2  C   UNL     1       6.064  -3.251  24.570  0.00  0.00    +0.118 A 
ATOM      3  C   UNL     1       5.349  -2.269  25.145  0.00  0.00    +0.097 A 
ATOM      4  C   UNL     1       3.952  -2.823  25.201  0.00  0.00    +0.367 A 
ATOM      5  O   UNL     1       2.969  -2.250  25.645  0.00  0.00    -0.243 OA
ATOM      6  O   UNL     1       3.961  -4.087  24.650  0.00  0.00    -0.332 OA
ENDROOT
BRANCH   3   7
ATOM      7  C   UNL     1       5.770  -0.971  25.696  0.00  0.00    -0.009 A 
ATOM      8  C   UNL     1       6.209  -0.893  27.031  0.00  0.00    +0.011 A 
ATOM      9  C   UNL     1       6.727   0.294  27.554  0.00  0.00    +0.039 A 
ATOM     10  C   UNL     1       6.809   1.419  26.748  0.00  0.00    +0.123 A 
ATOM     11  F   UNL     1       7.350   2.544  27.232  0.00  0.00    -0.205 F 
ATOM     12  C   UNL     1       6.336   1.390  25.444  0.00  0.00    +0.039 A 
ATOM     13  C   UNL     1       5.801   0.205  24.928  0.00  0.00    +0.011 A 
ENDBRANCH   3   7
BRANCH   2  14
ATOM     14  C   UNL     1       7.484  -3.226  24.224  0.00  0.00    +0.098 A 
ATOM     15  N   UNL     1       7.810  -2.395  23.209  0.00  0.00    -0.193 NA
ATOM     16  C   UNL     1       9.109  -2.217  22.941  0.00  0.00    +0.324 A 
ATOM     17  N   UNL     1      10.101  -2.824  23.608  0.00  0.00    -0.203 NA
ATOM     18  C   UNL     1       9.729  -3.677  24.591  0.00  0.00    +0.118 A 
ATOM     19  C   UNL     1       8.429  -3.902  24.961  0.00  0.00    +0.050 A 
BRANCH  16  20
ATOM     20  O   UNL     1       9.492  -1.146  22.143  0.00  0.00    -0.420 OA
BRANCH  20  21
ATOM     21  C   UNL     1       9.363   0.150  22.591  0.00  0.00    +0.173 A 
ATOM     22  C   UNL     1       9.925   0.719  23.738  0.00  0.00    +0.159 A 
ATOM     23  C   UNL     1       9.676   2.050  24.076  0.00  0.00    +0.049 A 
ATOM     24  C   UNL     1       8.925   2.858  23.238  0.00  0.00    +0.004 A 
ATOM     25  C   UNL     1       8.468   2.351  22.026  0.00  0.00    +0.004 A 
ATOM     26  C   UNL     1       8.677   1.002  21.711  0.00  0.00    +0.050 A 
BRANCH  22  27
ATOM     27  O   UNL     1      10.794   0.095  24.587  0.00  0.00    -0.503 OA
ATOM     28  H   UNL     1      10.352   0.062  25.456  0.00  0.00    +0.292 HD
ENDBRANCH  22  27
ENDBRANCH  20  21
ENDBRANCH  16  20
ENDBRANCH   2  14
BRANCH   1  29
ATOM     29  C   UNL     1       5.520  -5.564  23.569  0.00  0.00    +0.321 C 
BRANCH  29  30
ATOM     30  O   UNL     1       5.015  -5.437  22.238  0.00  0.00    -0.357 OA
BRANCH  30  32
ATOM     31  C   UNL     1       7.303  -6.102  21.881  0.00  0.00    +0.034 C 
ATOM     32  C   UNL     1       6.087  -5.413  21.295  0.00  0.00    +0.159 C 
ENDBRANCH  30  32
ENDBRANCH  29  30
ENDBRANCH   1  29
TORSDOF 8
ENDMDL
MODEL 3
REMARK VINA RESULT:      -7.0      3.051      7.679
REMARK  Name = 
REMARK  9 active torsions:
REMARK  status: ('A' for Active; 'I' for Inactive)
REMARK    1  A    between atoms: C_1  and  C_2
REMARK    2  A    between atoms: C_2  and  O_3
REMARK    3  A    between atoms: O_3  and  C_4
REMARK    4  A    between atoms: C_4  and  N_5
REMARK    5  A    between atoms: C_9  and  C_25
REMARK    6  A    between atoms: C_10  and  C_11
REMARK    7  A    between atoms: C_15  and  O_16
REMARK    8  A    between atoms: O_16  and  C_17
REMARK    9  A    between atoms: C_22  and  O_23
REMARK                            x       y       z     vdW  Elec       q    Type
REMARK                         _______ _______ _______ _____ _____    ______ ____
ROOT
ATOM      1  N   UNL     1       7.216  -5.042  26.709  0.00  0.00    -0.176 N 
ATOM      2  C   UNL     1       7.270  -3.903  25.942  0.00  0.00    +0.118 A 
ATOM      3  C   UNL     1       8.325  -3.925  25.109  0.00  0.00    +0.097 A 
ATOM      4  C   UNL     1       9.022  -5.215  25.442  0.00  0.00    +0.367 A 
ATOM      5  O   UNL     1      10.046  -5.634  24.924  0.00  0.00    -0.243 OA
ATOM      6  O   UNL     1       8.319  -5.846  26.448  0.00  0.00    -0.332 OA
ENDROOT
BRANCH   3   7
ATOM      7  C   UNL     1       8.725  -2.997  24.040  0.00  0.00    -0.009 A 
ATOM      8  C   UNL     1       7.931  -2.888  22.883  0.00  0.00    +0.011 A 
ATOM      9  C   UNL     1       8.210  -1.935  21.901  0.00  0.00    +0.039 A 
ATOM     10  C   UNL     1       9.291  -1.080  22.064  0.00  0.00    +0.123 A 
ATOM     11  F   UNL     1       9.532  -0.134  21.148  0.00  0.00    -0.205 F 
ATOM     12  C   UNL     1      10.123  -1.197  23.167  0.00  0.00    +0.039 A 
ATOM     13  C   UNL     1       9.851  -2.163  24.140  0.00  0.00    +0.011 A 
ENDBRANCH   3   7
BRANCH   2  14
ATOM     14  C   UNL     1       6.276  -2.842  26.081  0.00  0.00    +0.098 A 
ATOM     15  N   UNL     1       6.777  -1.627  26.393  0.00  0.00    -0.193 NA
ATOM     16  C   UNL     1       5.936  -0.585  26.392  0.00  0.00    +0.324 A 
ATOM     17  N   UNL     1       4.628  -0.680  26.114  0.00  0.00    -0.203 NA
ATOM     18  C   UNL     1       4.159  -1.921  25.845  0.00  0.00    +0.118 A 
ATOM     19  C   UNL     1       4.945  -3.043  25.791  0.00  0.00    +0.050 A 
BRANCH  16  20
ATOM     20  O   UNL     1       6.457   0.703  26.384  0.00  0.00    -0.420 OA
BRANCH  20  21
ATOM     21  C   UNL     1       6.964   1.251  25.227  0.00  0.00    +0.173 A 
ATOM     22  C   UNL     1       6.259   1.645  24.086  0.00  0.00    +0.159 A 
ATOM     23  C   UNL     1       6.925   2.163  22.973  0.00  0.00    +0.049 A 
ATOM     24  C   UNL     1       8.294   2.367  23.006  0.00  0.00    +0.004 A 
ATOM     25  C   UNL     1       8.997   2.110  24.178  0.00  0.00    +0.004 A 
ATOM     26  C   UNL     1       8.337   1.544  25.277  0.00  0.00    +0.050 A 
BRANCH  22  27
ATOM     27  O   UNL     1       4.901   1.634  23.951  0.00  0.00    -0.503 OA
ATOM     28  H   UNL     1       4.713   1.914  23.035  0.00  0.00    +0.292 HD
ENDBRANCH  22  27
ENDBRANCH  20  21
ENDBRANCH  16  20
ENDBRANCH   2  14
BRANCH   1  29
ATOM     29  C   UNL     1       6.406  -5.419  27.840  0.00  0.00    +0.321 C 
BRANCH  29  30
ATOM     30  O   UNL     1       5.853  -6.722  27.639  0.00  0.00    -0.357 OA
BRANCH  30  32
ATOM     31  C   UNL     1       4.558  -6.928  25.617  0.00  0.00    +0.034 C 
ATOM     32  C   UNL     1       4.533  -6.628  27.102  0.00  0.00    +0.159 C 
ENDBRANCH  30  32
ENDBRANCH  29  30
ENDBRANCH   1  29
TORSDOF 8
ENDMDL
MODEL 4
REMARK VINA RESULT:      -6.9      2.766      6.249
REMARK  Name = 
REMARK  9 active torsions:
REMARK  status: ('A' for Active; 'I' for Inactive)
REMARK    1  A    between atoms: C_1  and  C_2
REMARK    2  A    between atoms: C_2  and  O_3
REMARK    3  A    between atoms: O_3  and  C_4
REMARK    4  A    between atoms: C_4  and  N_5
REMARK    5  A    between atoms: C_9  and  C_25
REMARK    6  A    between atoms: C_10  and  C_11
REMARK    7  A    between atoms: C_15  and  O_16
REMARK    8  A    between atoms: O_16  and  C_17
REMARK    9  A    between atoms: C_22  and  O_23
REMARK                            x       y       z     vdW  Elec       q    Type
REMARK                         _______ _______ _______ _____ _____    ______ ____
ROOT
ATOM      1  N   UNL     1       7.995  -1.802  26.018  0.00  0.00    -0.176 N 
ATOM      2  C   UNL     1       7.975  -2.257  24.722  0.00  0.00    +0.118 A 
ATOM      3  C   UNL     1       7.267  -3.395  24.615  0.00  0.00    +0.097 A 
ATOM      4  C   UNL     1       6.842  -3.690  26.027  0.00  0.00    +0.367 A 
ATOM      5  O   UNL     1       6.181  -4.650  26.393  0.00  0.00    -0.243 OA
ATOM      6  O   UNL     1       7.340  -2.701  26.850  0.00  0.00    -0.332 OA
ENDROOT
BRANCH   3   7
ATOM      7  C   UNL     1       6.880  -4.178  23.432  0.00  0.00    -0.009 A 
ATOM      8  C   UNL     1       5.953  -3.643  22.518  0.00  0.00    +0.011 A 
ATOM      9  C   UNL     1       5.650  -4.302  21.325  0.00  0.00    +0.039 A 
ATOM     10  C   UNL     1       6.270  -5.507  21.032  0.00  0.00    +0.123 A 
ATOM     11  F   UNL     1       6.018  -6.117  19.866  0.00  0.00    -0.205 F 
ATOM     12  C   UNL     1       7.149  -6.087  21.935  0.00  0.00    +0.039 A 
ATOM     13  C   UNL     1       7.437  -5.434  23.137  0.00  0.00    +0.011 A 
ENDBRANCH   3   7
BRANCH   2  14
ATOM     14  C   UNL     1       8.670  -1.545  23.652  0.00  0.00    +0.098 A 
ATOM     15  N   UNL     1       7.966  -0.542  23.083  0.00  0.00    -0.193 NA
ATOM     16  C   UNL     1       8.598   0.241  22.199  0.00  0.00    +0.324 A 
ATOM     17  N   UNL     1       9.878   0.079  21.838  0.00  0.00    -0.203 NA
ATOM     18  C   UNL     1      10.536  -0.960  22.402  0.00  0.00    +0.118 A 
ATOM     19  C   UNL     1       9.986  -1.797  23.339  0.00  0.00    +0.050 A 
BRANCH  16  20
ATOM     20  O   UNL     1       8.025   1.456  21.844  0.00  0.00    -0.420 OA
BRANCH  20  21
ATOM     21  C   UNL     1       8.122   2.551  22.674  0.00  0.00    +0.173 A 
ATOM     22  C   UNL     1       8.912   2.689  23.820  0.00  0.00    +0.159 A 
ATOM     23  C   UNL     1       8.880   3.862  24.577  0.00  0.00    +0.049 A 
ATOM     24  C   UNL     1       8.119   4.943  24.165  0.00  0.00    +0.004 A 
ATOM     25  C   UNL     1       7.432   4.877  22.957  0.00  0.00    +0.004 A 
ATOM     26  C   UNL     1       7.425   3.684  22.223  0.00  0.00    +0.050 A 
BRANCH  22  27
ATOM     27  O   UNL     1       9.811   1.770  24.277  0.00  0.00    -0.503 OA
ATOM     28  H   UNL     1      10.686   2.200  24.238  0.00  0.00    +0.292 HD
ENDBRANCH  22  27
ENDBRANCH  20  21
ENDBRANCH  16  20
ENDBRANCH   2  14
BRANCH   1  29
ATOM     29  C   UNL     1       8.735  -0.751  26.672  0.00  0.00    +0.321 C 
BRANCH  29  30
ATOM     30  O   UNL     1       8.193   0.525  26.323  0.00  0.00    -0.357 OA
BRANCH  30  32
ATOM     31  C   UNL     1       6.171   1.829  26.207  0.00  0.00    +0.034 C 
ATOM     32  C   UNL     1       6.897   0.693  26.898  0.00  0.00    +0.159 C 
ENDBRANCH  30  32
ENDBRANCH  29  30
ENDBRANCH   1  29
TORSDOF 8
ENDMDL
MODEL 5
REMARK VINA RESULT:      -6.9      3.759      6.777
REMARK  Name = 
REMARK  9 active torsions:
REMARK  status: ('A' for Active; 'I' for Inactive)
REMARK    1  A    between atoms: C_1  and  C_2
REMARK    2  A    between atoms: C_2  and  O_3
REMARK    3  A    between atoms: O_3  and  C_4
REMARK    4  A    between atoms: C_4  and  N_5
REMARK    5  A    between atoms: C_9  and  C_25
REMARK    6  A    between atoms: C_10  and  C_11
REMARK    7  A    between atoms: C_15  and  O_16
REMARK    8  A    between atoms: O_16  and  C_17
REMARK    9  A    between atoms: C_22  and  O_23
REMARK                            x       y       z     vdW  Elec       q    Type
REMARK                         _______ _______ _______ _____ _____    ______ ____
ROOT
ATOM      1  N   UNL     1       7.979  -4.189  26.075  0.00  0.00    -0.176 N 
ATOM      2  C   UNL     1       7.662  -3.576  24.886  0.00  0.00    +0.118 A 
ATOM      3  C   UNL     1       8.020  -2.280  24.895  0.00  0.00    +0.097 A 
ATOM      4  C   UNL     1       8.583  -2.069  26.274  0.00  0.00    +0.367 A 
ATOM      5  O   UNL     1       9.022  -1.020  26.719  0.00  0.00    -0.243 OA
ATOM      6  O   UNL     1       8.506  -3.261  26.964  0.00  0.00    -0.332 OA
ENDROOT
BRANCH   3   7
ATOM      7  C   UNL     1       7.986  -1.267  23.829  0.00  0.00    -0.009 A 
ATOM      8  C   UNL     1       6.932  -0.335  23.791  0.00  0.00    +0.011 A 
ATOM      9  C   UNL     1       6.925   0.713  22.868  0.00  0.00    +0.039 A 
ATOM     10  C   UNL     1       7.973   0.840  21.969  0.00  0.00    +0.123 A 
ATOM     11  F   UNL     1       7.994   1.872  21.116  0.00  0.00    -0.205 F 
ATOM     12  C   UNL     1       9.001  -0.092  21.946  0.00  0.00    +0.039 A 
ATOM     13  C   UNL     1       8.996  -1.150  22.859  0.00  0.00    +0.011 A 
ENDBRANCH   3   7
BRANCH   2  14
ATOM     14  C   UNL     1       7.009  -4.305  23.802  0.00  0.00    +0.098 A 
ATOM     15  N   UNL     1       5.672  -4.447  23.932  0.00  0.00    -0.193 NA
ATOM     16  C   UNL     1       4.997  -4.976  22.905  0.00  0.00    +0.324 A 
ATOM     17  N   UNL     1       5.570  -5.387  21.765  0.00  0.00    -0.203 NA
ATOM     18  C   UNL     1       6.916  -5.263  21.690  0.00  0.00    +0.118 A 
ATOM     19  C   UNL     1       7.690  -4.705  22.674  0.00  0.00    +0.050 A 
BRANCH  16  20
ATOM     20  O   UNL     1       3.614  -4.840  22.865  0.00  0.00    -0.420 OA
BRANCH  20  21
ATOM     21  C   UNL     1       2.825  -5.357  23.868  0.00  0.00    +0.173 A 
ATOM     22  C   UNL     1       2.670  -6.698  24.231  0.00  0.00    +0.159 A 
ATOM     23  C   UNL     1       1.804  -7.068  25.262  0.00  0.00    +0.049 A 
ATOM     24  C   UNL     1       1.136  -6.104  25.997  0.00  0.00    +0.004 A 
ATOM     25  C   UNL     1       1.378  -4.758  25.743  0.00  0.00    +0.004 A 
ATOM     26  C   UNL     1       2.209  -4.388  24.677  0.00  0.00    +0.050 A 
BRANCH  22  27
ATOM     27  O   UNL     1       3.359  -7.748  23.696  0.00  0.00    -0.503 OA
ATOM     28  H   UNL     1       2.859  -8.552  23.929  0.00  0.00    +0.292 HD
ENDBRANCH  22  27
ENDBRANCH  20  21
ENDBRANCH  16  20
ENDBRANCH   2  14
BRANCH   1  29
ATOM     29  C   UNL     1       7.659  -5.485  26.619  0.00  0.00    +0.321 C 
BRANCH  29  30
ATOM     30  O   UNL     1       7.096  -5.346  27.926  0.00  0.00    -0.357 OA
BRANCH  30  32
ATOM     31  C   UNL     1       5.138  -6.375  26.973  0.00  0.00    +0.034 C 
ATOM     32  C   UNL     1       5.673  -5.263  27.853  0.00  0.00    +0.159 C 
ENDBRANCH  30  32
ENDBRANCH  29  30
ENDBRANCH   1  29
TORSDOF 8
ENDMDL
MODEL 6
REMARK VINA RESULT:      -6.8      3.189      6.338
REMARK  Name = 
REMARK  9 active torsions:
REMARK  status: ('A' for Active; 'I' for Inactive)
REMARK    1  A    between atoms: C_1  and  C_2
REMARK    2  A    between atoms: C_2  and  O_3
REMARK    3  A    between atoms: O_3  and  C_4
REMARK    4  A    between atoms: C_4  and  N_5
REMARK    5  A    between atoms: C_9  and  C_25
REMARK    6  A    between atoms: C_10  and  C_11
REMARK    7  A    between atoms: C_15  and  O_16
REMARK    8  A    between atoms: O_16  and  C_17
REMARK    9  A    between atoms: C_22  and  O_23
REMARK                            x       y       z     vdW  Elec       q    Type
REMARK                         _______ _______ _______ _____ _____    ______ ____
ROOT
ATOM      1  N   UNL     1       9.022  -2.939  24.171  0.00  0.00    -0.176 N 
ATOM      2  C   UNL     1       8.355  -1.744  24.296  0.00  0.00    +0.118 A 
ATOM      3  C   UNL     1       8.945  -0.778  23.570  0.00  0.00    +0.097 A 
ATOM      4  C   UNL     1      10.141  -1.459  22.966  0.00  0.00    +0.367 A 
ATOM      5  O   UNL     1      10.971  -0.941  22.234  0.00  0.00    -0.243 OA
ATOM      6  O   UNL     1      10.158  -2.772  23.390  0.00  0.00    -0.332 OA
ENDROOT
BRANCH   3   7
ATOM      7  C   UNL     1       8.536   0.610  23.306  0.00  0.00    -0.009 A 
ATOM      8  C   UNL     1       9.117   1.657  24.045  0.00  0.00    +0.011 A 
ATOM      9  C   UNL     1       8.845   2.994  23.744  0.00  0.00    +0.039 A 
ATOM     10  C   UNL     1       7.983   3.299  22.701  0.00  0.00    +0.123 A 
ATOM     11  F   UNL     1       7.758   4.579  22.380  0.00  0.00    -0.205 F 
ATOM     12  C   UNL     1       7.353   2.290  21.988  0.00  0.00    +0.039 A 
ATOM     13  C   UNL     1       7.614   0.953  22.302  0.00  0.00    +0.011 A 
ENDBRANCH   3   7
BRANCH   2  14
ATOM     14  C   UNL     1       7.169  -1.616  25.139  0.00  0.00    +0.098 A 
ATOM     15  N   UNL     1       6.024  -2.075  24.588  0.00  0.00    -0.193 NA
ATOM     16  C   UNL     1       4.932  -2.120  25.362  0.00  0.00    +0.324 A 
ATOM     17  N   UNL     1       4.906  -1.724  26.642  0.00  0.00    -0.203 NA
ATOM     18  C   UNL     1       6.064  -1.235  27.144  0.00  0.00    +0.118 A 
ATOM     19  C   UNL     1       7.241  -1.177  26.442  0.00  0.00    +0.050 A 
BRANCH  16  20
ATOM     20  O   UNL     1       3.841  -2.873  24.946  0.00  0.00    -0.420 OA
BRANCH  20  21
ATOM     21  C   UNL     1       3.935  -4.242  24.825  0.00  0.00    +0.173 A 
ATOM     22  C   UNL     1       4.281  -5.168  25.814  0.00  0.00    +0.159 A 
ATOM     23  C   UNL     1       4.360  -6.532  25.526  0.00  0.00    +0.049 A 
ATOM     24  C   UNL     1       4.022  -7.004  24.269  0.00  0.00    +0.004 A 
ATOM     25  C   UNL     1       3.545  -6.117  23.309  0.00  0.00    +0.004 A 
ATOM     26  C   UNL     1       3.514  -4.744  23.583  0.00  0.00    +0.050 A 
BRANCH  22  27
ATOM     27  O   UNL     1       4.507  -4.875  27.128  0.00  0.00    -0.503 OA
ATOM     28  H   UNL     1       4.576  -3.903  27.185  0.00  0.00    +0.292 HD
ENDBRANCH  22  27
ENDBRANCH  20  21
ENDBRANCH  16  20
ENDBRANCH   2  14
BRANCH   1  29
ATOM     29  C   UNL     1       8.900  -4.200  24.859  0.00  0.00    +0.321 C 
BRANCH  29  30
ATOM     30  O   UNL     1       8.664  -5.253  23.922  0.00  0.00    -0.357 OA
BRANCH  30  32
ATOM     31  C   UNL     1       7.201  -5.902  22.120  0.00  0.00    +0.034 C 
ATOM     32  C   UNL     1       7.308  -5.231  23.475  0.00  0.00    +0.159 C 
ENDBRANCH  30  32
ENDBRANCH  29  30
ENDBRANCH   1  29
TORSDOF 8
ENDMDL
MODEL 7
REMARK VINA RESULT:      -6.7      2.921      5.522
REMARK  Name = 
REMARK  9 active torsions:
REMARK  status: ('A' for Active; 'I' for Inactive)
REMARK    1  A    between atoms: C_1  and  C_2
REMARK    2  A    between atoms: C_2  and  O_3
REMARK    3  A    between atoms: O_3  and  C_4
REMARK    4  A    between atoms: C_4  and  N_5
REMARK    5  A    between atoms: C_9  and  C_25
REMARK    6  A    between atoms: C_10  and  C_11
REMARK    7  A    between atoms: C_15  and  O_16
REMARK    8  A    between atoms: O_16  and  C_17
REMARK    9  A    between atoms: C_22  and  O_23
REMARK                            x       y       z     vdW  Elec       q    Type
REMARK                         _______ _______ _______ _____ _____    ______ ____
ROOT
ATOM      1  N   UNL     1       8.886  -1.168  22.790  0.00  0.00    -0.176 N 
ATOM      2  C   UNL     1       8.241  -0.264  23.599  0.00  0.00    +0.118 A 
ATOM      3  C   UNL     1       8.565   1.000  23.276  0.00  0.00    +0.097 A 
ATOM      4  C   UNL     1       9.564   0.843  22.163  0.00  0.00    +0.367 A 
ATOM      5  O   UNL     1      10.132   1.750  21.575  0.00  0.00    -0.243 OA
ATOM      6  O   UNL     1       9.747  -0.503  21.925  0.00  0.00    -0.332 OA
ENDROOT
BRANCH   3   7
ATOM      7  C   UNL     1       8.049   2.282  23.779  0.00  0.00    -0.009 A 
ATOM      8  C   UNL     1       8.631   2.865  24.920  0.00  0.00    +0.011 A 
ATOM      9  C   UNL     1       8.250   4.135  25.358  0.00  0.00    +0.039 A 
ATOM     10  C   UNL     1       7.277   4.837  24.661  0.00  0.00    +0.123 A 
ATOM     11  F   UNL     1       6.945   6.074  25.051  0.00  0.00    -0.205 F 
ATOM     12  C   UNL     1       6.646   4.268  23.565  0.00  0.00    +0.039 A 
ATOM     13  C   UNL     1       7.017   2.990  23.139  0.00  0.00    +0.011 A 
ENDBRANCH   3   7
BRANCH   2  14
ATOM     14  C   UNL     1       7.339  -0.702  24.663  0.00  0.00    +0.098 A 
ATOM     15  N   UNL     1       6.160  -1.208  24.240  0.00  0.00    -0.193 NA
ATOM     16  C   UNL     1       5.353  -1.759  25.155  0.00  0.00    +0.324 A 
ATOM     17  N   UNL     1       5.639  -1.823  26.464  0.00  0.00    -0.203 NA
ATOM     18  C   UNL     1       6.811  -1.269  26.850  0.00  0.00    +0.118 A 
ATOM     19  C   UNL     1       7.718  -0.711  25.986  0.00  0.00    +0.050 A 
BRANCH  16  20
ATOM     20  O   UNL     1       4.305  -2.567  24.732  0.00  0.00    -0.420 OA
BRANCH  20  21
ATOM     21  C   UNL     1       4.543  -3.830  24.238  0.00  0.00    +0.173 A 
ATOM     22  C   UNL     1       4.943  -4.183  22.945  0.00  0.00    +0.159 A 
ATOM     23  C   UNL     1       5.118  -5.521  22.587  0.00  0.00    +0.049 A 
ATOM     24  C   UNL     1       4.972  -6.525  23.530  0.00  0.00    +0.004 A 
ATOM     25  C   UNL     1       4.707  -6.188  24.853  0.00  0.00    +0.004 A 
ATOM     26  C   UNL     1       4.483  -4.850  25.202  0.00  0.00    +0.050 A 
BRANCH  22  27
ATOM     27  O   UNL     1       5.258  -3.307  21.947  0.00  0.00    -0.503 OA
ATOM     28  H   UNL     1       6.025  -3.687  21.480  0.00  0.00    +0.292 HD
ENDBRANCH  22  27
ENDBRANCH  20  21
ENDBRANCH  16  20
ENDBRANCH   2  14
BRANCH   1  29
ATOM     29  C   UNL     1       9.010  -2.603  22.835  0.00  0.00    +0.321 C 
BRANCH  29  30
ATOM     30  O   UNL     1      10.020  -2.983  23.773  0.00  0.00    -0.357 OA
BRANCH  30  32
ATOM     31  C   UNL     1       8.340  -4.619  24.325  0.00  0.00    +0.034 C 
ATOM     32  C   UNL     1       9.451  -3.731  24.847  0.00  0.00    +0.159 C 
ENDBRANCH  30  32
ENDBRANCH  29  30
ENDBRANCH   1  29
TORSDOF 8
ENDMDL
MODEL 8
REMARK VINA RESULT:      -6.5      2.699      6.810
REMARK  Name = 
REMARK  9 active torsions:
REMARK  status: ('A' for Active; 'I' for Inactive)
REMARK    1  A    between atoms: C_1  and  C_2
REMARK    2  A    between atoms: C_2  and  O_3
REMARK    3  A    between atoms: O_3  and  C_4
REMARK    4  A    between atoms: C_4  and  N_5
REMARK    5  A    between atoms: C_9  and  C_25
REMARK    6  A    between atoms: C_10  and  C_11
REMARK    7  A    between atoms: C_15  and  O_16
REMARK    8  A    between atoms: O_16  and  C_17
REMARK    9  A    between atoms: C_22  and  O_23
REMARK                            x       y       z     vdW  Elec       q    Type
REMARK                         _______ _______ _______ _____ _____    ______ ____
ROOT
ATOM      1  N   UNL     1       6.258  -2.953  23.245  0.00  0.00    -0.176 N 
ATOM      2  C   UNL     1       6.766  -1.780  23.750  0.00  0.00    +0.118 A 
ATOM      3  C   UNL     1       6.024  -1.327  24.775  0.00  0.00    +0.097 A 
ATOM      4  C   UNL     1       4.902  -2.324  24.877  0.00  0.00    +0.367 A 
ATOM      5  O   UNL     1       3.981  -2.290  25.678  0.00  0.00    -0.243 OA
ATOM      6  O   UNL     1       5.077  -3.281  23.898  0.00  0.00    -0.332 OA
ENDROOT
BRANCH   3   7
ATOM      7  C   UNL     1       6.234  -0.191  25.685  0.00  0.00    -0.009 A 
ATOM      8  C   UNL     1       6.830  -0.409  26.941  0.00  0.00    +0.011 A 
ATOM      9  C   UNL     1       7.154   0.657  27.783  0.00  0.00    +0.039 A 
ATOM     10  C   UNL     1       6.882   1.956  27.380  0.00  0.00    +0.123 A 
ATOM     11  F   UNL     1       7.236   2.982  28.163  0.00  0.00    -0.205 F 
ATOM     12  C   UNL     1       6.247   2.201  26.171  0.00  0.00    +0.039 A 
ATOM     13  C   UNL     1       5.908   1.131  25.338  0.00  0.00    +0.011 A 
ENDBRANCH   3   7
BRANCH   2  14
ATOM     14  C   UNL     1       7.961  -1.159  23.182  0.00  0.00    +0.098 A 
ATOM     15  N   UNL     1       7.736  -0.033  22.470  0.00  0.00    -0.193 NA
ATOM     16  C   UNL     1       8.799   0.661  22.047  0.00  0.00    +0.324 A 
ATOM     17  N   UNL     1      10.069   0.298  22.276  0.00  0.00    -0.203 NA
ATOM     18  C   UNL     1      10.250  -0.856  22.959  0.00  0.00    +0.118 A 
ATOM     19  C   UNL     1       9.228  -1.620  23.459  0.00  0.00    +0.050 A 
BRANCH  16  20
ATOM     20  O   UNL     1       8.621   1.967  21.607  0.00  0.00    -0.420 OA
BRANCH  20  21
ATOM     21  C   UNL     1       8.320   2.976  22.495  0.00  0.00    +0.173 A 
ATOM     22  C   UNL     1       9.137   3.502  23.501  0.00  0.00    +0.159 A 
ATOM     23  C   UNL     1       8.675   4.513  24.346  0.00  0.00    +0.049 A 
ATOM     24  C   UNL     1       7.421   5.069  24.155  0.00  0.00    +0.004 A 
ATOM     25  C   UNL     1       6.645   4.655  23.077  0.00  0.00    +0.004 A 
ATOM     26  C   UNL     1       7.088   3.607  22.260  0.00  0.00    +0.050 A 
BRANCH  22  27
ATOM     27  O   UNL     1      10.438   3.157  23.726  0.00  0.00    -0.503 OA
ATOM     28  H   UNL     1      10.796   3.823  24.343  0.00  0.00    +0.292 HD
ENDBRANCH  22  27
ENDBRANCH  20  21
ENDBRANCH  16  20
ENDBRANCH   2  14
BRANCH   1  29
ATOM     29  C   UNL     1       6.575  -3.728  22.072  0.00  0.00    +0.321 C 
BRANCH  29  30
ATOM     30  O   UNL     1       7.597  -4.682  22.372  0.00  0.00    -0.357 OA
BRANCH  30  32
ATOM     31  C   UNL     1       6.078  -5.946  20.993  0.00  0.00    +0.034 C 
ATOM     32  C   UNL     1       7.158  -6.003  22.054  0.00  0.00    +0.159 C 
ENDBRANCH  30  32
ENDBRANCH  29  30
ENDBRANCH   1  29
TORSDOF 8
ENDMDL
MODEL 9
REMARK VINA RESULT:      -6.4      2.875      4.815
REMARK  Name = 
REMARK  9 active torsions:
REMARK  status: ('A' for Active; 'I' for Inactive)
REMARK    1  A    between atoms: C_1  and  C_2
REMARK    2  A    between atoms: C_2  and  O_3
REMARK    3  A    between atoms: O_3  and  C_4
REMARK    4  A    between atoms: C_4  and  N_5
REMARK    5  A    between atoms: C_9  and  C_25
REMARK    6  A    between atoms: C_10  and  C_11
REMARK    7  A    between atoms: C_15  and  O_16
REMARK    8  A    between atoms: O_16  and  C_17
REMARK    9  A    between atoms: C_22  and  O_23
REMARK                            x       y       z     vdW  Elec       q    Type
REMARK                         _______ _______ _______ _____ _____    ______ ____
ROOT
ATOM      1  N   UNL     1       8.813   0.311  24.213  0.00  0.00    -0.176 N 
ATOM      2  C   UNL     1       8.014  -0.805  24.265  0.00  0.00    +0.118 A 
ATOM      3  C   UNL     1       8.376  -1.709  23.339  0.00  0.00    +0.097 A 
ATOM      4  C   UNL     1       9.506  -1.041  22.604  0.00  0.00    +0.367 A 
ATOM      5  O   UNL     1      10.129  -1.510  21.664  0.00  0.00    -0.243 OA
ATOM      6  O   UNL     1       9.712   0.205  23.159  0.00  0.00    -0.332 OA
ENDROOT
BRANCH   3   7
ATOM      7  C   UNL     1       7.896  -3.077  23.092  0.00  0.00    -0.009 A 
ATOM      8  C   UNL     1       7.029  -3.325  22.011  0.00  0.00    +0.011 A 
ATOM      9  C   UNL     1       6.646  -4.624  21.673  0.00  0.00    +0.039 A 
ATOM     10  C   UNL     1       7.123  -5.694  22.416  0.00  0.00    +0.123 A 
ATOM     11  F   UNL     1       6.796  -6.944  22.065  0.00  0.00    -0.205 F 
ATOM     12  C   UNL     1       7.936  -5.480  23.520  0.00  0.00    +0.039 A 
ATOM     13  C   UNL     1       8.304  -4.177  23.866  0.00  0.00    +0.011 A 
ENDBRANCH   3   7
BRANCH   2  14
ATOM     14  C   UNL     1       6.921  -0.916  25.229  0.00  0.00    +0.098 A 
ATOM     15  N   UNL     1       5.796  -1.494  24.753  0.00  0.00    -0.193 NA
ATOM     16  C   UNL     1       4.813  -1.756  25.622  0.00  0.00    +0.324 A 
ATOM     17  N   UNL     1       4.872  -1.466  26.929  0.00  0.00    -0.203 NA
ATOM     18  C   UNL     1       6.000  -0.853  27.357  0.00  0.00    +0.118 A 
ATOM     19  C   UNL     1       7.074  -0.571  26.552  0.00  0.00    +0.050 A 
BRANCH  16  20
ATOM     20  O   UNL     1       3.796  -2.628  25.248  0.00  0.00    -0.420 OA
BRANCH  20  21
ATOM     21  C   UNL     1       4.051  -3.967  25.057  0.00  0.00    +0.173 A 
ATOM     22  C   UNL     1       4.674  -4.855  25.940  0.00  0.00    +0.159 A 
ATOM     23  C   UNL     1       4.887  -6.189  25.586  0.00  0.00    +0.049 A 
ATOM     24  C   UNL     1       4.416  -6.679  24.379  0.00  0.00    +0.004 A 
ATOM     25  C   UNL     1       3.676  -5.848  23.544  0.00  0.00    +0.004 A 
ATOM     26  C   UNL     1       3.505  -4.498  23.877  0.00  0.00    +0.050 A 
BRANCH  22  27
ATOM     27  O   UNL     1       5.069  -4.559  27.212  0.00  0.00    -0.503 OA
ATOM     28  H   UNL     1       5.547  -3.710  27.161  0.00  0.00    +0.292 HD
ENDBRANCH  22  27
ENDBRANCH  20  21
ENDBRANCH  16  20
ENDBRANCH   2  14
BRANCH   1  29
ATOM     29  C   UNL     1       8.734   1.599  24.856  0.00  0.00    +0.321 C 
BRANCH  29  30
ATOM     30  O   UNL     1       9.743   2.471  24.341  0.00  0.00    -0.357 OA
BRANCH  30  32
ATOM     31  C   UNL     1       8.186   4.044  25.293  0.00  0.00    +0.034 C 
ATOM     32  C   UNL     1       9.247   3.806  24.238  0.00  0.00    +0.159 C 
ENDBRANCH  30  32
ENDBRANCH  29  30
ENDBRANCH   1  29
TORSDOF 8
ENDMDL
