MODEL 1
REMARK VINA RESULT:      -5.4      0.000      0.000
REMARK  Name = 
REMARK  28 active torsions:
REMARK  status: ('A' for Active; 'I' for Inactive)
REMARK    1  A    between atoms: C_1  and  O_2
REMARK    2  A    between atoms: O_2  and  C_3
REMARK    3  A    between atoms: C_5  and  O_7
REMARK    4  A    between atoms: O_7  and  C_8
REMARK    5  A    between atoms: C_8  and  C_10
REMARK    6  A    between atoms: C_15  and  C_17
REMARK    7  A    between atoms: C_23  and  O_25
REMARK    8  A    between atoms: C_26  and  C_28
REMARK    9  A    between atoms: C_30  and  C_32
REMARK   10  A    between atoms: C_32  and  C_33
REMARK   11  A    between atoms: C_35  and  O_37
REMARK   12  A    between atoms: O_37  and  C_38
REMARK   13  A    between atoms: C_41  and  C_43
REMARK   14  A    between atoms: C_44  and  O_46
REMARK   15  A    between atoms: O_46  and  C_47
REMARK   16  A    between atoms: C_50  and  C_52
REMARK   17  A    between atoms: C_53  and  O_55
REMARK   18  A    between atoms: O_55  and  C_56
REMARK   19  A    between atoms: C_56  and  C_58
REMARK   20  A    between atoms: C_58  and  C_59
REMARK   21  A    between atoms: C_59  and  C_60
REMARK   22  A    between atoms: C_59  and  C_61
REMARK   23  A    between atoms: C_62  and  C_63
REMARK   24  A    between atoms: C_62  and  O_64
REMARK   25  A    between atoms: C_66  and  N_68
REMARK   26  A    between atoms: N_68  and  C_69
REMARK   27  A    between atoms: N_68  and  C_70
REMARK   28  A    between atoms: C_71  and  O_73
REMARK                            x       y       z     vdW  Elec       q    Type
REMARK                         _______ _______ _______ _____ _____    ______ ____
ROOT
ATOM      1  O   UNL     1       5.257  -0.686  26.749  0.00  0.00    -0.343 OA
ENDROOT
BRANCH   1   3
ATOM      2  C   UNL     1       7.246  -1.738  25.978  0.00  0.00    +0.188 C 
ATOM      3  C   UNL     1       5.362  -2.091  26.275  0.00  0.00    +0.157 C 
ATOM      4  C   UNL     1       4.253  -3.573  27.131  0.00  0.00    +0.028 C 
ATOM      5  C   UNL     1       2.931  -4.794  26.431  0.00  0.00    +0.012 C 
ATOM      6  C   UNL     1       1.858  -6.307  26.882  0.00  0.00    +0.019 C 
ATOM      7  C   UNL     1       1.794  -7.449  28.052  0.00  0.00    +0.010 C 
ATOM      8  C   UNL     1       1.441  -7.283  25.667  0.00  0.00    +0.140 C 
ATOM      9  C   UNL     1       2.704  -7.968  25.221  0.00  0.00    +0.004 C 
ATOM     10  C   UNL     1       3.343  -7.425  24.189  0.00  0.00    -0.002 C 
ATOM     11  C   UNL     1       4.592  -6.767  24.495  0.00  0.00    -0.004 C 
ATOM     12  C   UNL     1       4.799  -5.654  23.785  0.00  0.00    -0.023 C 
ATOM     13  C   UNL     1       5.569  -4.512  24.280  0.00  0.00    +0.071 C 
ATOM     14  C   UNL     1       6.362  -3.860  23.171  0.00  0.00    +0.177 C 
ATOM     15  C   UNL     1       5.690  -2.572  22.668  0.00  0.00    +0.052 C 
ATOM     16  O   UNL     1       7.552  -3.583  23.876  0.00  0.00    -0.461 OA
ATOM     17  C   UNL     1       8.631  -3.157  23.206  0.00  0.00    +0.311 C 
ATOM     18  O   UNL     1       8.911  -3.354  22.036  0.00  0.00    -0.251 OA
ATOM     19  C   UNL     1       9.297  -2.257  24.161  0.00  0.00    +0.167 C 
ATOM     20  C   UNL     1       8.202  -1.190  24.521  0.00  0.00    +0.218 C 
BRANCH   8  21
ATOM     21  O   UNL     1       0.710  -6.601  24.664  0.00  0.00    -0.387 OA
ATOM     22  H   UNL     1       0.189  -7.295  24.213  0.00  0.00    +0.210 HD
ENDBRANCH   8  21
BRANCH   2  24
ATOM     23  C   UNL     1       9.200  -0.666  27.485  0.00  0.00    +0.194 C 
ATOM     24  O   UNL     1       7.790  -0.678  27.036  0.00  0.00    -0.374 OA
ENDBRANCH   2  24
BRANCH   4  25
ATOM     25  C   UNL     1       3.410  -3.394  28.583  0.00  0.00    +0.076 C 
BRANCH  25  26
ATOM     26  C   UNL     1       3.827  -4.083  29.982  0.00  0.00    +0.223 C 
ATOM     27  O   UNL     1       4.940  -4.515  30.267  0.00  0.00    -0.301 OA
ENDBRANCH  25  26
ENDBRANCH   4  25
BRANCH  20  28
ATOM     28  O   UNL     1       7.776  -0.348  23.336  0.00  0.00    -0.458 OA
BRANCH  28  29
ATOM     29  C   UNL     1       8.730   0.463  22.684  0.00  0.00    +0.304 C 
ATOM     30  C   UNL     1       9.234   1.708  23.433  0.00  0.00    +0.136 C 
ATOM     31  O   UNL     1       9.157   0.249  21.548  0.00  0.00    -0.251 OA
ENDBRANCH  28  29
ENDBRANCH  20  28
ENDBRANCH   1   3
BRANCH   1  32
ATOM     32  C   UNL     1       4.644  -0.210  28.010  0.00  0.00    +0.281 C 
ATOM     33  C   UNL     1       3.175   0.568  28.408  0.00  0.00    +0.190 C 
ATOM     34  C   UNL     1       2.482   1.505  27.321  0.00  0.00    +0.121 C 
ATOM     35  C   UNL     1       3.664   2.314  26.577  0.00  0.00    +0.169 C 
ATOM     36  C   UNL     1       5.120   1.697  26.840  0.00  0.00    +0.149 C 
ATOM     37  C   UNL     1       6.494   2.261  26.547  0.00  0.00    +0.041 C 
ATOM     38  O   UNL     1       5.364   1.020  28.103  0.00  0.00    -0.343 OA
BRANCH  34  39
ATOM     39  N   UNL     1       1.165   2.266  27.803  0.00  0.00    -0.301 NA
ATOM     40  C   UNL     1       0.469   3.072  26.781  0.00  0.00    +0.105 C 
ATOM     41  C   UNL     1       1.187   3.156  28.974  0.00  0.00    +0.105 C 
ENDBRANCH  34  39
BRANCH  33  42
ATOM     42  O   UNL     1       2.245  -0.235  29.156  0.00  0.00    -0.385 OA
ATOM     43  H   UNL     1       2.564  -0.200  30.085  0.00  0.00    +0.210 HD
ENDBRANCH  33  42
BRANCH  35  44
ATOM     44  O   UNL     1       3.566   2.286  25.117  0.00  0.00    -0.344 OA
BRANCH  44  45
ATOM     45  C   UNL     1       3.424   3.480  24.351  0.00  0.00    +0.254 C 
ATOM     46  C   UNL     1       4.007   4.637  25.153  0.00  0.00    +0.099 C 
ATOM     47  C   UNL     1       4.105   5.996  24.404  0.00  0.00    +0.107 C 
ATOM     48  C   UNL     1       2.798   6.788  24.238  0.00  0.00    +0.045 C 
ATOM     49  C   UNL     1       4.716   5.715  23.024  0.00  0.00    +0.236 C 
ATOM     50  C   UNL     1       4.068   4.534  22.263  0.00  0.00    +0.162 C 
ATOM     51  C   UNL     1       2.702   4.853  21.655  0.00  0.00    +0.042 C 
ATOM     52  O   UNL     1       4.080   3.348  23.081  0.00  0.00    -0.345 OA
BRANCH  47  53
ATOM     53  O   UNL     1       4.930   6.823  25.202  0.00  0.00    -0.385 OA
ATOM     54  H   UNL     1       4.386   7.189  25.919  0.00  0.00    +0.210 HD
ENDBRANCH  47  53
BRANCH  49  55
ATOM     55  O   UNL     1       6.111   5.409  23.190  0.00  0.00    -0.456 OA
BRANCH  55  56
ATOM     56  C   UNL     1       6.991   6.235  22.654  0.00  0.00    +0.308 C 
ATOM     57  O   UNL     1       6.961   6.695  21.485  0.00  0.00    -0.251 OA
BRANCH  56  58
ATOM     58  C   UNL     1       8.095   6.634  23.594  0.00  0.00    +0.123 C 
BRANCH  58  59
ATOM     59  C   UNL     1       8.932   5.427  24.052  0.00  0.00    -0.007 C 
ATOM     60  C   UNL     1       8.690   5.269  25.548  0.00  0.00    +0.008 C 
ATOM     61  C   UNL     1      10.419   5.619  23.737  0.00  0.00    +0.008 C 
ENDBRANCH  58  59
ENDBRANCH  56  58
ENDBRANCH  55  56
ENDBRANCH  49  55
ENDBRANCH  44  45
ENDBRANCH  35  44
ENDBRANCH   1  32
TORSDOF 17
ENDMDL
MODEL 2
REMARK VINA RESULT:      -5.3      2.185      6.037
REMARK  Name = 
REMARK  28 active torsions:
REMARK  status: ('A' for Active; 'I' for Inactive)
REMARK    1  A    between atoms: C_1  and  O_2
REMARK    2  A    between atoms: O_2  and  C_3
REMARK    3  A    between atoms: C_5  and  O_7
REMARK    4  A    between atoms: O_7  and  C_8
REMARK    5  A    between atoms: C_8  and  C_10
REMARK    6  A    between atoms: C_15  and  C_17
REMARK    7  A    between atoms: C_23  and  O_25
REMARK    8  A    between atoms: C_26  and  C_28
REMARK    9  A    between atoms: C_30  and  C_32
REMARK   10  A    between atoms: C_32  and  C_33
REMARK   11  A    between atoms: C_35  and  O_37
REMARK   12  A    between atoms: O_37  and  C_38
REMARK   13  A    between atoms: C_41  and  C_43
REMARK   14  A    between atoms: C_44  and  O_46
REMARK   15  A    between atoms: O_46  and  C_47
REMARK   16  A    between atoms: C_50  and  C_52
REMARK   17  A    between atoms: C_53  and  O_55
REMARK   18  A    between atoms: O_55  and  C_56
REMARK   19  A    between atoms: C_56  and  C_58
REMARK   20  A    between atoms: C_58  and  C_59
REMARK   21  A    between atoms: C_59  and  C_60
REMARK   22  A    between atoms: C_59  and  C_61
REMARK   23  A    between atoms: C_62  and  C_63
REMARK   24  A    between atoms: C_62  and  O_64
REMARK   25  A    between atoms: C_66  and  N_68
REMARK   26  A    between atoms: N_68  and  C_69
REMARK   27  A    between atoms: N_68  and  C_70
REMARK   28  A    between atoms: C_71  and  O_73
REMARK                            x       y       z     vdW  Elec       q    Type
REMARK                         _______ _______ _______ _____ _____    ______ ____
ROOT
ATOM      1  O   UNL     1       5.869  -0.661  25.506  0.00  0.00    -0.343 OA
ENDROOT
BRANCH   1   3
ATOM      2  C   UNL     1       3.994   0.584  26.276  0.00  0.00    +0.188 C 
ATOM      3  C   UNL     1       4.653  -1.235  26.141  0.00  0.00    +0.157 C 
ATOM      4  C   UNL     1       3.908  -3.036  25.543  0.00  0.00    +0.028 C 
ATOM      5  C   UNL     1       3.609  -4.705  26.467  0.00  0.00    +0.012 C 
ATOM      6  C   UNL     1       2.848  -6.445  26.272  0.00  0.00    +0.019 C 
ATOM      7  C   UNL     1       1.825  -7.220  25.256  0.00  0.00    +0.010 C 
ATOM      8  C   UNL     1       2.323  -7.158  27.621  0.00  0.00    +0.140 C 
ATOM      9  C   UNL     1       1.115  -6.381  28.068  0.00  0.00    +0.004 C 
ATOM     10  C   UNL     1       1.320  -5.440  28.984  0.00  0.00    -0.002 C 
ATOM     11  C   UNL     1       1.206  -4.075  28.524  0.00  0.00    -0.004 C 
ATOM     12  C   UNL     1       2.097  -3.247  29.079  0.00  0.00    -0.023 C 
ATOM     13  C   UNL     1       2.631  -2.065  28.401  0.00  0.00    +0.071 C 
ATOM     14  C   UNL     1       2.854  -0.928  29.370  0.00  0.00    +0.177 C 
ATOM     15  C   UNL     1       4.336  -0.783  29.753  0.00  0.00    +0.052 C 
ATOM     16  O   UNL     1       2.419   0.146  28.565  0.00  0.00    -0.461 OA
ATOM     17  C   UNL     1       2.268   1.360  29.110  0.00  0.00    +0.311 C 
ATOM     18  O   UNL     1       2.040   1.633  30.276  0.00  0.00    -0.251 OA
ATOM     19  C   UNL     1       2.617   2.276  28.013  0.00  0.00    +0.167 C 
ATOM     20  C   UNL     1       4.069   1.847  27.594  0.00  0.00    +0.218 C 
BRANCH   8  21
ATOM     21  O   UNL     1       3.357  -7.315  28.576  0.00  0.00    -0.387 OA
ATOM     22  H   UNL     1       3.706  -6.413  28.723  0.00  0.00    +0.210 HD
ENDBRANCH   8  21
BRANCH   2  24
ATOM     23  C   UNL     1       3.743   2.570  24.478  0.00  0.00    +0.194 C 
ATOM     24  O   UNL     1       4.536   1.467  25.065  0.00  0.00    -0.374 OA
ENDBRANCH   2  24
BRANCH   4  25
ATOM     25  C   UNL     1       4.394  -3.832  24.134  0.00  0.00    +0.076 C 
BRANCH  25  26
ATOM     26  C   UNL     1       5.802  -4.599  23.947  0.00  0.00    +0.223 C 
ATOM     27  O   UNL     1       6.642  -4.783  24.823  0.00  0.00    -0.301 OA
ENDBRANCH  25  26
ENDBRANCH   4  25
BRANCH  20  28
ATOM     28  O   UNL     1       5.093   2.053  28.690  0.00  0.00    -0.458 OA
BRANCH  28  29
ATOM     29  C   UNL     1       6.382   2.522  28.355  0.00  0.00    +0.304 C 
ATOM     30  C   UNL     1       6.790   3.909  28.878  0.00  0.00    +0.136 C 
ATOM     31  O   UNL     1       7.180   1.902  27.650  0.00  0.00    -0.251 OA
ENDBRANCH  28  29
ENDBRANCH  20  28
ENDBRANCH   1   3
BRANCH   1  32
ATOM     32  C   UNL     1       7.267  -1.115  25.676  0.00  0.00    +0.281 C 
ATOM     33  C   UNL     1       8.791  -0.344  25.629  0.00  0.00    +0.190 C 
ATOM     34  C   UNL     1       8.967   0.956  24.725  0.00  0.00    +0.121 C 
ATOM     35  C   UNL     1       8.136   0.699  23.366  0.00  0.00    +0.169 C 
ATOM     36  C   UNL     1       7.112  -0.531  23.470  0.00  0.00    +0.149 C 
ATOM     37  C   UNL     1       6.333  -1.256  22.393  0.00  0.00    +0.041 C 
ATOM     38  O   UNL     1       7.447  -1.633  24.357  0.00  0.00    -0.343 OA
BRANCH  34  39
ATOM     39  N   UNL     1      10.442   1.562  24.663  0.00  0.00    -0.301 NA
ATOM     40  C   UNL     1      10.667   2.629  23.669  0.00  0.00    +0.105 C 
ATOM     41  C   UNL     1      11.615   0.690  24.490  0.00  0.00    +0.105 C 
ENDBRANCH  34  39
BRANCH  33  42
ATOM     42  O   UNL     1       9.472  -0.264  26.894  0.00  0.00    -0.385 OA
ATOM     43  H   UNL     1      10.233  -0.881  26.816  0.00  0.00    +0.210 HD
ENDBRANCH  33  42
BRANCH  35  44
ATOM     44  O   UNL     1       7.260   1.811  22.993  0.00  0.00    -0.344 OA
BRANCH  44  45
ATOM     45  C   UNL     1       7.516   3.145  23.423  0.00  0.00    +0.254 C 
ATOM     46  C   UNL     1       7.115   4.096  22.302  0.00  0.00    +0.099 C 
ATOM     47  C   UNL     1       7.155   5.610  22.654  0.00  0.00    +0.107 C 
ATOM     48  C   UNL     1       8.542   6.271  22.700  0.00  0.00    +0.045 C 
ATOM     49  C   UNL     1       6.456   5.782  24.010  0.00  0.00    +0.236 C 
ATOM     50  C   UNL     1       6.920   4.791  25.103  0.00  0.00    +0.162 C 
ATOM     51  C   UNL     1       8.289   5.114  25.704  0.00  0.00    +0.042 C 
ATOM     52  O   UNL     1       6.797   3.435  24.631  0.00  0.00    -0.345 OA
BRANCH  47  53
ATOM     53  O   UNL     1       6.473   6.272  21.607  0.00  0.00    -0.385 OA
ATOM     54  H   UNL     1       7.136   6.622  20.990  0.00  0.00    +0.210 HD
ENDBRANCH  47  53
BRANCH  49  55
ATOM     55  O   UNL     1       5.042   5.595  23.829  0.00  0.00    -0.456 OA
BRANCH  55  56
ATOM     56  C   UNL     1       4.228   6.474  24.384  0.00  0.00    +0.308 C 
ATOM     57  O   UNL     1       4.223   6.822  25.592  0.00  0.00    -0.251 OA
BRANCH  56  58
ATOM     58  C   UNL     1       3.255   7.090  23.417  0.00  0.00    +0.123 C 
BRANCH  58  59
ATOM     59  C   UNL     1       2.983   6.179  22.208  0.00  0.00    -0.007 C 
ATOM     60  C   UNL     1       2.971   7.077  20.977  0.00  0.00    +0.008 C 
ATOM     61  C   UNL     1       1.664   5.414  22.363  0.00  0.00    +0.008 C 
ENDBRANCH  58  59
ENDBRANCH  56  58
ENDBRANCH  55  56
ENDBRANCH  49  55
ENDBRANCH  44  45
ENDBRANCH  35  44
ENDBRANCH   1  32
TORSDOF 17
ENDMDL
MODEL 3
REMARK VINA RESULT:      -5.2      1.707      2.368
REMARK  Name = 
REMARK  28 active torsions:
REMARK  status: ('A' for Active; 'I' for Inactive)
REMARK    1  A    between atoms: C_1  and  O_2
REMARK    2  A    between atoms: O_2  and  C_3
REMARK    3  A    between atoms: C_5  and  O_7
REMARK    4  A    between atoms: O_7  and  C_8
REMARK    5  A    between atoms: C_8  and  C_10
REMARK    6  A    between atoms: C_15  and  C_17
REMARK    7  A    between atoms: C_23  and  O_25
REMARK    8  A    between atoms: C_26  and  C_28
REMARK    9  A    between atoms: C_30  and  C_32
REMARK   10  A    between atoms: C_32  and  C_33
REMARK   11  A    between atoms: C_35  and  O_37
REMARK   12  A    between atoms: O_37  and  C_38
REMARK   13  A    between atoms: C_41  and  C_43
REMARK   14  A    between atoms: C_44  and  O_46
REMARK   15  A    between atoms: O_46  and  C_47
REMARK   16  A    between atoms: C_50  and  C_52
REMARK   17  A    between atoms: C_53  and  O_55
REMARK   18  A    between atoms: O_55  and  C_56
REMARK   19  A    between atoms: C_56  and  C_58
REMARK   20  A    between atoms: C_58  and  C_59
REMARK   21  A    between atoms: C_59  and  C_60
REMARK   22  A    between atoms: C_59  and  C_61
REMARK   23  A    between atoms: C_62  and  C_63
REMARK   24  A    between atoms: C_62  and  O_64
REMARK   25  A    between atoms: C_66  and  N_68
REMARK   26  A    between atoms: N_68  and  C_69
REMARK   27  A    between atoms: N_68  and  C_70
REMARK   28  A    between atoms: C_71  and  O_73
REMARK                            x       y       z     vdW  Elec       q    Type
REMARK                         _______ _______ _______ _____ _____    ______ ____
ROOT
ATOM      1  O   UNL     1       4.390  -0.596  26.745  0.00  0.00    -0.343 OA
ENDROOT
BRANCH   1   3
ATOM      2  C   UNL     1       6.535  -1.558  26.379  0.00  0.00    +0.188 C 
ATOM      3  C   UNL     1       4.651  -2.017  26.393  0.00  0.00    +0.157 C 
ATOM      4  C   UNL     1       3.500  -3.515  27.162  0.00  0.00    +0.028 C 
ATOM      5  C   UNL     1       2.382  -4.861  26.346  0.00  0.00    +0.012 C 
ATOM      6  C   UNL     1       1.336  -6.413  26.724  0.00  0.00    +0.019 C 
ATOM      7  C   UNL     1       1.144  -7.484  27.946  0.00  0.00    +0.010 C 
ATOM      8  C   UNL     1       1.179  -7.486  25.530  0.00  0.00    +0.140 C 
ATOM      9  C   UNL     1       2.535  -8.111  25.342  0.00  0.00    +0.004 C 
ATOM     10  C   UNL     1       3.303  -7.589  24.390  0.00  0.00    -0.002 C 
ATOM     11  C   UNL     1       4.447  -6.832  24.845  0.00  0.00    -0.004 C 
ATOM     12  C   UNL     1       4.705  -5.753  24.101  0.00  0.00    -0.023 C 
ATOM     13  C   UNL     1       5.318  -4.534  24.632  0.00  0.00    +0.071 C 
ATOM     14  C   UNL     1       6.245  -3.899  23.622  0.00  0.00    +0.177 C 
ATOM     15  C   UNL     1       5.594  -2.691  22.929  0.00  0.00    +0.052 C 
ATOM     16  O   UNL     1       7.285  -3.500  24.487  0.00  0.00    -0.461 OA
ATOM     17  C   UNL     1       8.434  -3.045  23.971  0.00  0.00    +0.311 C 
ATOM     18  O   UNL     1       8.913  -3.292  22.877  0.00  0.00    -0.251 OA
ATOM     19  C   UNL     1       8.882  -2.047  24.955  0.00  0.00    +0.167 C 
ATOM     20  C   UNL     1       7.685  -1.035  25.058  0.00  0.00    +0.218 C 
BRANCH   8  21
ATOM     21  O   UNL     1       0.587  -6.916  24.377  0.00  0.00    -0.387 OA
ATOM     22  H   UNL     1      -0.302  -7.321  24.321  0.00  0.00    +0.210 HD
ENDBRANCH   8  21
BRANCH   2  24
ATOM     23  C   UNL     1       8.217  -0.017  27.805  0.00  0.00    +0.194 C 
ATOM     24  O   UNL     1       6.837  -0.402  27.433  0.00  0.00    -0.374 OA
ENDBRANCH   2  24
BRANCH   4  25
ATOM     25  C   UNL     1       2.421  -3.306  28.444  0.00  0.00    +0.076 C 
BRANCH  25  26
ATOM     26  C   UNL     1       2.843  -2.899  29.948  0.00  0.00    +0.223 C 
ATOM     27  O   UNL     1       3.921  -2.417  30.286  0.00  0.00    -0.301 OA
ENDBRANCH  25  26
ENDBRANCH   4  25
BRANCH  20  28
ATOM     28  O   UNL     1       7.413  -0.296  23.765  0.00  0.00    -0.458 OA
BRANCH  28  29
ATOM     29  C   UNL     1       8.483   0.324  23.083  0.00  0.00    +0.304 C 
ATOM     30  C   UNL     1       8.622   0.046  21.578  0.00  0.00    +0.136 C 
ATOM     31  O   UNL     1       9.321   1.045  23.627  0.00  0.00    -0.251 OA
ENDBRANCH  28  29
ENDBRANCH  20  28
ENDBRANCH   1   3
BRANCH   1  32
ATOM     32  C   UNL     1       3.082   0.025  27.053  0.00  0.00    +0.281 C 
ATOM     33  C   UNL     1       2.379   1.552  26.746  0.00  0.00    +0.190 C 
ATOM     34  C   UNL     1       3.332   2.823  26.609  0.00  0.00    +0.121 C 
ATOM     35  C   UNL     1       4.493   2.662  27.718  0.00  0.00    +0.169 C 
ATOM     36  C   UNL     1       4.588   1.182  28.328  0.00  0.00    +0.149 C 
ATOM     37  C   UNL     1       5.346   0.661  29.531  0.00  0.00    +0.041 C 
ATOM     38  O   UNL     1       3.372   0.388  28.404  0.00  0.00    -0.343 OA
BRANCH  34  39
ATOM     39  N   UNL     1       2.592   4.223  26.416  0.00  0.00    -0.301 NA
ATOM     40  C   UNL     1       2.523   4.738  25.035  0.00  0.00    +0.105 C 
ATOM     41  C   UNL     1       2.990   5.407  27.195  0.00  0.00    +0.105 C 
ENDBRANCH  34  39
BRANCH  33  42
ATOM     42  O   UNL     1       1.289   1.543  25.808  0.00  0.00    -0.385 OA
ATOM     43  H   UNL     1       0.478   1.469  26.358  0.00  0.00    +0.210 HD
ENDBRANCH  33  42
BRANCH  35  44
ATOM     44  O   UNL     1       5.841   2.876  27.192  0.00  0.00    -0.344 OA
BRANCH  44  45
ATOM     45  C   UNL     1       6.071   3.595  25.983  0.00  0.00    +0.254 C 
ATOM     46  C   UNL     1       6.408   5.038  26.340  0.00  0.00    +0.099 C 
ATOM     47  C   UNL     1       6.866   5.937  25.156  0.00  0.00    +0.107 C 
ATOM     48  C   UNL     1       5.766   6.443  24.209  0.00  0.00    +0.045 C 
ATOM     49  C   UNL     1       7.909   5.144  24.357  0.00  0.00    +0.236 C 
ATOM     50  C   UNL     1       7.495   3.692  24.021  0.00  0.00    +0.162 C 
ATOM     51  C   UNL     1       6.464   3.577  22.897  0.00  0.00    +0.042 C 
ATOM     52  O   UNL     1       7.126   2.988  25.224  0.00  0.00    -0.345 OA
BRANCH  47  53
ATOM     53  O   UNL     1       7.407   7.106  25.740  0.00  0.00    -0.385 OA
ATOM     54  H   UNL     1       8.289   6.890  26.082  0.00  0.00    +0.210 HD
ENDBRANCH  47  53
BRANCH  49  55
ATOM     55  O   UNL     1       9.126   5.081  25.120  0.00  0.00    -0.456 OA
BRANCH  55  56
ATOM     56  C   UNL     1      10.040   6.007  24.900  0.00  0.00    +0.308 C 
ATOM     57  O   UNL     1      10.401   6.902  25.707  0.00  0.00    -0.251 OA
BRANCH  56  58
ATOM     58  C   UNL     1      10.683   5.912  23.544  0.00  0.00    +0.123 C 
BRANCH  58  59
ATOM     59  C   UNL     1      11.948   5.037  23.561  0.00  0.00    -0.007 C 
ATOM     60  C   UNL     1      12.884   5.600  22.500  0.00  0.00    +0.008 C 
ATOM     61  C   UNL     1      11.618   3.563  23.301  0.00  0.00    +0.008 C 
ENDBRANCH  58  59
ENDBRANCH  56  58
ENDBRANCH  55  56
ENDBRANCH  49  55
ENDBRANCH  44  45
ENDBRANCH  35  44
ENDBRANCH   1  32
TORSDOF 17
ENDMDL
MODEL 4
REMARK VINA RESULT:      -4.9      2.434      6.328
REMARK  Name = 
REMARK  28 active torsions:
REMARK  status: ('A' for Active; 'I' for Inactive)
REMARK    1  A    between atoms: C_1  and  O_2
REMARK    2  A    between atoms: O_2  and  C_3
REMARK    3  A    between atoms: C_5  and  O_7
REMARK    4  A    between atoms: O_7  and  C_8
REMARK    5  A    between atoms: C_8  and  C_10
REMARK    6  A    between atoms: C_15  and  C_17
REMARK    7  A    between atoms: C_23  and  O_25
REMARK    8  A    between atoms: C_26  and  C_28
REMARK    9  A    between atoms: C_30  and  C_32
REMARK   10  A    between atoms: C_32  and  C_33
REMARK   11  A    between atoms: C_35  and  O_37
REMARK   12  A    between atoms: O_37  and  C_38
REMARK   13  A    between atoms: C_41  and  C_43
REMARK   14  A    between atoms: C_44  and  O_46
REMARK   15  A    between atoms: O_46  and  C_47
REMARK   16  A    between atoms: C_50  and  C_52
REMARK   17  A    between atoms: C_53  and  O_55
REMARK   18  A    between atoms: O_55  and  C_56
REMARK   19  A    between atoms: C_56  and  C_58
REMARK   20  A    between atoms: C_58  and  C_59
REMARK   21  A    between atoms: C_59  and  C_60
REMARK   22  A    between atoms: C_59  and  C_61
REMARK   23  A    between atoms: C_62  and  C_63
REMARK   24  A    between atoms: C_62  and  O_64
REMARK   25  A    between atoms: C_66  and  N_68
REMARK   26  A    between atoms: N_68  and  C_69
REMARK   27  A    between atoms: N_68  and  C_70
REMARK   28  A    between atoms: C_71  and  O_73
REMARK                            x       y       z     vdW  Elec       q    Type
REMARK                         _______ _______ _______ _____ _____    ______ ____
ROOT
ATOM      1  O   UNL     1       4.368  -0.752  27.523  0.00  0.00    -0.343 OA
ENDROOT
BRANCH   1   3
ATOM      2  C   UNL     1       3.996  -2.711  26.225  0.00  0.00    +0.188 C 
ATOM      3  C   UNL     1       5.098  -1.116  26.280  0.00  0.00    +0.157 C 
ATOM      4  C   UNL     1       5.693   0.316  24.956  0.00  0.00    +0.028 C 
ATOM      5  C   UNL     1       7.424   0.843  24.284  0.00  0.00    +0.012 C 
ATOM      6  C   UNL     1       8.290   1.976  23.013  0.00  0.00    +0.019 C 
ATOM      7  C   UNL     1       7.891   2.844  21.685  0.00  0.00    +0.010 C 
ATOM      8  C   UNL     1       9.728   1.483  22.470  0.00  0.00    +0.140 C 
ATOM      9  C   UNL     1       9.466   0.270  21.620  0.00  0.00    +0.004 C 
ATOM     10  C   UNL     1       9.603  -0.912  22.213  0.00  0.00    -0.002 C 
ATOM     11  C   UNL     1       8.380  -1.640  22.461  0.00  0.00    -0.004 C 
ATOM     12  C   UNL     1       8.377  -2.301  23.623  0.00  0.00    -0.023 C 
ATOM     13  C   UNL     1       7.165  -2.559  24.401  0.00  0.00    +0.071 C 
ATOM     14  C   UNL     1       7.222  -3.910  25.077  0.00  0.00    +0.177 C 
ATOM     15  C   UNL     1       7.572  -3.789  26.568  0.00  0.00    +0.052 C 
ATOM     16  O   UNL     1       5.883  -4.314  24.890  0.00  0.00    -0.461 OA
ATOM     17  C   UNL     1       5.527  -5.572  25.183  0.00  0.00    +0.311 C 
ATOM     18  O   UNL     1       6.233  -6.565  25.196  0.00  0.00    -0.251 OA
ATOM     19  C   UNL     1       4.139  -5.436  25.653  0.00  0.00    +0.167 C 
ATOM     20  C   UNL     1       4.228  -4.414  26.843  0.00  0.00    +0.218 C 
BRANCH   8  21
ATOM     21  O   UNL     1      10.666   1.324  23.518  0.00  0.00    -0.387 OA
ATOM     22  H   UNL     1      10.224   0.743  24.169  0.00  0.00    +0.210 HD
ENDBRANCH   8  21
BRANCH   2  24
ATOM     23  C   UNL     1       1.319  -2.973  26.267  0.00  0.00    +0.194 C 
ATOM     24  O   UNL     1       2.560  -2.420  26.853  0.00  0.00    -0.374 OA
ENDBRANCH   2  24
BRANCH   4  25
ATOM     25  C   UNL     1       5.153   1.916  24.998  0.00  0.00    +0.076 C 
BRANCH  25  26
ATOM     26  C   UNL     1       4.272   2.622  23.844  0.00  0.00    +0.223 C 
ATOM     27  O   UNL     1       4.703   3.072  22.786  0.00  0.00    -0.301 OA
ENDBRANCH  25  26
ENDBRANCH   4  25
BRANCH  20  28
ATOM     28  O   UNL     1       5.047  -4.925  28.010  0.00  0.00    -0.458 OA
BRANCH  28  29
ATOM     29  C   UNL     1       4.818  -6.230  28.499  0.00  0.00    +0.304 C 
ATOM     30  C   UNL     1       3.464  -6.507  29.172  0.00  0.00    +0.136 C 
ATOM     31  O   UNL     1       5.645  -7.142  28.443  0.00  0.00    -0.251 OA
ENDBRANCH  28  29
ENDBRANCH  20  28
ENDBRANCH   1   3
BRANCH   1  32
ATOM     32  C   UNL     1       2.926  -0.448  27.658  0.00  0.00    +0.281 C 
ATOM     33  C   UNL     1       1.954   0.917  27.325  0.00  0.00    +0.190 C 
ATOM     34  C   UNL     1       2.612   2.366  27.402  0.00  0.00    +0.121 C 
ATOM     35  C   UNL     1       3.614   2.361  28.667  0.00  0.00    +0.169 C 
ATOM     36  C   UNL     1       3.947   0.888  29.208  0.00  0.00    +0.149 C 
ATOM     37  C   UNL     1       4.626   0.440  30.484  0.00  0.00    +0.041 C 
ATOM     38  O   UNL     1       2.938  -0.147  29.054  0.00  0.00    -0.343 OA
BRANCH  34  39
ATOM     39  N   UNL     1       1.617   3.591  27.170  0.00  0.00    -0.301 NA
ATOM     40  C   UNL     1       1.924   4.472  26.026  0.00  0.00    +0.105 C 
ATOM     41  C   UNL     1       1.314   4.541  28.252  0.00  0.00    +0.105 C 
ENDBRANCH  34  39
BRANCH  33  42
ATOM     42  O   UNL     1       1.033   0.757  26.231  0.00  0.00    -0.385 OA
ATOM     43  H   UNL     1       1.251  -0.116  25.838  0.00  0.00    +0.210 HD
ENDBRANCH  33  42
BRANCH  35  44
ATOM     44  O   UNL     1       4.942   2.897  28.366  0.00  0.00    -0.344 OA
BRANCH  44  45
ATOM     45  C   UNL     1       5.198   4.299  28.338  0.00  0.00    +0.254 C 
ATOM     46  C   UNL     1       6.448   4.576  29.164  0.00  0.00    +0.099 C 
ATOM     47  C   UNL     1       6.988   6.033  29.104  0.00  0.00    +0.107 C 
ATOM     48  C   UNL     1       6.228   7.085  29.927  0.00  0.00    +0.045 C 
ATOM     49  C   UNL     1       7.010   6.451  27.626  0.00  0.00    +0.236 C 
ATOM     50  C   UNL     1       5.704   6.150  26.854  0.00  0.00    +0.162 C 
ATOM     51  C   UNL     1       4.554   7.108  27.167  0.00  0.00    +0.042 C 
ATOM     52  O   UNL     1       5.356   4.758  26.987  0.00  0.00    -0.345 OA
BRANCH  47  53
ATOM     53  O   UNL     1       8.283   5.993  29.673  0.00  0.00    -0.385 OA
ATOM     54  H   UNL     1       8.647   5.104  29.530  0.00  0.00    +0.210 HD
ENDBRANCH  47  53
BRANCH  49  55
ATOM     55  O   UNL     1       8.076   5.752  26.963  0.00  0.00    -0.456 OA
BRANCH  55  56
ATOM     56  C   UNL     1       9.099   6.461  26.524  0.00  0.00    +0.308 C 
ATOM     57  O   UNL     1      10.157   6.711  27.156  0.00  0.00    -0.251 OA
BRANCH  56  58
ATOM     58  C   UNL     1       8.922   6.972  25.120  0.00  0.00    +0.123 C 
BRANCH  58  59
ATOM     59  C   UNL     1       8.777   5.828  24.101  0.00  0.00    -0.007 C 
ATOM     60  C   UNL     1      10.170   5.245  23.897  0.00  0.00    +0.008 C 
ATOM     61  C   UNL     1       8.171   6.320  22.783  0.00  0.00    +0.008 C 
ENDBRANCH  58  59
ENDBRANCH  56  58
ENDBRANCH  55  56
ENDBRANCH  49  55
ENDBRANCH  44  45
ENDBRANCH  35  44
ENDBRANCH   1  32
TORSDOF 17
ENDMDL
MODEL 5
REMARK VINA RESULT:      -4.6      2.284      3.212
REMARK  Name = 
REMARK  28 active torsions:
REMARK  status: ('A' for Active; 'I' for Inactive)
REMARK    1  A    between atoms: C_1  and  O_2
REMARK    2  A    between atoms: O_2  and  C_3
REMARK    3  A    between atoms: C_5  and  O_7
REMARK    4  A    between atoms: O_7  and  C_8
REMARK    5  A    between atoms: C_8  and  C_10
REMARK    6  A    between atoms: C_15  and  C_17
REMARK    7  A    between atoms: C_23  and  O_25
REMARK    8  A    between atoms: C_26  and  C_28
REMARK    9  A    between atoms: C_30  and  C_32
REMARK   10  A    between atoms: C_32  and  C_33
REMARK   11  A    between atoms: C_35  and  O_37
REMARK   12  A    between atoms: O_37  and  C_38
REMARK   13  A    between atoms: C_41  and  C_43
REMARK   14  A    between atoms: C_44  and  O_46
REMARK   15  A    between atoms: O_46  and  C_47
REMARK   16  A    between atoms: C_50  and  C_52
REMARK   17  A    between atoms: C_53  and  O_55
REMARK   18  A    between atoms: O_55  and  C_56
REMARK   19  A    between atoms: C_56  and  C_58
REMARK   20  A    between atoms: C_58  and  C_59
REMARK   21  A    between atoms: C_59  and  C_60
REMARK   22  A    between atoms: C_59  and  C_61
REMARK   23  A    between atoms: C_62  and  C_63
REMARK   24  A    between atoms: C_62  and  O_64
REMARK   25  A    between atoms: C_66  and  N_68
REMARK   26  A    between atoms: N_68  and  C_69
REMARK   27  A    between atoms: N_68  and  C_70
REMARK   28  A    between atoms: C_71  and  O_73
REMARK                            x       y       z     vdW  Elec       q    Type
REMARK                         _______ _______ _______ _____ _____    ______ ____
ROOT
ATOM      1  O   UNL     1       3.958  -0.049  26.763  0.00  0.00    -0.343 OA
ENDROOT
BRANCH   1   3
ATOM      2  C   UNL     1       6.248  -0.691  26.801  0.00  0.00    +0.188 C 
ATOM      3  C   UNL     1       4.475  -1.419  26.507  0.00  0.00    +0.157 C 
ATOM      4  C   UNL     1       3.434  -3.064  27.113  0.00  0.00    +0.028 C 
ATOM      5  C   UNL     1       2.678  -4.564  26.161  0.00  0.00    +0.012 C 
ATOM      6  C   UNL     1       1.813  -6.249  26.403  0.00  0.00    +0.019 C 
ATOM      7  C   UNL     1       1.565  -7.329  27.607  0.00  0.00    +0.010 C 
ATOM      8  C   UNL     1       2.022  -7.341  25.233  0.00  0.00    +0.140 C 
ATOM      9  C   UNL     1       3.465  -7.763  25.301  0.00  0.00    +0.004 C 
ATOM     10  C   UNL     1       4.305  -7.141  24.480  0.00  0.00    -0.002 C 
ATOM     11  C   UNL     1       5.232  -6.223  25.100  0.00  0.00    -0.004 C 
ATOM     12  C   UNL     1       5.460  -5.122  24.378  0.00  0.00    -0.023 C 
ATOM     13  C   UNL     1       5.791  -3.824  24.967  0.00  0.00    +0.071 C 
ATOM     14  C   UNL     1       6.780  -3.067  24.111  0.00  0.00    +0.177 C 
ATOM     15  C   UNL     1       6.095  -1.971  23.278  0.00  0.00    +0.052 C 
ATOM     16  O   UNL     1       7.586  -2.516  25.129  0.00  0.00    -0.461 OA
ATOM     17  C   UNL     1       8.730  -1.901  24.804  0.00  0.00    +0.311 C 
ATOM     18  O   UNL     1       9.423  -2.084  23.817  0.00  0.00    -0.251 OA
ATOM     19  C   UNL     1       8.853  -0.842  25.818  0.00  0.00    +0.167 C 
ATOM     20  C   UNL     1       7.525  -0.015  25.682  0.00  0.00    +0.218 C 
BRANCH   8  21
ATOM     21  O   UNL     1       1.564  -6.871  23.979  0.00  0.00    -0.387 OA
ATOM     22  H   UNL     1       2.375  -6.631  23.486  0.00  0.00    +0.210 HD
ENDBRANCH   8  21
BRANCH   2  24
ATOM     23  C   UNL     1       7.226   0.676  28.902  0.00  0.00    +0.194 C 
ATOM     24  O   UNL     1       6.195   0.504  27.854  0.00  0.00    -0.374 OA
ENDBRANCH   2  24
BRANCH   4  25
ATOM     25  C   UNL     1       2.128  -3.006  28.184  0.00  0.00    +0.076 C 
BRANCH  25  26
ATOM     26  C   UNL     1       2.152  -3.567  29.697  0.00  0.00    +0.223 C 
ATOM     27  O   UNL     1       2.307  -4.739  30.026  0.00  0.00    -0.301 OA
ENDBRANCH  25  26
ENDBRANCH   4  25
BRANCH  20  28
ATOM     28  O   UNL     1       7.381   0.668  24.338  0.00  0.00    -0.458 OA
BRANCH  28  29
ATOM     29  C   UNL     1       8.509   1.278  23.747  0.00  0.00    +0.304 C 
ATOM     30  C   UNL     1       8.711   1.080  22.236  0.00  0.00    +0.136 C 
ATOM     31  O   UNL     1       9.347   1.929  24.372  0.00  0.00    -0.251 OA
ENDBRANCH  28  29
ENDBRANCH  20  28
ENDBRANCH   1   3
BRANCH   1  32
ATOM     32  C   UNL     1       2.549   0.401  26.705  0.00  0.00    +0.281 C 
ATOM     33  C   UNL     1       1.777   1.925  26.744  0.00  0.00    +0.190 C 
ATOM     34  C   UNL     1       2.483   3.126  27.518  0.00  0.00    +0.121 C 
ATOM     35  C   UNL     1       3.136   2.503  28.856  0.00  0.00    +0.169 C 
ATOM     36  C   UNL     1       3.232   0.902  28.830  0.00  0.00    +0.149 C 
ATOM     37  C   UNL     1       3.542  -0.081  29.939  0.00  0.00    +0.041 C 
ATOM     38  O   UNL     1       2.232   0.164  28.078  0.00  0.00    -0.343 OA
BRANCH  34  39
ATOM     39  N   UNL     1       1.654   4.487  27.585  0.00  0.00    -0.301 NA
ATOM     40  C   UNL     1       1.942   5.478  26.530  0.00  0.00    +0.105 C 
ATOM     41  C   UNL     1       1.629   5.302  28.811  0.00  0.00    +0.105 C 
ENDBRANCH  34  39
BRANCH  33  42
ATOM     42  O   UNL     1       1.150   2.321  25.511  0.00  0.00    -0.385 OA
ATOM     43  H   UNL     1       1.800   2.911  25.070  0.00  0.00    +0.210 HD
ENDBRANCH  33  42
BRANCH  35  44
ATOM     44  O   UNL     1       4.527   2.902  29.071  0.00  0.00    -0.344 OA
BRANCH  44  45
ATOM     45  C   UNL     1       4.938   4.265  29.001  0.00  0.00    +0.254 C 
ATOM     46  C   UNL     1       6.245   4.412  29.769  0.00  0.00    +0.099 C 
ATOM     47  C   UNL     1       6.943   5.797  29.655  0.00  0.00    +0.107 C 
ATOM     48  C   UNL     1       6.342   6.943  30.484  0.00  0.00    +0.045 C 
ATOM     49  C   UNL     1       6.949   6.185  28.169  0.00  0.00    +0.236 C 
ATOM     50  C   UNL     1       5.586   6.020  27.456  0.00  0.00    +0.162 C 
ATOM     51  C   UNL     1       4.565   7.108  27.794  0.00  0.00    +0.042 C 
ATOM     52  O   UNL     1       5.089   4.679  27.635  0.00  0.00    -0.345 OA
BRANCH  47  53
ATOM     53  O   UNL     1       8.248   5.621  30.172  0.00  0.00    -0.385 OA
ATOM     54  H   UNL     1       8.397   6.300  30.850  0.00  0.00    +0.210 HD
ENDBRANCH  47  53
BRANCH  49  55
ATOM     55  O   UNL     1       7.901   5.357  27.479  0.00  0.00    -0.456 OA
BRANCH  55  56
ATOM     56  C   UNL     1       8.197   5.668  26.231  0.00  0.00    +0.308 C 
ATOM     57  O   UNL     1       8.812   6.695  25.847  0.00  0.00    -0.251 OA
BRANCH  56  58
ATOM     58  C   UNL     1       7.743   4.643  25.228  0.00  0.00    +0.123 C 
BRANCH  58  59
ATOM     59  C   UNL     1       7.022   5.283  24.030  0.00  0.00    -0.007 C 
ATOM     60  C   UNL     1       5.573   4.817  24.090  0.00  0.00    +0.008 C 
ATOM     61  C   UNL     1       7.684   4.901  22.702  0.00  0.00    +0.008 C 
ENDBRANCH  58  59
ENDBRANCH  56  58
ENDBRANCH  55  56
ENDBRANCH  49  55
ENDBRANCH  44  45
ENDBRANCH  35  44
ENDBRANCH   1  32
TORSDOF 17
ENDMDL
MODEL 6
REMARK VINA RESULT:      -4.6      2.493     10.097
REMARK  Name = 
REMARK  28 active torsions:
REMARK  status: ('A' for Active; 'I' for Inactive)
REMARK    1  A    between atoms: C_1  and  O_2
REMARK    2  A    between atoms: O_2  and  C_3
REMARK    3  A    between atoms: C_5  and  O_7
REMARK    4  A    between atoms: O_7  and  C_8
REMARK    5  A    between atoms: C_8  and  C_10
REMARK    6  A    between atoms: C_15  and  C_17
REMARK    7  A    between atoms: C_23  and  O_25
REMARK    8  A    between atoms: C_26  and  C_28
REMARK    9  A    between atoms: C_30  and  C_32
REMARK   10  A    between atoms: C_32  and  C_33
REMARK   11  A    between atoms: C_35  and  O_37
REMARK   12  A    between atoms: O_37  and  C_38
REMARK   13  A    between atoms: C_41  and  C_43
REMARK   14  A    between atoms: C_44  and  O_46
REMARK   15  A    between atoms: O_46  and  C_47
REMARK   16  A    between atoms: C_50  and  C_52
REMARK   17  A    between atoms: C_53  and  O_55
REMARK   18  A    between atoms: O_55  and  C_56
REMARK   19  A    between atoms: C_56  and  C_58
REMARK   20  A    between atoms: C_58  and  C_59
REMARK   21  A    between atoms: C_59  and  C_60
REMARK   22  A    between atoms: C_59  and  C_61
REMARK   23  A    between atoms: C_62  and  C_63
REMARK   24  A    between atoms: C_62  and  O_64
REMARK   25  A    between atoms: C_66  and  N_68
REMARK   26  A    between atoms: N_68  and  C_69
REMARK   27  A    between atoms: N_68  and  C_70
REMARK   28  A    between atoms: C_71  and  O_73
REMARK                            x       y       z     vdW  Elec       q    Type
REMARK                         _______ _______ _______ _____ _____    ______ ____
ROOT
ATOM      1  O   UNL     1       5.934   1.375  26.645  0.00  0.00    -0.343 OA
ENDROOT
BRANCH   1   3
ATOM      2  C   UNL     1       4.751   2.426  28.421  0.00  0.00    +0.188 C 
ATOM      3  C   UNL     1       4.909   2.441  26.488  0.00  0.00    +0.157 C 
ATOM      4  C   UNL     1       5.082   3.855  25.030  0.00  0.00    +0.028 C 
ATOM      5  C   UNL     1       3.959   4.346  23.538  0.00  0.00    +0.012 C 
ATOM      6  C   UNL     1       3.751   5.629  22.138  0.00  0.00    +0.019 C 
ATOM      7  C   UNL     1       4.331   7.108  21.746  0.00  0.00    +0.010 C 
ATOM      8  C   UNL     1       2.246   5.892  21.619  0.00  0.00    +0.140 C 
ATOM      9  C   UNL     1       1.528   6.593  22.740  0.00  0.00    +0.004 C 
ATOM     10  C   UNL     1       0.809   5.827  23.555  0.00  0.00    -0.002 C 
ATOM     11  C   UNL     1       1.338   5.653  24.888  0.00  0.00    -0.004 C 
ATOM     12  C   UNL     1       1.160   4.423  25.379  0.00  0.00    -0.023 C 
ATOM     13  C   UNL     1       2.075   3.793  26.331  0.00  0.00    +0.071 C 
ATOM     14  C   UNL     1       1.329   2.934  27.326  0.00  0.00    +0.177 C 
ATOM     15  C   UNL     1       1.430   1.439  26.981  0.00  0.00    +0.052 C 
ATOM     16  O   UNL     1       2.061   3.248  28.491  0.00  0.00    -0.461 OA
ATOM     17  C   UNL     1       1.611   2.834  29.683  0.00  0.00    +0.311 C 
ATOM     18  O   UNL     1       0.462   2.584  30.003  0.00  0.00    -0.251 OA
ATOM     19  C   UNL     1       2.843   2.586  30.448  0.00  0.00    +0.167 C 
ATOM     20  C   UNL     1       3.642   1.550  29.578  0.00  0.00    +0.218 C 
BRANCH   8  21
ATOM     21  O   UNL     1       1.640   4.711  21.127  0.00  0.00    -0.387 OA
ATOM     22  H   UNL     1       1.391   4.202  21.924  0.00  0.00    +0.210 HD
ENDBRANCH   8  21
BRANCH   2  24
ATOM     23  C   UNL     1       7.074   3.084  29.607  0.00  0.00    +0.194 C 
ATOM     24  O   UNL     1       6.146   2.052  29.093  0.00  0.00    -0.374 OA
ENDBRANCH   2  24
BRANCH   4  25
ATOM     25  C   UNL     1       6.491   4.113  24.134  0.00  0.00    +0.076 C 
BRANCH  25  26
ATOM     26  C   UNL     1       7.241   5.535  23.984  0.00  0.00    +0.223 C 
ATOM     27  O   UNL     1       8.437   5.739  24.170  0.00  0.00    -0.301 OA
ENDBRANCH  25  26
ENDBRANCH   4  25
BRANCH  20  28
ATOM     28  O   UNL     1       2.932   0.220  29.431  0.00  0.00    -0.458 OA
BRANCH  28  29
ATOM     29  C   UNL     1       3.674  -0.924  29.064  0.00  0.00    +0.304 C 
ATOM     30  C   UNL     1       3.556  -1.409  27.610  0.00  0.00    +0.136 C 
ATOM     31  O   UNL     1       4.380  -1.566  29.842  0.00  0.00    -0.251 OA
ENDBRANCH  28  29
ENDBRANCH  20  28
ENDBRANCH   1   3
BRANCH   1  32
ATOM     32  C   UNL     1       7.392   1.495  26.419  0.00  0.00    +0.281 C 
ATOM     33  C   UNL     1       8.409   1.340  25.055  0.00  0.00    +0.190 C 
ATOM     34  C   UNL     1       7.963   0.374  23.869  0.00  0.00    +0.121 C 
ATOM     35  C   UNL     1       7.300  -0.930  24.550  0.00  0.00    +0.169 C 
ATOM     36  C   UNL     1       6.935  -0.724  26.098  0.00  0.00    +0.149 C 
ATOM     37  C   UNL     1       6.534  -1.729  27.156  0.00  0.00    +0.041 C 
ATOM     38  O   UNL     1       7.750   0.191  26.881  0.00  0.00    -0.343 OA
BRANCH  34  39
ATOM     39  N   UNL     1       9.011   0.214  22.677  0.00  0.00    -0.301 NA
ATOM     40  C   UNL     1       8.859   1.151  21.546  0.00  0.00    +0.105 C 
ATOM     41  C   UNL     1       9.214  -1.083  22.012  0.00  0.00    +0.105 C 
ENDBRANCH  34  39
BRANCH  33  42
ATOM     42  O   UNL     1       9.016   2.565  24.606  0.00  0.00    -0.385 OA
ATOM     43  H   UNL     1       8.300   3.237  24.650  0.00  0.00    +0.210 HD
ENDBRANCH  33  42
BRANCH  35  44
ATOM     44  O   UNL     1       6.011  -1.306  23.967  0.00  0.00    -0.344 OA
BRANCH  44  45
ATOM     45  C   UNL     1       5.621  -2.668  23.820  0.00  0.00    +0.254 C 
ATOM     46  C   UNL     1       6.819  -3.549  24.155  0.00  0.00    +0.099 C 
ATOM     47  C   UNL     1       6.537  -5.076  24.223  0.00  0.00    +0.107 C 
ATOM     48  C   UNL     1       6.390  -5.811  22.882  0.00  0.00    +0.045 C 
ATOM     49  C   UNL     1       5.263  -5.268  25.059  0.00  0.00    +0.236 C 
ATOM     50  C   UNL     1       4.085  -4.350  24.655  0.00  0.00    +0.162 C 
ATOM     51  C   UNL     1       3.373  -4.770  23.369  0.00  0.00    +0.042 C 
ATOM     52  O   UNL     1       4.503  -2.971  24.666  0.00  0.00    -0.345 OA
BRANCH  47  53
ATOM     53  O   UNL     1       7.674  -5.657  24.832  0.00  0.00    -0.385 OA
ATOM     54  H   UNL     1       8.462  -5.200  24.494  0.00  0.00    +0.210 HD
ENDBRANCH  47  53
BRANCH  49  55
ATOM     55  O   UNL     1       5.569  -4.999  26.437  0.00  0.00    -0.456 OA
BRANCH  55  56
ATOM     56  C   UNL     1       5.201  -5.894  27.336  0.00  0.00    +0.308 C 
ATOM     57  O   UNL     1       5.555  -7.099  27.373  0.00  0.00    -0.251 OA
BRANCH  56  58
ATOM     58  C   UNL     1       4.288  -5.343  28.397  0.00  0.00    +0.123 C 
BRANCH  58  59
ATOM     59  C   UNL     1       2.805  -5.582  28.066  0.00  0.00    -0.007 C 
ATOM     60  C   UNL     1       2.014  -4.501  28.793  0.00  0.00    +0.008 C 
ATOM     61  C   UNL     1       2.353  -6.987  28.478  0.00  0.00    +0.008 C 
ENDBRANCH  58  59
ENDBRANCH  56  58
ENDBRANCH  55  56
ENDBRANCH  49  55
ENDBRANCH  44  45
ENDBRANCH  35  44
ENDBRANCH   1  32
TORSDOF 17
ENDMDL
MODEL 7
REMARK VINA RESULT:      -4.5      2.608      7.060
REMARK  Name = 
REMARK  28 active torsions:
REMARK  status: ('A' for Active; 'I' for Inactive)
REMARK    1  A    between atoms: C_1  and  O_2
REMARK    2  A    between atoms: O_2  and  C_3
REMARK    3  A    between atoms: C_5  and  O_7
REMARK    4  A    between atoms: O_7  and  C_8
REMARK    5  A    between atoms: C_8  and  C_10
REMARK    6  A    between atoms: C_15  and  C_17
REMARK    7  A    between atoms: C_23  and  O_25
REMARK    8  A    between atoms: C_26  and  C_28
REMARK    9  A    between atoms: C_30  and  C_32
REMARK   10  A    between atoms: C_32  and  C_33
REMARK   11  A    between atoms: C_35  and  O_37
REMARK   12  A    between atoms: O_37  and  C_38
REMARK   13  A    between atoms: C_41  and  C_43
REMARK   14  A    between atoms: C_44  and  O_46
REMARK   15  A    between atoms: O_46  and  C_47
REMARK   16  A    between atoms: C_50  and  C_52
REMARK   17  A    between atoms: C_53  and  O_55
REMARK   18  A    between atoms: O_55  and  C_56
REMARK   19  A    between atoms: C_56  and  C_58
REMARK   20  A    between atoms: C_58  and  C_59
REMARK   21  A    between atoms: C_59  and  C_60
REMARK   22  A    between atoms: C_59  and  C_61
REMARK   23  A    between atoms: C_62  and  C_63
REMARK   24  A    between atoms: C_62  and  O_64
REMARK   25  A    between atoms: C_66  and  N_68
REMARK   26  A    between atoms: N_68  and  C_69
REMARK   27  A    between atoms: N_68  and  C_70
REMARK   28  A    between atoms: C_71  and  O_73
REMARK                            x       y       z     vdW  Elec       q    Type
REMARK                         _______ _______ _______ _____ _____    ______ ____
ROOT
ATOM      1  O   UNL     1       6.520  -1.919  26.298  0.00  0.00    -0.343 OA
ENDROOT
BRANCH   1   3
ATOM      2  C   UNL     1       5.420  -3.562  27.621  0.00  0.00    +0.188 C 
ATOM      3  C   UNL     1       5.351  -1.674  27.184  0.00  0.00    +0.157 C 
ATOM      4  C   UNL     1       5.167   0.076  28.215  0.00  0.00    +0.028 C 
ATOM      5  C   UNL     1       3.825   1.464  28.215  0.00  0.00    +0.012 C 
ATOM      6  C   UNL     1       3.289   3.072  29.093  0.00  0.00    +0.019 C 
ATOM      7  C   UNL     1       3.619   3.868  30.485  0.00  0.00    +0.010 C 
ATOM      8  C   UNL     1       1.713   3.417  29.069  0.00  0.00    +0.140 C 
ATOM      9  C   UNL     1       1.042   2.392  29.943  0.00  0.00    +0.004 C 
ATOM     10  C   UNL     1       0.529   1.331  29.328  0.00  0.00    -0.002 C 
ATOM     11  C   UNL     1       1.226   0.083  29.535  0.00  0.00    -0.004 C 
ATOM     12  C   UNL     1       1.270  -0.693  28.448  0.00  0.00    -0.023 C 
ATOM     13  C   UNL     1       2.365  -1.623  28.164  0.00  0.00    +0.071 C 
ATOM     14  C   UNL     1       1.858  -2.882  27.499  0.00  0.00    +0.177 C 
ATOM     15  C   UNL     1       2.116  -2.873  25.984  0.00  0.00    +0.052 C 
ATOM     16  O   UNL     1       2.671  -3.829  28.157  0.00  0.00    -0.461 OA
ATOM     17  C   UNL     1       2.420  -5.135  28.001  0.00  0.00    +0.311 C 
ATOM     18  O   UNL     1       1.359  -5.665  27.720  0.00  0.00    -0.251 OA
ATOM     19  C   UNL     1       3.754  -5.753  28.071  0.00  0.00    +0.167 C 
ATOM     20  C   UNL     1       4.577  -5.034  26.943  0.00  0.00    +0.218 C 
BRANCH   8  21
ATOM     21  O   UNL     1       1.216   3.537  27.749  0.00  0.00    -0.387 OA
ATOM     22  H   UNL     1       1.092   2.618  27.439  0.00  0.00    +0.210 HD
ENDBRANCH   8  21
BRANCH   2  24
ATOM     23  C   UNL     1       7.302  -5.286  26.772  0.00  0.00    +0.194 C 
ATOM     24  O   UNL     1       6.920  -4.095  27.564  0.00  0.00    -0.374 OA
ENDBRANCH   2  24
BRANCH   4  25
ATOM     25  C   UNL     1       6.417   1.198  28.391  0.00  0.00    +0.076 C 
BRANCH  25  26
ATOM     26  C   UNL     1       6.959   1.760  29.803  0.00  0.00    +0.223 C 
ATOM     27  O   UNL     1       7.779   2.661  29.951  0.00  0.00    -0.301 OA
ENDBRANCH  25  26
ENDBRANCH   4  25
BRANCH  20  28
ATOM     28  O   UNL     1       4.038  -5.294  25.551  0.00  0.00    -0.458 OA
BRANCH  28  29
ATOM     29  C   UNL     1       4.526  -6.395  24.814  0.00  0.00    +0.304 C 
ATOM     30  C   UNL     1       5.366  -6.093  23.562  0.00  0.00    +0.136 C 
ATOM     31  O   UNL     1       4.295  -7.572  25.096  0.00  0.00    -0.251 OA
ENDBRANCH  28  29
ENDBRANCH  20  28
ENDBRANCH   1   3
BRANCH   1  32
ATOM     32  C   UNL     1       6.507  -2.525  24.948  0.00  0.00    +0.281 C 
ATOM     33  C   UNL     1       7.587  -2.520  23.623  0.00  0.00    +0.190 C 
ATOM     34  C   UNL     1       8.550  -1.267  23.421  0.00  0.00    +0.121 C 
ATOM     35  C   UNL     1       7.690   0.049  23.783  0.00  0.00    +0.169 C 
ATOM     36  C   UNL     1       6.334  -0.275  24.575  0.00  0.00    +0.149 C 
ATOM     37  C   UNL     1       5.143   0.607  24.889  0.00  0.00    +0.041 C 
ATOM     38  O   UNL     1       5.676  -1.547  24.322  0.00  0.00    -0.343 OA
BRANCH  34  39
ATOM     39  N   UNL     1       9.459  -1.298  22.111  0.00  0.00    -0.301 NA
ATOM     40  C   UNL     1      10.919  -1.280  22.330  0.00  0.00    +0.105 C 
ATOM     41  C   UNL     1       9.271  -0.317  21.031  0.00  0.00    +0.105 C 
ENDBRANCH  34  39
BRANCH  33  42
ATOM     42  O   UNL     1       8.216  -3.784  23.346  0.00  0.00    -0.385 OA
ATOM     43  H   UNL     1       7.567  -4.463  23.634  0.00  0.00    +0.210 HD
ENDBRANCH  33  42
BRANCH  35  44
ATOM     44  O   UNL     1       8.377   0.968  24.693  0.00  0.00    -0.344 OA
BRANCH  44  45
ATOM     45  C   UNL     1       8.165   2.376  24.639  0.00  0.00    +0.254 C 
ATOM     46  C   UNL     1       7.522   2.714  23.300  0.00  0.00    +0.099 C 
ATOM     47  C   UNL     1       7.051   4.186  23.129  0.00  0.00    +0.107 C 
ATOM     48  C   UNL     1       8.143   5.232  22.853  0.00  0.00    +0.045 C 
ATOM     49  C   UNL     1       6.280   4.569  24.400  0.00  0.00    +0.236 C 
ATOM     50  C   UNL     1       6.997   4.207  25.722  0.00  0.00    +0.162 C 
ATOM     51  C   UNL     1       8.160   5.133  26.080  0.00  0.00    +0.042 C 
ATOM     52  O   UNL     1       7.342   2.807  25.733  0.00  0.00    -0.345 OA
BRANCH  47  53
ATOM     53  O   UNL     1       6.234   4.203  21.975  0.00  0.00    -0.385 OA
ATOM     54  H   UNL     1       6.363   3.365  21.503  0.00  0.00    +0.210 HD
ENDBRANCH  47  53
BRANCH  49  55
ATOM     55  O   UNL     1       5.013   3.890  24.395  0.00  0.00    -0.456 OA
BRANCH  55  56
ATOM     56  C   UNL     1       4.044   4.386  25.141  0.00  0.00    +0.308 C 
ATOM     57  O   UNL     1       3.067   3.750  25.611  0.00  0.00    -0.251 OA
BRANCH  56  58
ATOM     58  C   UNL     1       4.199   5.854  25.433  0.00  0.00    +0.123 C 
BRANCH  58  59
ATOM     59  C   UNL     1       3.944   6.180  26.915  0.00  0.00    -0.007 C 
ATOM     60  C   UNL     1       2.653   6.988  26.970  0.00  0.00    +0.008 C 
ATOM     61  C   UNL     1       5.117   6.946  27.534  0.00  0.00    +0.008 C 
ENDBRANCH  58  59
ENDBRANCH  56  58
ENDBRANCH  55  56
ENDBRANCH  49  55
ENDBRANCH  44  45
ENDBRANCH  35  44
ENDBRANCH   1  32
TORSDOF 17
ENDMDL
MODEL 8
REMARK VINA RESULT:      -4.3      2.513      6.190
REMARK  Name = 
REMARK  28 active torsions:
REMARK  status: ('A' for Active; 'I' for Inactive)
REMARK    1  A    between atoms: C_1  and  O_2
REMARK    2  A    between atoms: O_2  and  C_3
REMARK    3  A    between atoms: C_5  and  O_7
REMARK    4  A    between atoms: O_7  and  C_8
REMARK    5  A    between atoms: C_8  and  C_10
REMARK    6  A    between atoms: C_15  and  C_17
REMARK    7  A    between atoms: C_23  and  O_25
REMARK    8  A    between atoms: C_26  and  C_28
REMARK    9  A    between atoms: C_30  and  C_32
REMARK   10  A    between atoms: C_32  and  C_33
REMARK   11  A    between atoms: C_35  and  O_37
REMARK   12  A    between atoms: O_37  and  C_38
REMARK   13  A    between atoms: C_41  and  C_43
REMARK   14  A    between atoms: C_44  and  O_46
REMARK   15  A    between atoms: O_46  and  C_47
REMARK   16  A    between atoms: C_50  and  C_52
REMARK   17  A    between atoms: C_53  and  O_55
REMARK   18  A    between atoms: O_55  and  C_56
REMARK   19  A    between atoms: C_56  and  C_58
REMARK   20  A    between atoms: C_58  and  C_59
REMARK   21  A    between atoms: C_59  and  C_60
REMARK   22  A    between atoms: C_59  and  C_61
REMARK   23  A    between atoms: C_62  and  C_63
REMARK   24  A    between atoms: C_62  and  O_64
REMARK   25  A    between atoms: C_66  and  N_68
REMARK   26  A    between atoms: N_68  and  C_69
REMARK   27  A    between atoms: N_68  and  C_70
REMARK   28  A    between atoms: C_71  and  O_73
REMARK                            x       y       z     vdW  Elec       q    Type
REMARK                         _______ _______ _______ _____ _____    ______ ____
ROOT
ATOM      1  O   UNL     1       7.547  -1.446  25.901  0.00  0.00    -0.343 OA
ENDROOT
BRANCH   1   3
ATOM      2  C   UNL     1       6.878  -3.635  26.548  0.00  0.00    +0.188 C 
ATOM      3  C   UNL     1       6.248  -1.801  26.532  0.00  0.00    +0.157 C 
ATOM      4  C   UNL     1       5.343  -0.537  27.851  0.00  0.00    +0.028 C 
ATOM      5  C   UNL     1       3.630   0.354  27.850  0.00  0.00    +0.012 C 
ATOM      6  C   UNL     1       2.467   1.431  28.915  0.00  0.00    +0.019 C 
ATOM      7  C   UNL     1       2.308   1.865  30.485  0.00  0.00    +0.010 C 
ATOM      8  C   UNL     1       0.888   1.305  28.611  0.00  0.00    +0.140 C 
ATOM      9  C   UNL     1       0.477  -0.070  29.064  0.00  0.00    +0.004 C 
ATOM     10  C   UNL     1       0.443  -1.017  28.132  0.00  0.00    -0.002 C 
ATOM     11  C   UNL     1       1.478  -2.021  28.213  0.00  0.00    -0.004 C 
ATOM     12  C   UNL     1       1.936  -2.416  27.022  0.00  0.00    -0.023 C 
ATOM     13  C   UNL     1       3.307  -2.878  26.796  0.00  0.00    +0.071 C 
ATOM     14  C   UNL     1       3.351  -3.991  25.775  0.00  0.00    +0.177 C 
ATOM     15  C   UNL     1       3.809  -3.486  24.397  0.00  0.00    +0.052 C 
ATOM     16  O   UNL     1       4.329  -4.812  26.376  0.00  0.00    -0.461 OA
ATOM     17  C   UNL     1       4.553  -6.038  25.885  0.00  0.00    +0.311 C 
ATOM     18  O   UNL     1       3.782  -6.747  25.262  0.00  0.00    -0.251 OA
ATOM     19  C   UNL     1       5.991  -6.244  26.119  0.00  0.00    +0.167 C 
ATOM     20  C   UNL     1       6.683  -5.036  25.391  0.00  0.00    +0.218 C 
BRANCH   8  21
ATOM     21  O   UNL     1       0.577   1.643  27.271  0.00  0.00    -0.387 OA
ATOM     22  H   UNL     1       1.170   2.389  27.052  0.00  0.00    +0.210 HD
ENDBRANCH   8  21
BRANCH   2  24
ATOM     23  C   UNL     1       9.211  -4.957  26.770  0.00  0.00    +0.194 C 
ATOM     24  O   UNL     1       8.462  -3.682  26.717  0.00  0.00    -0.374 OA
ENDBRANCH   2  24
BRANCH   4  25
ATOM     25  C   UNL     1       6.108   0.798  28.547  0.00  0.00    +0.076 C 
BRANCH  25  26
ATOM     26  C   UNL     1       7.695   0.916  28.814  0.00  0.00    +0.223 C 
ATOM     27  O   UNL     1       8.222   1.359  29.830  0.00  0.00    -0.301 OA
ENDBRANCH  25  26
ENDBRANCH   4  25
BRANCH  20  28
ATOM     28  O   UNL     1       6.469  -5.039  23.892  0.00  0.00    -0.458 OA
BRANCH  28  29
ATOM     29  C   UNL     1       7.509  -5.481  23.045  0.00  0.00    +0.304 C 
ATOM     30  C   UNL     1       7.167  -5.716  21.565  0.00  0.00    +0.136 C 
ATOM     31  O   UNL     1       8.656  -5.715  23.427  0.00  0.00    -0.251 OA
ENDBRANCH  28  29
ENDBRANCH  20  28
ENDBRANCH   1   3
BRANCH   1  32
ATOM     32  C   UNL     1       7.917  -1.582  24.474  0.00  0.00    +0.281 C 
ATOM     33  C   UNL     1       9.035  -0.799  23.447  0.00  0.00    +0.190 C 
ATOM     34  C   UNL     1       9.435   0.713  23.756  0.00  0.00    +0.121 C 
ATOM     35  C   UNL     1       8.089   1.467  24.230  0.00  0.00    +0.169 C 
ATOM     36  C   UNL     1       6.900   0.462  24.618  0.00  0.00    +0.149 C 
ATOM     37  C   UNL     1       5.432   0.728  24.873  0.00  0.00    +0.041 C 
ATOM     38  O   UNL     1       6.834  -0.821  23.938  0.00  0.00    -0.343 OA
BRANCH  34  39
ATOM     39  N   UNL     1      10.411   1.400  22.698  0.00  0.00    -0.301 NA
ATOM     40  C   UNL     1      11.276   2.479  23.214  0.00  0.00    +0.105 C 
ATOM     41  C   UNL     1       9.896   1.958  21.438  0.00  0.00    +0.105 C 
ENDBRANCH  34  39
BRANCH  33  42
ATOM     42  O   UNL     1      10.141  -1.613  23.018  0.00  0.00    -0.385 OA
ATOM     43  H   UNL     1      10.363  -2.175  23.792  0.00  0.00    +0.210 HD
ENDBRANCH  33  42
BRANCH  35  44
ATOM     44  O   UNL     1       8.255   2.250  25.455  0.00  0.00    -0.344 OA
BRANCH  44  45
ATOM     45  C   UNL     1       8.035   3.657  25.483  0.00  0.00    +0.254 C 
ATOM     46  C   UNL     1       8.193   4.195  24.066  0.00  0.00    +0.099 C 
ATOM     47  C   UNL     1       7.814   5.690  23.865  0.00  0.00    +0.107 C 
ATOM     48  C   UNL     1       8.829   6.732  24.360  0.00  0.00    +0.045 C 
ATOM     49  C   UNL     1       6.463   5.916  24.559  0.00  0.00    +0.236 C 
ATOM     50  C   UNL     1       6.378   5.353  25.998  0.00  0.00    +0.162 C 
ATOM     51  C   UNL     1       7.119   6.188  27.043  0.00  0.00    +0.042 C 
ATOM     52  O   UNL     1       6.733   3.957  26.008  0.00  0.00    -0.345 OA
BRANCH  47  53
ATOM     53  O   UNL     1       7.742   5.890  22.466  0.00  0.00    -0.385 OA
ATOM     54  H   UNL     1       7.193   5.183  22.089  0.00  0.00    +0.210 HD
ENDBRANCH  47  53
BRANCH  49  55
ATOM     55  O   UNL     1       5.432   5.280  23.784  0.00  0.00    -0.456 OA
BRANCH  55  56
ATOM     56  C   UNL     1       4.178   5.477  24.147  0.00  0.00    +0.308 C 
ATOM     57  O   UNL     1       3.624   6.590  24.328  0.00  0.00    -0.251 OA
BRANCH  56  58
ATOM     58  C   UNL     1       3.393   4.206  24.323  0.00  0.00    +0.123 C 
BRANCH  58  59
ATOM     59  C   UNL     1       2.849   3.672  22.987  0.00  0.00    -0.007 C 
ATOM     60  C   UNL     1       3.014   4.791  21.967  0.00  0.00    +0.008 C 
ATOM     61  C   UNL     1       1.386   3.230  23.110  0.00  0.00    +0.008 C 
ENDBRANCH  58  59
ENDBRANCH  56  58
ENDBRANCH  55  56
ENDBRANCH  49  55
ENDBRANCH  44  45
ENDBRANCH  35  44
ENDBRANCH   1  32
TORSDOF 17
ENDMDL
MODEL 9
REMARK VINA RESULT:      -4.2      2.169      6.069
REMARK  Name = 
REMARK  28 active torsions:
REMARK  status: ('A' for Active; 'I' for Inactive)
REMARK    1  A    between atoms: C_1  and  O_2
REMARK    2  A    between atoms: O_2  and  C_3
REMARK    3  A    between atoms: C_5  and  O_7
REMARK    4  A    between atoms: O_7  and  C_8
REMARK    5  A    between atoms: C_8  and  C_10
REMARK    6  A    between atoms: C_15  and  C_17
REMARK    7  A    between atoms: C_23  and  O_25
REMARK    8  A    between atoms: C_26  and  C_28
REMARK    9  A    between atoms: C_30  and  C_32
REMARK   10  A    between atoms: C_32  and  C_33
REMARK   11  A    between atoms: C_35  and  O_37
REMARK   12  A    between atoms: O_37  and  C_38
REMARK   13  A    between atoms: C_41  and  C_43
REMARK   14  A    between atoms: C_44  and  O_46
REMARK   15  A    between atoms: O_46  and  C_47
REMARK   16  A    between atoms: C_50  and  C_52
REMARK   17  A    between atoms: C_53  and  O_55
REMARK   18  A    between atoms: O_55  and  C_56
REMARK   19  A    between atoms: C_56  and  C_58
REMARK   20  A    between atoms: C_58  and  C_59
REMARK   21  A    between atoms: C_59  and  C_60
REMARK   22  A    between atoms: C_59  and  C_61
REMARK   23  A    between atoms: C_62  and  C_63
REMARK   24  A    between atoms: C_62  and  O_64
REMARK   25  A    between atoms: C_66  and  N_68
REMARK   26  A    between atoms: N_68  and  C_69
REMARK   27  A    between atoms: N_68  and  C_70
REMARK   28  A    between atoms: C_71  and  O_73
REMARK                            x       y       z     vdW  Elec       q    Type
REMARK                         _______ _______ _______ _____ _____    ______ ____
ROOT
ATOM      1  O   UNL     1       5.882  -0.992  25.392  0.00  0.00    -0.343 OA
ENDROOT
BRANCH   1   3
ATOM      2  C   UNL     1       3.937  -0.123  26.451  0.00  0.00    +0.188 C 
ATOM      3  C   UNL     1       4.669  -1.775  25.747  0.00  0.00    +0.157 C 
ATOM      4  C   UNL     1       4.014  -3.292  24.553  0.00  0.00    +0.028 C 
ATOM      5  C   UNL     1       3.749  -5.180  24.855  0.00  0.00    +0.012 C 
ATOM      6  C   UNL     1       3.062  -6.774  24.060  0.00  0.00    +0.019 C 
ATOM      7  C   UNL     1       2.102  -7.191  22.802  0.00  0.00    +0.010 C 
ATOM      8  C   UNL     1       2.522  -7.910  25.071  0.00  0.00    +0.140 C 
ATOM      9  C   UNL     1       1.271  -7.358  25.699  0.00  0.00    +0.004 C 
ATOM     10  C   UNL     1       1.410  -6.771  26.884  0.00  0.00    -0.002 C 
ATOM     11  C   UNL     1       1.259  -5.335  26.900  0.00  0.00    -0.004 C 
ATOM     12  C   UNL     1       2.099  -4.717  27.735  0.00  0.00    -0.023 C 
ATOM     13  C   UNL     1       2.610  -3.364  27.513  0.00  0.00    +0.071 C 
ATOM     14  C   UNL     1       2.757  -2.610  28.815  0.00  0.00    +0.177 C 
ATOM     15  C   UNL     1       4.219  -2.563  29.286  0.00  0.00    +0.052 C 
ATOM     16  O   UNL     1       2.307  -1.340  28.394  0.00  0.00    -0.461 OA
ATOM     17  C   UNL     1       2.093  -0.383  29.305  0.00  0.00    +0.311 C 
ATOM     18  O   UNL     1       1.817  -0.520  30.485  0.00  0.00    -0.251 OA
ATOM     19  C   UNL     1       2.442   0.856  28.591  0.00  0.00    +0.167 C 
ATOM     20  C   UNL     1       3.921   0.629  28.116  0.00  0.00    +0.218 C 
BRANCH   8  21
ATOM     21  O   UNL     1       3.530  -8.350  25.962  0.00  0.00    -0.387 OA
ATOM     22  H   UNL     1       3.485  -9.327  25.935  0.00  0.00    +0.210 HD
ENDBRANCH   8  21
BRANCH   2  24
ATOM     23  C   UNL     1       3.605   2.248  25.224  0.00  0.00    +0.194 C 
ATOM     24  O   UNL     1       4.483   1.127  25.627  0.00  0.00    -0.374 OA
ENDBRANCH   2  24
BRANCH   4  25
ATOM     25  C   UNL     1       4.574  -3.559  22.982  0.00  0.00    +0.076 C 
BRANCH  25  26
ATOM     26  C   UNL     1       5.898  -4.402  22.606  0.00  0.00    +0.223 C 
ATOM     27  O   UNL     1       5.920  -5.558  22.194  0.00  0.00    -0.301 OA
ENDBRANCH  25  26
ENDBRANCH   4  25
BRANCH  20  28
ATOM     28  O   UNL     1       4.902   0.483  29.261  0.00  0.00    -0.458 OA
BRANCH  28  29
ATOM     29  C   UNL     1       6.011   1.353  29.339  0.00  0.00    +0.304 C 
ATOM     30  C   UNL     1       5.984   2.616  28.464  0.00  0.00    +0.136 C 
ATOM     31  O   UNL     1       7.003   1.145  30.039  0.00  0.00    -0.251 OA
ENDBRANCH  28  29
ENDBRANCH  20  28
ENDBRANCH   1   3
BRANCH   1  32
ATOM     32  C   UNL     1       7.294  -1.411  25.537  0.00  0.00    +0.281 C 
ATOM     33  C   UNL     1       8.791  -0.588  25.563  0.00  0.00    +0.190 C 
ATOM     34  C   UNL     1       8.928   0.784  24.764  0.00  0.00    +0.121 C 
ATOM     35  C   UNL     1       8.114   0.606  23.382  0.00  0.00    +0.169 C 
ATOM     36  C   UNL     1       7.131  -0.662  23.382  0.00  0.00    +0.149 C 
ATOM     37  C   UNL     1       6.383  -1.325  22.246  0.00  0.00    +0.041 C 
ATOM     38  O   UNL     1       7.498  -1.818  24.184  0.00  0.00    -0.343 OA
BRANCH  34  39
ATOM     39  N   UNL     1      10.382   1.440  24.762  0.00  0.00    -0.301 NA
ATOM     40  C   UNL     1      10.635   2.459  23.725  0.00  0.00    +0.105 C 
ATOM     41  C   UNL     1      11.593   0.606  24.714  0.00  0.00    +0.105 C 
ENDBRANCH  34  39
BRANCH  33  42
ATOM     42  O   UNL     1       9.462  -0.586  26.836  0.00  0.00    -0.385 OA
ATOM     43  H   UNL     1       8.891  -0.047  27.427  0.00  0.00    +0.210 HD
ENDBRANCH  33  42
BRANCH  35  44
ATOM     44  O   UNL     1       7.203   1.714  23.091  0.00  0.00    -0.344 OA
BRANCH  44  45
ATOM     45  C   UNL     1       7.464   3.039  23.543  0.00  0.00    +0.254 C 
ATOM     46  C   UNL     1       7.614   3.942  22.325  0.00  0.00    +0.099 C 
ATOM     47  C   UNL     1       7.726   5.464  22.621  0.00  0.00    +0.107 C 
ATOM     48  C   UNL     1       9.081   5.968  23.143  0.00  0.00    +0.045 C 
ATOM     49  C   UNL     1       6.623   5.816  23.630  0.00  0.00    +0.236 C 
ATOM     50  C   UNL     1       6.536   4.864  24.846  0.00  0.00    +0.162 C 
ATOM     51  C   UNL     1       7.635   5.076  25.889  0.00  0.00    +0.042 C 
ATOM     52  O   UNL     1       6.410   3.499  24.402  0.00  0.00    -0.345 OA
BRANCH  47  53
ATOM     53  O   UNL     1       7.551   6.118  21.379  0.00  0.00    -0.385 OA
ATOM     54  H   UNL     1       8.266   6.767  21.278  0.00  0.00    +0.210 HD
ENDBRANCH  47  53
BRANCH  49  55
ATOM     55  O   UNL     1       5.352   5.775  22.958  0.00  0.00    -0.456 OA
BRANCH  55  56
ATOM     56  C   UNL     1       4.279   6.116  23.648  0.00  0.00    +0.308 C 
ATOM     57  O   UNL     1       4.205   7.039  24.498  0.00  0.00    -0.251 OA
BRANCH  56  58
ATOM     58  C   UNL     1       3.064   5.294  23.319  0.00  0.00    +0.123 C 
BRANCH  58  59
ATOM     59  C   UNL     1       1.757   6.016  23.692  0.00  0.00    -0.007 C 
ATOM     60  C   UNL     1       1.134   5.229  24.838  0.00  0.00    +0.008 C 
ATOM     61  C   UNL     1       0.807   6.119  22.494  0.00  0.00    +0.008 C 
ENDBRANCH  58  59
ENDBRANCH  56  58
ENDBRANCH  55  56
ENDBRANCH  49  55
ENDBRANCH  44  45
ENDBRANCH  35  44
ENDBRANCH   1  32
TORSDOF 17
ENDMDL
