MODEL 1
REMARK VINA RESULT:      -4.9      0.000      0.000
REMARK  Name = 
REMARK  8 active torsions:
REMARK  status: ('A' for Active; 'I' for Inactive)
REMARK    1  A    between atoms: C_1  and  C_2
REMARK    2  A    between atoms: C_2  and  C_3
REMARK    3  A    between atoms: C_3  and  C_4
REMARK    4  A    between atoms: C_4  and  C_5
REMARK    5  A    between atoms: C_5  and  C_6
REMARK    6  A    between atoms: C_6  and  C_7
REMARK    7  A    between atoms: C_7  and  C_8
REMARK    8  A    between atoms: C_11  and  O_12
REMARK                            x       y       z     vdW  Elec       q    Type
REMARK                         _______ _______ _______ _____ _____    ______ ____
ROOT
ATOM      1  C   UNL     1       9.866  -1.510  23.374  0.00  0.00    -0.047 A 
ATOM      2  C   UNL     1       9.492  -1.370  22.031  0.00  0.00    +0.007 A 
ATOM      3  C   UNL     1       9.526  -0.118  21.414  0.00  0.00    +0.045 A 
ATOM      4  C   UNL     1       9.931   0.997  22.139  0.00  0.00    +0.117 A 
ATOM      5  C   UNL     1      10.310   0.878  23.472  0.00  0.00    +0.045 A 
ATOM      6  C   UNL     1      10.275  -0.374  24.089  0.00  0.00    +0.007 A 
ENDROOT
BRANCH   4   7
ATOM      7  O   UNL     1       9.934   2.203  21.502  0.00  0.00    -0.507 OA
ATOM      8  H   UNL     1      10.049   2.047  20.551  0.00  0.00    +0.292 HD
ENDBRANCH   4   7
BRANCH   1   9
ATOM      9  C   UNL     1       9.788  -2.856  24.052  0.00  0.00    +0.035 C 
BRANCH   9  10
ATOM     10  C   UNL     1       8.719  -2.866  25.145  0.00  0.00    +0.005 C 
BRANCH  10  11
ATOM     11  C   UNL     1       8.036  -4.231  25.258  0.00  0.00    +0.000 C 
BRANCH  11  12
ATOM     12  C   UNL     1       8.118  -4.993  23.934  0.00  0.00    +0.000 C 
BRANCH  12  13
ATOM     13  C   UNL     1       6.778  -4.995  23.194  0.00  0.00    -0.000 C 
BRANCH  13  15
ATOM     14  C   UNL     1       5.989  -2.708  22.477  0.00  0.00    +0.004 C 
ATOM     15  C   UNL     1       6.768  -3.950  22.077  0.00  0.00    -0.003 C 
ENDBRANCH  13  15
ENDBRANCH  12  13
ENDBRANCH  11  12
ENDBRANCH  10  11
ENDBRANCH   9  10
ENDBRANCH   1   9
TORSDOF 7
ENDMDL
MODEL 2
REMARK VINA RESULT:      -4.8      1.501      2.334
REMARK  Name = 
REMARK  8 active torsions:
REMARK  status: ('A' for Active; 'I' for Inactive)
REMARK    1  A    between atoms: C_1  and  C_2
REMARK    2  A    between atoms: C_2  and  C_3
REMARK    3  A    between atoms: C_3  and  C_4
REMARK    4  A    between atoms: C_4  and  C_5
REMARK    5  A    between atoms: C_5  and  C_6
REMARK    6  A    between atoms: C_6  and  C_7
REMARK    7  A    between atoms: C_7  and  C_8
REMARK    8  A    between atoms: C_11  and  O_12
REMARK                            x       y       z     vdW  Elec       q    Type
REMARK                         _______ _______ _______ _____ _____    ______ ____
ROOT
ATOM      1  C   UNL     1       9.828  -1.486  23.412  0.00  0.00    -0.047 A 
ATOM      2  C   UNL     1      10.263  -0.345  24.101  0.00  0.00    +0.007 A 
ATOM      3  C   UNL     1      10.317   0.892  23.458  0.00  0.00    +0.045 A 
ATOM      4  C   UNL     1       9.939   0.992  22.124  0.00  0.00    +0.117 A 
ATOM      5  C   UNL     1       9.501  -0.126  21.424  0.00  0.00    +0.045 A 
ATOM      6  C   UNL     1       9.447  -1.365  22.067  0.00  0.00    +0.007 A 
ENDROOT
BRANCH   4   7
ATOM      7  O   UNL     1      10.022   2.217  21.530  0.00  0.00    -0.507 OA
ATOM      8  H   UNL     1       9.639   2.153  20.640  0.00  0.00    +0.292 HD
ENDBRANCH   4   7
BRANCH   1   9
ATOM      9  C   UNL     1       9.811  -2.830  24.096  0.00  0.00    +0.035 C 
BRANCH   9  10
ATOM     10  C   UNL     1       8.508  -3.580  23.815  0.00  0.00    +0.005 C 
BRANCH  10  11
ATOM     11  C   UNL     1       7.508  -3.431  24.964  0.00  0.00    +0.000 C 
BRANCH  11  12
ATOM     12  C   UNL     1       6.112  -3.102  24.433  0.00  0.00    +0.000 C 
BRANCH  12  13
ATOM     13  C   UNL     1       6.100  -1.801  23.628  0.00  0.00    -0.000 C 
BRANCH  13  15
ATOM     14  C   UNL     1       6.586   0.674  23.733  0.00  0.00    +0.004 C 
ATOM     15  C   UNL     1       6.340  -0.593  24.536  0.00  0.00    -0.003 C 
ENDBRANCH  13  15
ENDBRANCH  12  13
ENDBRANCH  11  12
ENDBRANCH  10  11
ENDBRANCH   9  10
ENDBRANCH   1   9
TORSDOF 7
ENDMDL
MODEL 3
REMARK VINA RESULT:      -4.8      1.802      2.586
REMARK  Name = 
REMARK  8 active torsions:
REMARK  status: ('A' for Active; 'I' for Inactive)
REMARK    1  A    between atoms: C_1  and  C_2
REMARK    2  A    between atoms: C_2  and  C_3
REMARK    3  A    between atoms: C_3  and  C_4
REMARK    4  A    between atoms: C_4  and  C_5
REMARK    5  A    between atoms: C_5  and  C_6
REMARK    6  A    between atoms: C_6  and  C_7
REMARK    7  A    between atoms: C_7  and  C_8
REMARK    8  A    between atoms: C_11  and  O_12
REMARK                            x       y       z     vdW  Elec       q    Type
REMARK                         _______ _______ _______ _____ _____    ______ ____
ROOT
ATOM      1  C   UNL     1      10.263  -0.281  22.788  0.00  0.00    -0.047 A 
ATOM      2  C   UNL     1       9.683   0.444  21.738  0.00  0.00    +0.007 A 
ATOM      3  C   UNL     1       9.474   1.819  21.859  0.00  0.00    +0.045 A 
ATOM      4  C   UNL     1       9.841   2.472  23.030  0.00  0.00    +0.117 A 
ATOM      5  C   UNL     1      10.421   1.771  24.082  0.00  0.00    +0.045 A 
ATOM      6  C   UNL     1      10.630   0.395  23.961  0.00  0.00    +0.007 A 
ENDROOT
BRANCH   4   7
ATOM      7  O   UNL     1       9.605   3.812  23.111  0.00  0.00    -0.507 OA
ATOM      8  H   UNL     1      10.058   4.156  23.898  0.00  0.00    +0.292 HD
ENDBRANCH   4   7
BRANCH   1   9
ATOM      9  C   UNL     1      10.449  -1.774  22.673  0.00  0.00    +0.035 C 
BRANCH   9  10
ATOM     10  C   UNL     1       9.823  -2.505  23.862  0.00  0.00    +0.005 C 
BRANCH  10  11
ATOM     11  C   UNL     1       8.406  -2.989  23.548  0.00  0.00    +0.000 C 
BRANCH  11  12
ATOM     12  C   UNL     1       7.363  -2.114  24.246  0.00  0.00    +0.000 C 
BRANCH  12  13
ATOM     13  C   UNL     1       6.677  -1.156  23.270  0.00  0.00    -0.000 C 
BRANCH  13  15
ATOM     14  C   UNL     1       7.205   0.329  25.241  0.00  0.00    +0.004 C 
ATOM     15  C   UNL     1       6.657   0.270  23.825  0.00  0.00    -0.003 C 
ENDBRANCH  13  15
ENDBRANCH  12  13
ENDBRANCH  11  12
ENDBRANCH  10  11
ENDBRANCH   9  10
ENDBRANCH   1   9
TORSDOF 7
ENDMDL
MODEL 4
REMARK VINA RESULT:      -4.8      1.284      1.827
REMARK  Name = 
REMARK  8 active torsions:
REMARK  status: ('A' for Active; 'I' for Inactive)
REMARK    1  A    between atoms: C_1  and  C_2
REMARK    2  A    between atoms: C_2  and  C_3
REMARK    3  A    between atoms: C_3  and  C_4
REMARK    4  A    between atoms: C_4  and  C_5
REMARK    5  A    between atoms: C_5  and  C_6
REMARK    6  A    between atoms: C_6  and  C_7
REMARK    7  A    between atoms: C_7  and  C_8
REMARK    8  A    between atoms: C_11  and  O_12
REMARK                            x       y       z     vdW  Elec       q    Type
REMARK                         _______ _______ _______ _____ _____    ______ ____
ROOT
ATOM      1  C   UNL     1      10.254  -0.452  23.057  0.00  0.00    -0.047 A 
ATOM      2  C   UNL     1       9.865   0.242  21.903  0.00  0.00    +0.007 A 
ATOM      3  C   UNL     1       9.781   1.636  21.911  0.00  0.00    +0.045 A 
ATOM      4  C   UNL     1      10.080   2.338  23.072  0.00  0.00    +0.117 A 
ATOM      5  C   UNL     1      10.471   1.668  24.227  0.00  0.00    +0.045 A 
ATOM      6  C   UNL     1      10.556   0.274  24.219  0.00  0.00    +0.007 A 
ENDROOT
BRANCH   4   7
ATOM      7  O   UNL     1       9.969   3.696  23.040  0.00  0.00    -0.507 OA
ATOM      8  H   UNL     1      10.835   4.080  23.254  0.00  0.00    +0.292 HD
ENDBRANCH   4   7
BRANCH   1   9
ATOM      9  C   UNL     1      10.304  -1.960  23.060  0.00  0.00    +0.035 C 
BRANCH   9  10
ATOM     10  C   UNL     1       9.300  -2.547  24.054  0.00  0.00    +0.005 C 
BRANCH  10  11
ATOM     11  C   UNL     1       7.857  -2.369  23.577  0.00  0.00    +0.000 C 
BRANCH  11  12
ATOM     12  C   UNL     1       7.498  -3.419  22.523  0.00  0.00    +0.000 C 
BRANCH  12  13
ATOM     13  C   UNL     1       7.327  -4.809  23.139  0.00  0.00    -0.000 C 
BRANCH  13  15
ATOM     14  C   UNL     1       6.221  -5.676  21.043  0.00  0.00    +0.004 C 
ATOM     15  C   UNL     1       7.331  -5.892  22.058  0.00  0.00    -0.003 C 
ENDBRANCH  13  15
ENDBRANCH  12  13
ENDBRANCH  11  12
ENDBRANCH  10  11
ENDBRANCH   9  10
ENDBRANCH   1   9
TORSDOF 7
ENDMDL
MODEL 5
REMARK VINA RESULT:      -4.5      3.333      5.112
REMARK  Name = 
REMARK  8 active torsions:
REMARK  status: ('A' for Active; 'I' for Inactive)
REMARK    1  A    between atoms: C_1  and  C_2
REMARK    2  A    between atoms: C_2  and  C_3
REMARK    3  A    between atoms: C_3  and  C_4
REMARK    4  A    between atoms: C_4  and  C_5
REMARK    5  A    between atoms: C_5  and  C_6
REMARK    6  A    between atoms: C_6  and  C_7
REMARK    7  A    between atoms: C_7  and  C_8
REMARK    8  A    between atoms: C_11  and  O_12
REMARK                            x       y       z     vdW  Elec       q    Type
REMARK                         _______ _______ _______ _____ _____    ______ ____
ROOT
ATOM      1  C   UNL     1      10.162   2.036  23.139  0.00  0.00    -0.047 A 
ATOM      2  C   UNL     1       9.543   1.771  21.910  0.00  0.00    +0.007 A 
ATOM      3  C   UNL     1       9.431   0.461  21.442  0.00  0.00    +0.045 A 
ATOM      4  C   UNL     1       9.941  -0.587  22.200  0.00  0.00    +0.117 A 
ATOM      5  C   UNL     1      10.555  -0.346  23.424  0.00  0.00    +0.045 A 
ATOM      6  C   UNL     1      10.668   0.965  23.892  0.00  0.00    +0.007 A 
ENDROOT
BRANCH   4   7
ATOM      7  O   UNL     1       9.824  -1.850  21.698  0.00  0.00    -0.507 OA
ATOM      8  H   UNL     1       9.949  -1.811  20.736  0.00  0.00    +0.292 HD
ENDBRANCH   4   7
BRANCH   1   9
ATOM      9  C   UNL     1      10.321   3.456  23.624  0.00  0.00    +0.035 C 
BRANCH   9  10
ATOM     10  C   UNL     1       8.964   4.148  23.769  0.00  0.00    +0.005 C 
BRANCH  10  11
ATOM     11  C   UNL     1       8.374   3.953  25.167  0.00  0.00    +0.000 C 
BRANCH  11  12
ATOM     12  C   UNL     1       7.189   2.986  25.128  0.00  0.00    +0.000 C 
BRANCH  12  13
ATOM     13  C   UNL     1       7.465   1.715  25.934  0.00  0.00    -0.000 C 
BRANCH  13  15
ATOM     14  C   UNL     1       6.510   0.781  23.793  0.00  0.00    +0.004 C 
ATOM     15  C   UNL     1       7.265   0.466  25.074  0.00  0.00    -0.003 C 
ENDBRANCH  13  15
ENDBRANCH  12  13
ENDBRANCH  11  12
ENDBRANCH  10  11
ENDBRANCH   9  10
ENDBRANCH   1   9
TORSDOF 7
ENDMDL
MODEL 6
REMARK VINA RESULT:      -4.5      2.749      4.910
REMARK  Name = 
REMARK  8 active torsions:
REMARK  status: ('A' for Active; 'I' for Inactive)
REMARK    1  A    between atoms: C_1  and  C_2
REMARK    2  A    between atoms: C_2  and  C_3
REMARK    3  A    between atoms: C_3  and  C_4
REMARK    4  A    between atoms: C_4  and  C_5
REMARK    5  A    between atoms: C_5  and  C_6
REMARK    6  A    between atoms: C_6  and  C_7
REMARK    7  A    between atoms: C_7  and  C_8
REMARK    8  A    between atoms: C_11  and  O_12
REMARK                            x       y       z     vdW  Elec       q    Type
REMARK                         _______ _______ _______ _____ _____    ______ ____
ROOT
ATOM      1  C   UNL     1      10.046   0.820  22.917  0.00  0.00    -0.047 A 
ATOM      2  C   UNL     1      10.106   0.413  24.257  0.00  0.00    +0.007 A 
ATOM      3  C   UNL     1      10.079  -0.943  24.587  0.00  0.00    +0.045 A 
ATOM      4  C   UNL     1       9.989  -1.895  23.579  0.00  0.00    +0.117 A 
ATOM      5  C   UNL     1       9.933  -1.513  22.243  0.00  0.00    +0.045 A 
ATOM      6  C   UNL     1       9.960  -0.156  21.913  0.00  0.00    +0.007 A 
ENDROOT
BRANCH   4   7
ATOM      7  O   UNL     1       9.949  -3.208  23.946  0.00  0.00    -0.507 OA
ATOM      8  H   UNL     1      10.637  -3.361  24.614  0.00  0.00    +0.292 HD
ENDBRANCH   4   7
BRANCH   1   9
ATOM      9  C   UNL     1      10.033   2.287  22.564  0.00  0.00    +0.035 C 
BRANCH   9  10
ATOM     10  C   UNL     1       8.753   2.964  23.055  0.00  0.00    +0.005 C 
BRANCH  10  11
ATOM     11  C   UNL     1       7.619   2.843  22.035  0.00  0.00    +0.000 C 
BRANCH  11  12
ATOM     12  C   UNL     1       6.621   1.761  22.454  0.00  0.00    +0.000 C 
BRANCH  12  13
ATOM     13  C   UNL     1       6.369   1.773  23.964  0.00  0.00    -0.000 C 
BRANCH  13  15
ATOM     14  C   UNL     1       6.526  -0.692  23.447  0.00  0.00    +0.004 C 
ATOM     15  C   UNL     1       6.434   0.358  24.541  0.00  0.00    -0.003 C 
ENDBRANCH  13  15
ENDBRANCH  12  13
ENDBRANCH  11  12
ENDBRANCH  10  11
ENDBRANCH   9  10
ENDBRANCH   1   9
TORSDOF 7
ENDMDL
MODEL 7
REMARK VINA RESULT:      -4.5      3.399      5.063
REMARK  Name = 
REMARK  8 active torsions:
REMARK  status: ('A' for Active; 'I' for Inactive)
REMARK    1  A    between atoms: C_1  and  C_2
REMARK    2  A    between atoms: C_2  and  C_3
REMARK    3  A    between atoms: C_3  and  C_4
REMARK    4  A    between atoms: C_4  and  C_5
REMARK    5  A    between atoms: C_5  and  C_6
REMARK    6  A    between atoms: C_6  and  C_7
REMARK    7  A    between atoms: C_7  and  C_8
REMARK    8  A    between atoms: C_11  and  O_12
REMARK                            x       y       z     vdW  Elec       q    Type
REMARK                         _______ _______ _______ _____ _____    ______ ____
ROOT
ATOM      1  C   UNL     1       8.434  -3.038  24.821  0.00  0.00    -0.047 A 
ATOM      2  C   UNL     1       7.504  -2.878  25.857  0.00  0.00    +0.007 A 
ATOM      3  C   UNL     1       7.308  -3.894  26.795  0.00  0.00    +0.045 A 
ATOM      4  C   UNL     1       8.038  -5.072  26.696  0.00  0.00    +0.117 A 
ATOM      5  C   UNL     1       8.968  -5.249  25.677  0.00  0.00    +0.045 A 
ATOM      6  C   UNL     1       9.164  -4.233  24.739  0.00  0.00    +0.007 A 
ENDROOT
BRANCH   4   7
ATOM      7  O   UNL     1       7.804  -6.045  27.623  0.00  0.00    -0.507 OA
ATOM      8  H   UNL     1       7.911  -6.909  27.195  0.00  0.00    +0.292 HD
ENDBRANCH   4   7
BRANCH   1   9
ATOM      9  C   UNL     1       8.614  -1.956  23.784  0.00  0.00    +0.035 C 
BRANCH   9  10
ATOM     10  C   UNL     1       7.894  -2.310  22.481  0.00  0.00    +0.005 C 
BRANCH  10  11
ATOM     11  C   UNL     1       6.376  -2.171  22.617  0.00  0.00    +0.000 C 
BRANCH  11  12
ATOM     12  C   UNL     1       5.668  -3.447  22.157  0.00  0.00    +0.000 C 
BRANCH  12  13
ATOM     13  C   UNL     1       6.652  -4.598  21.939  0.00  0.00    -0.000 C 
BRANCH  13  15
ATOM     14  C   UNL     1       5.305  -5.379  23.925  0.00  0.00    +0.004 C 
ATOM     15  C   UNL     1       6.380  -5.744  22.915  0.00  0.00    -0.003 C 
ENDBRANCH  13  15
ENDBRANCH  12  13
ENDBRANCH  11  12
ENDBRANCH  10  11
ENDBRANCH   9  10
ENDBRANCH   1   9
TORSDOF 7
ENDMDL
MODEL 8
REMARK VINA RESULT:      -4.4      1.567      2.485
REMARK  Name = 
REMARK  8 active torsions:
REMARK  status: ('A' for Active; 'I' for Inactive)
REMARK    1  A    between atoms: C_1  and  C_2
REMARK    2  A    between atoms: C_2  and  C_3
REMARK    3  A    between atoms: C_3  and  C_4
REMARK    4  A    between atoms: C_4  and  C_5
REMARK    5  A    between atoms: C_5  and  C_6
REMARK    6  A    between atoms: C_6  and  C_7
REMARK    7  A    between atoms: C_7  and  C_8
REMARK    8  A    between atoms: C_11  and  O_12
REMARK                            x       y       z     vdW  Elec       q    Type
REMARK                         _______ _______ _______ _____ _____    ______ ____
ROOT
ATOM      1  C   UNL     1      10.022  -0.382  22.735  0.00  0.00    -0.047 A 
ATOM      2  C   UNL     1       9.714   0.509  21.699  0.00  0.00    +0.007 A 
ATOM      3  C   UNL     1       9.867   1.885  21.880  0.00  0.00    +0.045 A 
ATOM      4  C   UNL     1      10.325   2.372  23.098  0.00  0.00    +0.117 A 
ATOM      5  C   UNL     1      10.641   1.505  24.138  0.00  0.00    +0.045 A 
ATOM      6  C   UNL     1      10.488   0.128  23.957  0.00  0.00    +0.007 A 
ENDROOT
BRANCH   4   7
ATOM      7  O   UNL     1      10.445   3.724  23.238  0.00  0.00    -0.507 OA
ATOM      8  H   UNL     1      10.046   4.149  22.462  0.00  0.00    +0.292 HD
ENDBRANCH   4   7
BRANCH   1   9
ATOM      9  C   UNL     1       9.816  -1.866  22.553  0.00  0.00    +0.035 C 
BRANCH   9  10
ATOM     10  C   UNL     1       9.896  -2.607  23.888  0.00  0.00    +0.005 C 
BRANCH  10  11
ATOM     11  C   UNL     1       8.515  -3.056  24.371  0.00  0.00    +0.000 C 
BRANCH  11  12
ATOM     12  C   UNL     1       8.419  -4.582  24.407  0.00  0.00    +0.000 C 
BRANCH  12  13
ATOM     13  C   UNL     1       8.946  -5.155  25.725  0.00  0.00    -0.000 C 
BRANCH  13  15
ATOM     14  C   UNL     1       6.490  -5.558  26.144  0.00  0.00    +0.004 C 
ATOM     15  C   UNL     1       7.834  -5.231  26.773  0.00  0.00    -0.003 C 
ENDBRANCH  13  15
ENDBRANCH  12  13
ENDBRANCH  11  12
ENDBRANCH  10  11
ENDBRANCH   9  10
ENDBRANCH   1   9
TORSDOF 7
ENDMDL
MODEL 9
REMARK VINA RESULT:      -4.4      1.786      3.150
REMARK  Name = 
REMARK  8 active torsions:
REMARK  status: ('A' for Active; 'I' for Inactive)
REMARK    1  A    between atoms: C_1  and  C_2
REMARK    2  A    between atoms: C_2  and  C_3
REMARK    3  A    between atoms: C_3  and  C_4
REMARK    4  A    between atoms: C_4  and  C_5
REMARK    5  A    between atoms: C_5  and  C_6
REMARK    6  A    between atoms: C_6  and  C_7
REMARK    7  A    between atoms: C_7  and  C_8
REMARK    8  A    between atoms: C_11  and  O_12
REMARK                            x       y       z     vdW  Elec       q    Type
REMARK                         _______ _______ _______ _____ _____    ______ ____
ROOT
ATOM      1  C   UNL     1      10.247  -0.274  22.858  0.00  0.00    -0.047 A 
ATOM      2  C   UNL     1      10.747   0.411  23.974  0.00  0.00    +0.007 A 
ATOM      3  C   UNL     1      10.608   1.797  24.075  0.00  0.00    +0.045 A 
ATOM      4  C   UNL     1       9.972   2.501  23.059  0.00  0.00    +0.117 A 
ATOM      5  C   UNL     1       9.465   1.840  21.945  0.00  0.00    +0.045 A 
ATOM      6  C   UNL     1       9.604   0.453  21.845  0.00  0.00    +0.007 A 
ENDROOT
BRANCH   4   7
ATOM      7  O   UNL     1       9.872   3.854  23.190  0.00  0.00    -0.507 OA
ATOM      8  H   UNL     1       8.932   4.088  23.257  0.00  0.00    +0.292 HD
ENDBRANCH   4   7
BRANCH   1   9
ATOM      9  C   UNL     1      10.435  -1.765  22.731  0.00  0.00    +0.035 C 
BRANCH   9  10
ATOM     10  C   UNL     1       9.735  -2.513  23.867  0.00  0.00    +0.005 C 
BRANCH  10  11
ATOM     11  C   UNL     1       8.213  -2.486  23.711  0.00  0.00    +0.000 C 
BRANCH  11  12
ATOM     12  C   UNL     1       7.529  -2.318  25.069  0.00  0.00    +0.000 C 
BRANCH  12  13
ATOM     13  C   UNL     1       8.508  -1.850  26.147  0.00  0.00    -0.000 C 
BRANCH  13  15
ATOM     14  C   UNL     1       6.952   0.129  25.966  0.00  0.00    +0.004 C 
ATOM     15  C   UNL     1       8.291  -0.373  26.481  0.00  0.00    -0.003 C 
ENDBRANCH  13  15
ENDBRANCH  12  13
ENDBRANCH  11  12
ENDBRANCH  10  11
ENDBRANCH   9  10
ENDBRANCH   1   9
TORSDOF 7
ENDMDL
