MODEL 1
REMARK VINA RESULT:      -7.7      0.000      0.000
REMARK  Name = 
REMARK  3 active torsions:
REMARK  status: ('A' for Active; 'I' for Inactive)
REMARK    1  A    between atoms: C_4  and  N_20
REMARK    2  A    between atoms: C_6  and  C_8
REMARK    3  A    between atoms: N_10  and  C_11
REMARK                            x       y       z     vdW  Elec       q    Type
REMARK                         _______ _______ _______ _____ _____    ______ ____
ROOT
ATOM      1  C   UNL     1       8.286  -2.525  23.199  0.00  0.00    +0.248 C 
ATOM      2  N   UNL     1       7.724  -1.317  22.797  0.00  0.00    -0.281 N 
ATOM      3  H   UNL     1       6.847  -1.342  22.297  0.00  0.00    +0.155 HD
ATOM      4  O   UNL     1       9.436  -2.681  23.604  0.00  0.00    -0.270 OA
ENDROOT
BRANCH   2   5
ATOM      5  C   UNL     1       8.408  -0.071  22.831  0.00  0.00    +0.034 A 
ATOM      6  C   UNL     1       8.123   0.824  23.877  0.00  0.00    +0.033 A 
ATOM      7  C   UNL     1       8.731   2.104  23.893  0.00  0.00    +0.001 A 
ATOM      8  C   UNL     1       9.632   2.432  22.883  0.00  0.00    +0.047 A 
ATOM      9  N   UNL     1      10.071   3.717  23.115  0.00  0.00    -0.361 N 
ATOM     10  H   UNL     1      10.731   4.209  22.530  0.00  0.00    +0.165 HD
ATOM     11  C   UNL     1       9.470   4.221  24.236  0.00  0.00    +0.083 A 
ATOM     12  C   UNL     1       9.968   1.551  21.859  0.00  0.00    +0.028 A 
ATOM     13  C   UNL     1       8.639   3.244  24.743  0.00  0.00    +0.027 A 
ATOM     14  C   UNL     1       9.341   0.301  21.860  0.00  0.00    +0.025 A 
ENDBRANCH   2   5
BRANCH   1  18
ATOM     15  F   UNL     1       5.969  -6.070  20.749  0.00  0.00    -0.205 F 
ATOM     16  C   UNL     1       6.293  -5.470  21.904  0.00  0.00    +0.126 A 
ATOM     17  C   UNL     1       7.154  -4.375  21.876  0.00  0.00    +0.051 A 
ATOM     18  C   UNL     1       7.462  -3.754  23.079  0.00  0.00    +0.041 A 
ATOM     19  C   UNL     1       6.897  -4.240  24.272  0.00  0.00    +0.036 A 
ATOM     20  C   UNL     1       6.018  -5.331  24.313  0.00  0.00    +0.033 A 
ATOM     21  C   UNL     1       5.737  -5.951  23.095  0.00  0.00    +0.061 A 
BRANCH  20  22
ATOM     22  N   UNL     1       5.524  -5.749  25.537  0.00  0.00    -0.325 N 
ATOM     23  C   UNL     1       4.557  -6.873  25.545  0.00  0.00    +0.133 C 
ATOM     24  C   UNL     1       3.678  -6.770  26.804  0.00  0.00    +0.178 C 
ATOM     25  O   UNL     1       4.471  -6.728  28.003  0.00  0.00    -0.377 OA
ATOM     26  C   UNL     1       5.382  -5.614  27.965  0.00  0.00    +0.178 C 
ATOM     27  C   UNL     1       6.338  -5.709  26.760  0.00  0.00    +0.133 C 
ENDBRANCH  20  22
ENDBRANCH   1  18
TORSDOF 3
ENDMDL
MODEL 2
REMARK VINA RESULT:      -7.4      2.633      3.484
REMARK  Name = 
REMARK  3 active torsions:
REMARK  status: ('A' for Active; 'I' for Inactive)
REMARK    1  A    between atoms: C_4  and  N_20
REMARK    2  A    between atoms: C_6  and  C_8
REMARK    3  A    between atoms: N_10  and  C_11
REMARK                            x       y       z     vdW  Elec       q    Type
REMARK                         _______ _______ _______ _____ _____    ______ ____
ROOT
ATOM      1  C   UNL     1       9.091  -0.688  23.443  0.00  0.00    +0.248 C 
ATOM      2  N   UNL     1       9.158   0.310  24.411  0.00  0.00    -0.281 N 
ATOM      3  H   UNL     1       8.883   0.078  25.355  0.00  0.00    +0.155 HD
ATOM      4  O   UNL     1       9.167  -0.514  22.228  0.00  0.00    -0.270 OA
ENDROOT
BRANCH   2   5
ATOM      5  C   UNL     1       9.360   1.687  24.121  0.00  0.00    +0.034 A 
ATOM      6  C   UNL     1      10.663   2.129  23.833  0.00  0.00    +0.033 A 
ATOM      7  C   UNL     1      10.905   3.509  23.617  0.00  0.00    +0.001 A 
ATOM      8  C   UNL     1       9.832   4.395  23.661  0.00  0.00    +0.047 A 
ATOM      9  N   UNL     1      10.324   5.661  23.435  0.00  0.00    -0.361 N 
ATOM     10  H   UNL     1       9.759   6.498  23.416  0.00  0.00    +0.165 HD
ATOM     11  C   UNL     1      11.680   5.610  23.257  0.00  0.00    +0.083 A 
ATOM     12  C   UNL     1       8.524   3.980  23.901  0.00  0.00    +0.028 A 
ATOM     13  C   UNL     1      12.069   4.291  23.360  0.00  0.00    +0.027 A 
ATOM     14  C   UNL     1       8.316   2.616  24.125  0.00  0.00    +0.025 A 
ENDBRANCH   2   5
BRANCH   1  18
ATOM     15  F   UNL     1      10.386  -5.030  25.289  0.00  0.00    -0.205 F 
ATOM     16  C   UNL     1       9.462  -4.219  24.752  0.00  0.00    +0.126 A 
ATOM     17  C   UNL     1       9.808  -2.901  24.465  0.00  0.00    +0.051 A 
ATOM     18  C   UNL     1       8.845  -2.081  23.890  0.00  0.00    +0.041 A 
ATOM     19  C   UNL     1       7.569  -2.605  23.614  0.00  0.00    +0.036 A 
ATOM     20  C   UNL     1       7.213  -3.934  23.883  0.00  0.00    +0.033 A 
ATOM     21  C   UNL     1       8.189  -4.733  24.477  0.00  0.00    +0.061 A 
BRANCH  20  22
ATOM     22  N   UNL     1       5.927  -4.355  23.592  0.00  0.00    -0.325 N 
ATOM     23  C   UNL     1       4.818  -3.396  23.811  0.00  0.00    +0.133 C 
ATOM     24  C   UNL     1       3.517  -4.179  24.057  0.00  0.00    +0.178 C 
ATOM     25  O   UNL     1       3.237  -5.095  22.985  0.00  0.00    -0.377 OA
ATOM     26  C   UNL     1       4.327  -6.020  22.816  0.00  0.00    +0.178 C 
ATOM     27  C   UNL     1       5.643  -5.288  22.491  0.00  0.00    +0.133 C 
ENDBRANCH  20  22
ENDBRANCH   1  18
TORSDOF 3
ENDMDL
MODEL 3
REMARK VINA RESULT:      -7.4      3.137      8.915
REMARK  Name = 
REMARK  3 active torsions:
REMARK  status: ('A' for Active; 'I' for Inactive)
REMARK    1  A    between atoms: C_4  and  N_20
REMARK    2  A    between atoms: C_6  and  C_8
REMARK    3  A    between atoms: N_10  and  C_11
REMARK                            x       y       z     vdW  Elec       q    Type
REMARK                         _______ _______ _______ _____ _____    ______ ____
ROOT
ATOM      1  C   UNL     1       7.780  -1.083  23.494  0.00  0.00    +0.248 C 
ATOM      2  N   UNL     1       8.175  -2.412  23.612  0.00  0.00    -0.281 N 
ATOM      3  H   UNL     1       9.164  -2.614  23.652  0.00  0.00    +0.155 HD
ATOM      4  O   UNL     1       6.649  -0.694  23.205  0.00  0.00    -0.270 OA
ENDROOT
BRANCH   2   5
ATOM      5  C   UNL     1       7.300  -3.520  23.444  0.00  0.00    +0.034 A 
ATOM      6  C   UNL     1       6.629  -4.024  24.571  0.00  0.00    +0.033 A 
ATOM      7  C   UNL     1       5.812  -5.176  24.447  0.00  0.00    +0.001 A 
ATOM      8  C   UNL     1       5.664  -5.763  23.192  0.00  0.00    +0.047 A 
ATOM      9  N   UNL     1       4.842  -6.858  23.336  0.00  0.00    -0.361 N 
ATOM     10  H   UNL     1       4.570  -7.471  22.581  0.00  0.00    +0.165 HD
ATOM     11  C   UNL     1       4.468  -6.992  24.646  0.00  0.00    +0.083 A 
ATOM     12  C   UNL     1       6.282  -5.260  22.050  0.00  0.00    +0.028 A 
ATOM     13  C   UNL     1       5.049  -5.962  25.357  0.00  0.00    +0.027 A 
ATOM     14  C   UNL     1       7.094  -4.133  22.204  0.00  0.00    +0.025 A 
ENDBRANCH   2   5
BRANCH   1  18
ATOM     15  F   UNL     1      12.187   0.624  24.760  0.00  0.00    -0.205 F 
ATOM     16  C   UNL     1      10.939   0.833  24.314  0.00  0.00    +0.126 A 
ATOM     17  C   UNL     1      10.105  -0.264  24.109  0.00  0.00    +0.051 A 
ATOM     18  C   UNL     1       8.810  -0.028  23.667  0.00  0.00    +0.041 A 
ATOM     19  C   UNL     1       8.385   1.295  23.448  0.00  0.00    +0.036 A 
ATOM     20  C   UNL     1       9.209   2.408  23.665  0.00  0.00    +0.033 A 
ATOM     21  C   UNL     1      10.510   2.147  24.091  0.00  0.00    +0.061 A 
BRANCH  20  22
ATOM     22  N   UNL     1       8.708   3.673  23.406  0.00  0.00    -0.325 N 
ATOM     23  C   UNL     1       7.310   3.778  22.925  0.00  0.00    +0.133 C 
ATOM     24  C   UNL     1       7.153   5.078  22.118  0.00  0.00    +0.178 C 
ATOM     25  O   UNL     1       7.551   6.230  22.882  0.00  0.00    -0.377 OA
ATOM     26  C   UNL     1       8.918   6.098  23.314  0.00  0.00    +0.178 C 
ATOM     27  C   UNL     1       9.114   4.847  24.192  0.00  0.00    +0.133 C 
ENDBRANCH  20  22
ENDBRANCH   1  18
TORSDOF 3
ENDMDL
MODEL 4
REMARK VINA RESULT:      -7.3      2.578      3.267
REMARK  Name = 
REMARK  3 active torsions:
REMARK  status: ('A' for Active; 'I' for Inactive)
REMARK    1  A    between atoms: C_4  and  N_20
REMARK    2  A    between atoms: C_6  and  C_8
REMARK    3  A    between atoms: N_10  and  C_11
REMARK                            x       y       z     vdW  Elec       q    Type
REMARK                         _______ _______ _______ _____ _____    ______ ____
ROOT
ATOM      1  C   UNL     1       6.946  -2.521  24.468  0.00  0.00    +0.248 C 
ATOM      2  N   UNL     1       8.295  -2.380  24.157  0.00  0.00    -0.281 N 
ATOM      3  H   UNL     1       8.953  -3.016  24.584  0.00  0.00    +0.155 HD
ATOM      4  O   UNL     1       6.063  -1.702  24.220  0.00  0.00    -0.270 OA
ENDROOT
BRANCH   2   5
ATOM      5  C   UNL     1       8.840  -1.262  23.467  0.00  0.00    +0.034 A 
ATOM      6  C   UNL     1       9.311  -0.172  24.218  0.00  0.00    +0.033 A 
ATOM      7  C   UNL     1       9.787   0.986  23.555  0.00  0.00    +0.001 A 
ATOM      8  C   UNL     1       9.810   1.002  22.163  0.00  0.00    +0.047 A 
ATOM      9  N   UNL     1      10.298   2.227  21.765  0.00  0.00    -0.361 N 
ATOM     10  H   UNL     1      10.417   2.509  20.803  0.00  0.00    +0.165 HD
ATOM     11  C   UNL     1      10.577   2.996  22.862  0.00  0.00    +0.083 A 
ATOM     12  C   UNL     1       9.390  -0.080  21.392  0.00  0.00    +0.028 A 
ATOM     13  C   UNL     1      10.277   2.254  23.985  0.00  0.00    +0.027 A 
ATOM     14  C   UNL     1       8.912  -1.203  22.072  0.00  0.00    +0.025 A 
ENDBRANCH   2   5
BRANCH   1  18
ATOM     15  F   UNL     1       7.392  -5.954  27.926  0.00  0.00    -0.205 F 
ATOM     16  C   UNL     1       6.742  -5.436  26.873  0.00  0.00    +0.126 A 
ATOM     17  C   UNL     1       7.197  -4.241  26.322  0.00  0.00    +0.051 A 
ATOM     18  C   UNL     1       6.524  -3.730  25.219  0.00  0.00    +0.041 A 
ATOM     19  C   UNL     1       5.422  -4.431  24.698  0.00  0.00    +0.036 A 
ATOM     20  C   UNL     1       4.963  -5.642  25.234  0.00  0.00    +0.033 A 
ATOM     21  C   UNL     1       5.642  -6.126  26.351  0.00  0.00    +0.061 A 
BRANCH  20  22
ATOM     22  N   UNL     1       3.858  -6.252  24.663  0.00  0.00    -0.325 N 
ATOM     23  C   UNL     1       3.613  -6.025  23.218  0.00  0.00    +0.133 C 
ATOM     24  C   UNL     1       2.113  -6.206  22.929  0.00  0.00    +0.178 C 
ATOM     25  O   UNL     1       1.639  -7.492  23.364  0.00  0.00    -0.377 OA
ATOM     26  C   UNL     1       1.878  -7.665  24.773  0.00  0.00    +0.178 C 
ATOM     27  C   UNL     1       3.379  -7.569  25.107  0.00  0.00    +0.133 C 
ENDBRANCH  20  22
ENDBRANCH   1  18
TORSDOF 3
ENDMDL
MODEL 5
REMARK VINA RESULT:      -7.1      3.265      8.586
REMARK  Name = 
REMARK  3 active torsions:
REMARK  status: ('A' for Active; 'I' for Inactive)
REMARK    1  A    between atoms: C_4  and  N_20
REMARK    2  A    between atoms: C_6  and  C_8
REMARK    3  A    between atoms: N_10  and  C_11
REMARK                            x       y       z     vdW  Elec       q    Type
REMARK                         _______ _______ _______ _____ _____    ______ ____
ROOT
ATOM      1  C   UNL     1       8.053  -1.970  24.066  0.00  0.00    +0.248 C 
ATOM      2  N   UNL     1       7.248  -2.272  22.972  0.00  0.00    -0.281 N 
ATOM      3  H   UNL     1       7.097  -1.553  22.278  0.00  0.00    +0.155 HD
ATOM      4  O   UNL     1       8.147  -2.640  25.093  0.00  0.00    -0.270 OA
ENDROOT
BRANCH   2   5
ATOM      5  C   UNL     1       6.435  -3.435  22.878  0.00  0.00    +0.034 A 
ATOM      6  C   UNL     1       5.098  -3.357  23.301  0.00  0.00    +0.033 A 
ATOM      7  C   UNL     1       4.287  -4.520  23.291  0.00  0.00    +0.001 A 
ATOM      8  C   UNL     1       4.831  -5.714  22.824  0.00  0.00    +0.047 A 
ATOM      9  N   UNL     1       3.860  -6.685  22.926  0.00  0.00    -0.361 N 
ATOM     10  H   UNL     1       3.988  -7.650  22.658  0.00  0.00    +0.165 HD
ATOM     11  C   UNL     1       2.717  -6.148  23.452  0.00  0.00    +0.083 A 
ATOM     12  C   UNL     1       6.140  -5.812  22.358  0.00  0.00    +0.028 A 
ATOM     13  C   UNL     1       2.948  -4.808  23.684  0.00  0.00    +0.027 A 
ATOM     14  C   UNL     1       6.921  -4.653  22.393  0.00  0.00    +0.025 A 
ENDBRANCH   2   5
BRANCH   1  18
ATOM     15  F   UNL     1      12.016   0.805  24.795  0.00  0.00    -0.205 F 
ATOM     16  C   UNL     1      10.734   0.677  24.422  0.00  0.00    +0.126 A 
ATOM     17  C   UNL     1      10.160  -0.592  24.408  0.00  0.00    +0.051 A 
ATOM     18  C   UNL     1       8.826  -0.704  24.039  0.00  0.00    +0.041 A 
ATOM     19  C   UNL     1       8.104   0.456  23.702  0.00  0.00    +0.036 A 
ATOM     20  C   UNL     1       8.664   1.740  23.726  0.00  0.00    +0.033 A 
ATOM     21  C   UNL     1      10.010   1.826  24.082  0.00  0.00    +0.061 A 
BRANCH  20  22
ATOM     22  N   UNL     1       7.880   2.821  23.362  0.00  0.00    -0.325 N 
ATOM     23  C   UNL     1       8.508   4.164  23.368  0.00  0.00    +0.133 C 
ATOM     24  C   UNL     1       7.415   5.228  23.574  0.00  0.00    +0.178 C 
ATOM     25  O   UNL     1       6.375   5.120  22.586  0.00  0.00    -0.377 OA
ATOM     26  C   UNL     1       5.779   3.810  22.625  0.00  0.00    +0.178 C 
ATOM     27  C   UNL     1       6.820   2.709  22.348  0.00  0.00    +0.133 C 
ENDBRANCH  20  22
ENDBRANCH   1  18
TORSDOF 3
ENDMDL
MODEL 6
REMARK VINA RESULT:      -7.0      1.520      1.712
REMARK  Name = 
REMARK  3 active torsions:
REMARK  status: ('A' for Active; 'I' for Inactive)
REMARK    1  A    between atoms: C_4  and  N_20
REMARK    2  A    between atoms: C_6  and  C_8
REMARK    3  A    between atoms: N_10  and  C_11
REMARK                            x       y       z     vdW  Elec       q    Type
REMARK                         _______ _______ _______ _____ _____    ______ ____
ROOT
ATOM      1  C   UNL     1       7.157  -1.122  23.656  0.00  0.00    +0.248 C 
ATOM      2  N   UNL     1       7.719  -0.372  22.627  0.00  0.00    -0.281 N 
ATOM      3  H   UNL     1       8.217  -0.861  21.897  0.00  0.00    +0.155 HD
ATOM      4  O   UNL     1       6.727  -0.674  24.717  0.00  0.00    -0.270 OA
ENDROOT
BRANCH   2   5
ATOM      5  C   UNL     1       7.843   1.044  22.650  0.00  0.00    +0.034 A 
ATOM      6  C   UNL     1       9.010   1.608  23.193  0.00  0.00    +0.033 A 
ATOM      7  C   UNL     1       9.127   3.017  23.300  0.00  0.00    +0.001 A 
ATOM      8  C   UNL     1       8.089   3.815  22.827  0.00  0.00    +0.047 A 
ATOM      9  N   UNL     1       8.434   5.129  23.053  0.00  0.00    -0.361 N 
ATOM     10  H   UNL     1       7.856   5.920  22.809  0.00  0.00    +0.165 HD
ATOM     11  C   UNL     1       9.656   5.192  23.664  0.00  0.00    +0.083 A 
ATOM     12  C   UNL     1       6.939   3.286  22.245  0.00  0.00    +0.028 A 
ATOM     13  C   UNL     1      10.114   3.900  23.826  0.00  0.00    +0.027 A 
ATOM     14  C   UNL     1       6.844   1.894  22.165  0.00  0.00    +0.025 A 
ENDBRANCH   2   5
BRANCH   1  18
ATOM     15  F   UNL     1       7.324  -5.314  21.139  0.00  0.00    -0.205 F 
ATOM     16  C   UNL     1       7.160  -4.653  22.295  0.00  0.00    +0.126 A 
ATOM     17  C   UNL     1       7.314  -3.269  22.306  0.00  0.00    +0.051 A 
ATOM     18  C   UNL     1       7.120  -2.598  23.506  0.00  0.00    +0.041 A 
ATOM     19  C   UNL     1       6.772  -3.329  24.657  0.00  0.00    +0.036 A 
ATOM     20  C   UNL     1       6.599  -4.720  24.656  0.00  0.00    +0.033 A 
ATOM     21  C   UNL     1       6.817  -5.374  23.444  0.00  0.00    +0.061 A 
BRANCH  20  22
ATOM     22  N   UNL     1       6.271  -5.355  25.842  0.00  0.00    -0.325 N 
ATOM     23  C   UNL     1       5.305  -6.477  25.781  0.00  0.00    +0.133 C 
ATOM     24  C   UNL     1       4.606  -6.613  27.144  0.00  0.00    +0.178 C 
ATOM     25  O   UNL     1       5.553  -6.771  28.215  0.00  0.00    -0.377 OA
ATOM     26  C   UNL     1       6.460  -5.654  28.252  0.00  0.00    +0.178 C 
ATOM     27  C   UNL     1       7.244  -5.519  26.932  0.00  0.00    +0.133 C 
ENDBRANCH  20  22
ENDBRANCH   1  18
TORSDOF 3
ENDMDL
MODEL 7
REMARK VINA RESULT:      -7.0      2.433      2.974
REMARK  Name = 
REMARK  3 active torsions:
REMARK  status: ('A' for Active; 'I' for Inactive)
REMARK    1  A    between atoms: C_4  and  N_20
REMARK    2  A    between atoms: C_6  and  C_8
REMARK    3  A    between atoms: N_10  and  C_11
REMARK                            x       y       z     vdW  Elec       q    Type
REMARK                         _______ _______ _______ _____ _____    ______ ____
ROOT
ATOM      1  C   UNL     1       8.689  -1.053  23.801  0.00  0.00    +0.248 C 
ATOM      2  N   UNL     1       9.267  -0.152  24.690  0.00  0.00    -0.281 N 
ATOM      3  H   UNL     1       9.392  -0.442  25.649  0.00  0.00    +0.155 HD
ATOM      4  O   UNL     1       8.263  -0.782  22.680  0.00  0.00    -0.270 OA
ENDROOT
BRANCH   2   5
ATOM      5  C   UNL     1       9.480   1.224  24.402  0.00  0.00    +0.034 A 
ATOM      6  C   UNL     1       8.527   2.158  24.842  0.00  0.00    +0.033 A 
ATOM      7  C   UNL     1       8.674   3.527  24.503  0.00  0.00    +0.001 A 
ATOM      8  C   UNL     1       9.787   3.920  23.765  0.00  0.00    +0.047 A 
ATOM      9  N   UNL     1       9.694   5.278  23.558  0.00  0.00    -0.361 N 
ATOM     10  H   UNL     1      10.371   5.825  23.046  0.00  0.00    +0.165 HD
ATOM     11  C   UNL     1       8.550   5.761  24.133  0.00  0.00    +0.083 A 
ATOM     12  C   UNL     1      10.770   3.024  23.352  0.00  0.00    +0.028 A 
ATOM     13  C   UNL     1       7.900   4.701  24.730  0.00  0.00    +0.027 A 
ATOM     14  C   UNL     1      10.592   1.679  23.688  0.00  0.00    +0.025 A 
ENDBRANCH   2   5
BRANCH   1  18
ATOM     15  F   UNL     1      10.198  -5.396  25.475  0.00  0.00    -0.205 F 
ATOM     16  C   UNL     1       9.220  -4.594  25.028  0.00  0.00    +0.126 A 
ATOM     17  C   UNL     1       9.521  -3.266  24.731  0.00  0.00    +0.051 A 
ATOM     18  C   UNL     1       8.502  -2.456  24.249  0.00  0.00    +0.041 A 
ATOM     19  C   UNL     1       7.215  -2.996  24.074  0.00  0.00    +0.036 A 
ATOM     20  C   UNL     1       6.902  -4.333  24.355  0.00  0.00    +0.033 A 
ATOM     21  C   UNL     1       7.936  -5.123  24.855  0.00  0.00    +0.061 A 
BRANCH  20  22
ATOM     22  N   UNL     1       5.602  -4.771  24.167  0.00  0.00    -0.325 N 
ATOM     23  C   UNL     1       4.553  -3.748  23.946  0.00  0.00    +0.133 C 
ATOM     24  C   UNL     1       3.194  -4.317  24.390  0.00  0.00    +0.178 C 
ATOM     25  O   UNL     1       2.893  -5.556  23.723  0.00  0.00    -0.377 OA
ATOM     26  C   UNL     1       3.925  -6.527  23.977  0.00  0.00    +0.178 C 
ATOM     27  C   UNL     1       5.298  -6.035  23.480  0.00  0.00    +0.133 C 
ENDBRANCH  20  22
ENDBRANCH   1  18
TORSDOF 3
ENDMDL
MODEL 8
REMARK VINA RESULT:      -6.8      2.245      2.439
REMARK  Name = 
REMARK  3 active torsions:
REMARK  status: ('A' for Active; 'I' for Inactive)
REMARK    1  A    between atoms: C_4  and  N_20
REMARK    2  A    between atoms: C_6  and  C_8
REMARK    3  A    between atoms: N_10  and  C_11
REMARK                            x       y       z     vdW  Elec       q    Type
REMARK                         _______ _______ _______ _____ _____    ______ ____
ROOT
ATOM      1  C   UNL     1       7.118  -1.511  22.928  0.00  0.00    +0.248 C 
ATOM      2  N   UNL     1       8.455  -1.180  23.125  0.00  0.00    -0.281 N 
ATOM      3  H   UNL     1       9.085  -1.903  23.443  0.00  0.00    +0.155 HD
ATOM      4  O   UNL     1       6.197  -0.712  22.770  0.00  0.00    -0.270 OA
ENDROOT
BRANCH   2   5
ATOM      5  C   UNL     1       8.952   0.152  23.136  0.00  0.00    +0.034 A 
ATOM      6  C   UNL     1       8.495   1.032  24.133  0.00  0.00    +0.033 A 
ATOM      7  C   UNL     1       8.913   2.386  24.122  0.00  0.00    +0.001 A 
ATOM      8  C   UNL     1       9.803   2.807  23.136  0.00  0.00    +0.047 A 
ATOM      9  N   UNL     1      10.042   4.148  23.332  0.00  0.00    -0.361 N 
ATOM     10  H   UNL     1      10.651   4.710  22.755  0.00  0.00    +0.165 HD
ATOM     11  C   UNL     1       9.325   4.598  24.408  0.00  0.00    +0.083 A 
ATOM     12  C   UNL     1      10.306   1.948  22.161  0.00  0.00    +0.028 A 
ATOM     13  C   UNL     1       8.621   3.529  24.921  0.00  0.00    +0.027 A 
ATOM     14  C   UNL     1       9.865   0.622  22.188  0.00  0.00    +0.025 A 
ENDBRANCH   2   5
BRANCH   1  18
ATOM     15  F   UNL     1       7.862  -6.301  22.260  0.00  0.00    -0.205 F 
ATOM     16  C   UNL     1       7.065  -5.283  22.617  0.00  0.00    +0.126 A 
ATOM     17  C   UNL     1       7.584  -3.990  22.618  0.00  0.00    +0.051 A 
ATOM     18  C   UNL     1       6.739  -2.945  22.971  0.00  0.00    +0.041 A 
ATOM     19  C   UNL     1       5.401  -3.223  23.306  0.00  0.00    +0.036 A 
ATOM     20  C   UNL     1       4.863  -4.517  23.295  0.00  0.00    +0.033 A 
ATOM     21  C   UNL     1       5.734  -5.552  22.956  0.00  0.00    +0.061 A 
BRANCH  20  22
ATOM     22  N   UNL     1       3.538  -4.695  23.657  0.00  0.00    -0.325 N 
ATOM     23  C   UNL     1       2.829  -5.881  23.120  0.00  0.00    +0.133 C 
ATOM     24  C   UNL     1       1.319  -5.587  23.078  0.00  0.00    +0.178 C 
ATOM     25  O   UNL     1       0.818  -5.192  24.367  0.00  0.00    -0.377 OA
ATOM     26  C   UNL     1       1.518  -4.028  24.843  0.00  0.00    +0.178 C 
ATOM     27  C   UNL     1       3.030  -4.295  24.977  0.00  0.00    +0.133 C 
ENDBRANCH  20  22
ENDBRANCH   1  18
TORSDOF 3
ENDMDL
MODEL 9
REMARK VINA RESULT:      -6.6      3.507      8.463
REMARK  Name = 
REMARK  3 active torsions:
REMARK  status: ('A' for Active; 'I' for Inactive)
REMARK    1  A    between atoms: C_4  and  N_20
REMARK    2  A    between atoms: C_6  and  C_8
REMARK    3  A    between atoms: N_10  and  C_11
REMARK                            x       y       z     vdW  Elec       q    Type
REMARK                         _______ _______ _______ _____ _____    ______ ____
ROOT
ATOM      1  C   UNL     1       7.381  -1.538  22.964  0.00  0.00    +0.248 C 
ATOM      2  N   UNL     1       6.190  -2.030  22.438  0.00  0.00    -0.281 N 
ATOM      3  H   UNL     1       5.554  -1.376  22.003  0.00  0.00    +0.155 HD
ATOM      4  O   UNL     1       8.139  -2.149  23.714  0.00  0.00    -0.270 OA
ENDROOT
BRANCH   2   5
ATOM      5  C   UNL     1       5.697  -3.343  22.675  0.00  0.00    +0.034 A 
ATOM      6  C   UNL     1       4.794  -3.541  23.734  0.00  0.00    +0.033 A 
ATOM      7  C   UNL     1       4.347  -4.850  24.042  0.00  0.00    +0.001 A 
ATOM      8  C   UNL     1       4.790  -5.913  23.258  0.00  0.00    +0.047 A 
ATOM      9  N   UNL     1       4.231  -7.066  23.761  0.00  0.00    -0.361 N 
ATOM     10  H   UNL     1       4.388  -7.989  23.382  0.00  0.00    +0.165 HD
ATOM     11  C   UNL     1       3.452  -6.772  24.847  0.00  0.00    +0.083 A 
ATOM     12  C   UNL     1       5.651  -5.742  22.176  0.00  0.00    +0.028 A 
ATOM     13  C   UNL     1       3.500  -5.408  25.042  0.00  0.00    +0.027 A 
ATOM     14  C   UNL     1       6.087  -4.442  21.904  0.00  0.00    +0.025 A 
ENDBRANCH   2   5
BRANCH   1  18
ATOM     15  F   UNL     1      10.468   2.026  21.657  0.00  0.00    -0.205 F 
ATOM     16  C   UNL     1       9.252   1.624  22.058  0.00  0.00    +0.126 A 
ATOM     17  C   UNL     1       9.013   0.261  22.220  0.00  0.00    +0.051 A 
ATOM     18  C   UNL     1       7.755  -0.136  22.655  0.00  0.00    +0.041 A 
ATOM     19  C   UNL     1       6.778   0.840  22.921  0.00  0.00    +0.036 A 
ATOM     20  C   UNL     1       7.010   2.215  22.776  0.00  0.00    +0.033 A 
ATOM     21  C   UNL     1       8.273   2.589  22.321  0.00  0.00    +0.061 A 
BRANCH  20  22
ATOM     22  N   UNL     1       5.980   3.100  23.046  0.00  0.00    -0.325 N 
ATOM     23  C   UNL     1       4.853   2.617  23.878  0.00  0.00    +0.133 C 
ATOM     24  C   UNL     1       3.594   3.437  23.545  0.00  0.00    +0.178 C 
ATOM     25  O   UNL     1       3.821   4.848  23.705  0.00  0.00    -0.377 OA
ATOM     26  C   UNL     1       4.909   5.281  22.868  0.00  0.00    +0.178 C 
ATOM     27  C   UNL     1       6.216   4.542  23.214  0.00  0.00    +0.133 C 
ENDBRANCH  20  22
ENDBRANCH   1  18
TORSDOF 3
ENDMDL
