MODEL 1
REMARK VINA RESULT:      -5.2      0.000      0.000
REMARK  Name = 
REMARK  40 active torsions:
REMARK  status: ('A' for Active; 'I' for Inactive)
REMARK    1  A    between atoms: C_1  and  C_2
REMARK    2  A    between atoms: C_2  and  C_3
REMARK    3  A    between atoms: C_3  and  C_4
REMARK    4  A    between atoms: C_4  and  C_5
REMARK    5  A    between atoms: C_5  and  C_6
REMARK    6  A    between atoms: C_6  and  C_7
REMARK    7  A    between atoms: C_7  and  C_8
REMARK    8  A    between atoms: C_8  and  C_9
REMARK    9  A    between atoms: C_9  and  C_10
REMARK   10  A    between atoms: C_10  and  C_11
REMARK   11  A    between atoms: C_11  and  C_12
REMARK   12  A    between atoms: C_12  and  C_13
REMARK   13  A    between atoms: C_13  and  C_14
REMARK   14  A    between atoms: C_14  and  C_15
REMARK   15  A    between atoms: C_15  and  C_16
REMARK   16  A    between atoms: C_16  and  O_18
REMARK   17  A    between atoms: O_18  and  C_19
REMARK   18  A    between atoms: C_19  and  C_21
REMARK   19  A    between atoms: C_19  and  C_39
REMARK   20  A    between atoms: C_21  and  O_22
REMARK   21  A    between atoms: O_22  and  C_23
REMARK   22  A    between atoms: C_26  and  C_28
REMARK   23  A    between atoms: C_28  and  O_29
REMARK   24  A    between atoms: C_30  and  O_32
REMARK   25  A    between atoms: C_33  and  O_35
REMARK   26  A    between atoms: C_36  and  O_38
REMARK   27  A    between atoms: C_39  and  O_40
REMARK   28  A    between atoms: O_40  and  C_41
REMARK   29  A    between atoms: C_41  and  C_43
REMARK   30  A    between atoms: C_43  and  C_44
REMARK   31  A    between atoms: C_44  and  C_45
REMARK   32  A    between atoms: C_45  and  C_46
REMARK   33  A    between atoms: C_46  and  C_47
REMARK   34  A    between atoms: C_47  and  C_48
REMARK   35  A    between atoms: C_48  and  C_49
REMARK   36  A    between atoms: C_49  and  C_50
REMARK   37  A    between atoms: C_50  and  C_51
REMARK   38  A    between atoms: C_51  and  C_52
REMARK   39  A    between atoms: C_52  and  C_53
REMARK   40  A    between atoms: C_53  and  C_54
REMARK                            x       y       z     vdW  Elec       q    Type
REMARK                         _______ _______ _______ _____ _____    ______ ____
ROOT
ATOM      1  C   UNL     1       7.063  -2.945  23.308  0.00  0.00    +0.239 C 
ENDROOT
BRANCH   1   2
ATOM      2  C   UNL     1       5.537  -2.982  23.255  0.00  0.00    +0.211 C 
BRANCH   2   3
ATOM      3  O   UNL     1       4.983  -4.015  22.433  0.00  0.00    -0.345 OA
BRANCH   3   4
ATOM      4  C   UNL     1       3.931  -4.655  23.151  0.00  0.00    +0.282 C 
ATOM      5  C   UNL     1       3.962  -6.190  23.003  0.00  0.00    +0.201 C 
ATOM      6  C   UNL     1       2.748  -6.747  23.763  0.00  0.00    +0.179 C 
ATOM      7  C   UNL     1       2.679  -6.248  25.225  0.00  0.00    +0.177 C 
ATOM      8  C   UNL     1       2.842  -4.721  25.293  0.00  0.00    +0.178 C 
ATOM      9  O   UNL     1       3.974  -4.287  24.539  0.00  0.00    -0.341 OA
BRANCH   7  10
ATOM     10  O   UNL     1       3.670  -6.932  26.017  0.00  0.00    -0.386 OA
ATOM     11  H   UNL     1       4.552  -6.686  25.689  0.00  0.00    +0.210 HD
ENDBRANCH   7  10
BRANCH   6  12
ATOM     12  O   UNL     1       2.777  -8.178  23.688  0.00  0.00    -0.386 OA
ATOM     13  H   UNL     1       3.506  -8.483  24.259  0.00  0.00    +0.210 HD
ENDBRANCH   6  12
BRANCH   5  14
ATOM     14  O   UNL     1       5.178  -6.753  23.512  0.00  0.00    -0.384 OA
ATOM     15  H   UNL     1       5.683  -5.995  23.864  0.00  0.00    +0.210 HD
ENDBRANCH   5  14
BRANCH   8  16
ATOM     16  C   UNL     1       1.583  -3.938  24.910  0.00  0.00    +0.190 C 
BRANCH  16  17
ATOM     17  O   UNL     1       1.549  -2.648  25.507  0.00  0.00    -0.392 OA
ATOM     18  H   UNL     1       0.781  -2.177  25.145  0.00  0.00    +0.210 HD
ENDBRANCH  16  17
ENDBRANCH   8  16
ENDBRANCH   3   4
ENDBRANCH   2   3
ENDBRANCH   1   2
BRANCH   1  19
ATOM     19  C   UNL     1       7.581  -4.374  23.032  0.00  0.00    +0.279 C 
BRANCH  19  20
ATOM     20  O   UNL     1       7.657  -5.194  24.207  0.00  0.00    -0.461 OA
BRANCH  20  21
ATOM     21  C   UNL     1       8.739  -5.023  25.016  0.00  0.00    +0.307 C 
ATOM     22  O   UNL     1       9.898  -4.947  24.631  0.00  0.00    -0.251 OA
BRANCH  21  23
ATOM     23  C   UNL     1       8.337  -4.893  26.464  0.00  0.00    +0.120 C 
BRANCH  23  24
ATOM     24  C   UNL     1       6.953  -4.304  26.674  0.00  0.00    +0.011 C 
BRANCH  24  25
ATOM     25  C   UNL     1       6.101  -5.092  27.627  0.00  0.00    +0.001 C 
BRANCH  25  26
ATOM     26  C   UNL     1       4.983  -4.159  28.256  0.00  0.00    +0.000 C 
BRANCH  26  27
ATOM     27  C   UNL     1       5.128  -2.852  27.606  0.00  0.00    +0.000 C 
BRANCH  27  28
ATOM     28  C   UNL     1       4.050  -1.404  27.646  0.00  0.00    +0.000 C 
BRANCH  28  29
ATOM     29  C   UNL     1       4.161   0.053  28.609  0.00  0.00    -0.000 C 
BRANCH  29  30
ATOM     30  C   UNL     1       5.461   0.779  29.067  0.00  0.00    -0.000 C 
BRANCH  30  31
ATOM     31  C   UNL     1       5.496   2.306  28.605  0.00  0.00    -0.000 C 
BRANCH  31  32
ATOM     32  C   UNL     1       6.943   2.743  28.339  0.00  0.00    -0.000 C 
BRANCH  32  33
ATOM     33  C   UNL     1       7.129   3.783  27.232  0.00  0.00    -0.003 C 
ATOM     34  C   UNL     1       6.371   5.057  27.623  0.00  0.00    +0.004 C 
ENDBRANCH  32  33
ENDBRANCH  31  32
ENDBRANCH  30  31
ENDBRANCH  29  30
ENDBRANCH  28  29
ENDBRANCH  27  28
ENDBRANCH  26  27
ENDBRANCH  25  26
ENDBRANCH  24  25
ENDBRANCH  23  24
ENDBRANCH  21  23
ENDBRANCH  20  21
ENDBRANCH  19  20
ENDBRANCH   1  19
BRANCH   1  35
ATOM     35  O   UNL     1       7.553  -2.033  22.275  0.00  0.00    -0.456 OA
BRANCH  35  36
ATOM     36  C   UNL     1       8.815  -1.515  22.516  0.00  0.00    +0.308 C 
ATOM     37  O   UNL     1       9.505  -1.766  23.494  0.00  0.00    -0.251 OA
BRANCH  36  38
ATOM     38  C   UNL     1       9.361  -0.723  21.361  0.00  0.00    +0.120 C 
BRANCH  38  39
ATOM     39  C   UNL     1       8.970   0.795  21.550  0.00  0.00    +0.011 C 
BRANCH  39  40
ATOM     40  C   UNL     1      10.161   1.611  22.097  0.00  0.00    +0.001 C 
BRANCH  40  41
ATOM     41  C   UNL     1      10.300   2.583  23.527  0.00  0.00    +0.000 C 
BRANCH  41  42
ATOM     42  C   UNL     1       9.182   3.819  24.210  0.00  0.00    +0.000 C 
BRANCH  42  43
ATOM     43  C   UNL     1       7.938   4.698  23.730  0.00  0.00    +0.000 C 
BRANCH  43  44
ATOM     44  C   UNL     1       7.324   4.165  22.387  0.00  0.00    -0.000 C 
BRANCH  44  45
ATOM     45  C   UNL     1       5.809   4.139  22.558  0.00  0.00    -0.000 C 
BRANCH  45  46
ATOM     46  C   UNL     1       5.396   3.917  23.994  0.00  0.00    -0.000 C 
BRANCH  46  47
ATOM     47  C   UNL     1       4.636   2.608  24.006  0.00  0.00    -0.000 C 
BRANCH  47  48
ATOM     48  C   UNL     1       5.250   1.659  25.005  0.00  0.00    -0.000 C 
BRANCH  48  49
ATOM     49  C   UNL     1       6.238   0.773  24.293  0.00  0.00    -0.000 C 
BRANCH  49  50
ATOM     50  C   UNL     1       7.468   0.645  25.175  0.00  0.00    -0.000 C 
BRANCH  50  52
ATOM     51  C   UNL     1       8.568  -0.747  26.882  0.00  0.00    +0.004 C 
ATOM     52  C   UNL     1       7.305  -0.570  26.059  0.00  0.00    -0.003 C 
ENDBRANCH  50  52
ENDBRANCH  49  50
ENDBRANCH  48  49
ENDBRANCH  47  48
ENDBRANCH  46  47
ENDBRANCH  45  46
ENDBRANCH  44  45
ENDBRANCH  43  44
ENDBRANCH  42  43
ENDBRANCH  41  42
ENDBRANCH  40  41
ENDBRANCH  39  40
ENDBRANCH  38  39
ENDBRANCH  36  38
ENDBRANCH  35  36
ENDBRANCH   1  35
TORSDOF 38
ENDMDL
MODEL 2
REMARK VINA RESULT:      -5.0      2.829      7.594
REMARK  Name = 
REMARK  40 active torsions:
REMARK  status: ('A' for Active; 'I' for Inactive)
REMARK    1  A    between atoms: C_1  and  C_2
REMARK    2  A    between atoms: C_2  and  C_3
REMARK    3  A    between atoms: C_3  and  C_4
REMARK    4  A    between atoms: C_4  and  C_5
REMARK    5  A    between atoms: C_5  and  C_6
REMARK    6  A    between atoms: C_6  and  C_7
REMARK    7  A    between atoms: C_7  and  C_8
REMARK    8  A    between atoms: C_8  and  C_9
REMARK    9  A    between atoms: C_9  and  C_10
REMARK   10  A    between atoms: C_10  and  C_11
REMARK   11  A    between atoms: C_11  and  C_12
REMARK   12  A    between atoms: C_12  and  C_13
REMARK   13  A    between atoms: C_13  and  C_14
REMARK   14  A    between atoms: C_14  and  C_15
REMARK   15  A    between atoms: C_15  and  C_16
REMARK   16  A    between atoms: C_16  and  O_18
REMARK   17  A    between atoms: O_18  and  C_19
REMARK   18  A    between atoms: C_19  and  C_21
REMARK   19  A    between atoms: C_19  and  C_39
REMARK   20  A    between atoms: C_21  and  O_22
REMARK   21  A    between atoms: O_22  and  C_23
REMARK   22  A    between atoms: C_26  and  C_28
REMARK   23  A    between atoms: C_28  and  O_29
REMARK   24  A    between atoms: C_30  and  O_32
REMARK   25  A    between atoms: C_33  and  O_35
REMARK   26  A    between atoms: C_36  and  O_38
REMARK   27  A    between atoms: C_39  and  O_40
REMARK   28  A    between atoms: O_40  and  C_41
REMARK   29  A    between atoms: C_41  and  C_43
REMARK   30  A    between atoms: C_43  and  C_44
REMARK   31  A    between atoms: C_44  and  C_45
REMARK   32  A    between atoms: C_45  and  C_46
REMARK   33  A    between atoms: C_46  and  C_47
REMARK   34  A    between atoms: C_47  and  C_48
REMARK   35  A    between atoms: C_48  and  C_49
REMARK   36  A    between atoms: C_49  and  C_50
REMARK   37  A    between atoms: C_50  and  C_51
REMARK   38  A    between atoms: C_51  and  C_52
REMARK   39  A    between atoms: C_52  and  C_53
REMARK   40  A    between atoms: C_53  and  C_54
REMARK                            x       y       z     vdW  Elec       q    Type
REMARK                         _______ _______ _______ _____ _____    ______ ____
ROOT
ATOM      1  C   UNL     1      10.107  -0.446  24.635  0.00  0.00    +0.239 C 
ENDROOT
BRANCH   1   2
ATOM      2  C   UNL     1      10.612   0.981  24.430  0.00  0.00    +0.211 C 
BRANCH   2   3
ATOM      3  O   UNL     1      10.452   1.498  23.105  0.00  0.00    -0.345 OA
BRANCH   3   4
ATOM      4  C   UNL     1       9.598   2.638  23.160  0.00  0.00    +0.282 C 
ATOM      5  C   UNL     1       8.301   2.448  22.347  0.00  0.00    +0.201 C 
ATOM      6  C   UNL     1       7.509   3.761  22.434  0.00  0.00    +0.179 C 
ATOM      7  C   UNL     1       7.286   4.228  23.891  0.00  0.00    +0.177 C 
ATOM      8  C   UNL     1       8.604   4.212  24.681  0.00  0.00    +0.178 C 
ATOM      9  O   UNL     1       9.288   2.968  24.524  0.00  0.00    -0.341 OA
BRANCH   7  10
ATOM     10  O   UNL     1       6.275   3.409  24.512  0.00  0.00    -0.386 OA
ATOM     11  H   UNL     1       6.714   2.745  25.070  0.00  0.00    +0.210 HD
ENDBRANCH   7  10
BRANCH   6  12
ATOM     12  O   UNL     1       6.271   3.597  21.730  0.00  0.00    -0.386 OA
ATOM     13  H   UNL     1       5.552   3.706  22.379  0.00  0.00    +0.210 HD
ENDBRANCH   6  12
BRANCH   5  14
ATOM     14  O   UNL     1       7.518   1.352  22.838  0.00  0.00    -0.384 OA
ATOM     15  H   UNL     1       7.831   1.201  23.751  0.00  0.00    +0.210 HD
ENDBRANCH   5  14
BRANCH   8  16
ATOM     16  C   UNL     1       9.526   5.397  24.386  0.00  0.00    +0.190 C 
BRANCH  16  17
ATOM     17  O   UNL     1       9.736   6.215  25.531  0.00  0.00    -0.392 OA
ATOM     18  H   UNL     1       9.377   7.094  25.334  0.00  0.00    +0.210 HD
ENDBRANCH  16  17
ENDBRANCH   8  16
ENDBRANCH   3   4
ENDBRANCH   2   3
ENDBRANCH   1   2
BRANCH   1  19
ATOM     19  C   UNL     1       9.209  -0.454  25.892  0.00  0.00    +0.279 C 
BRANCH  19  20
ATOM     20  O   UNL     1       8.151   0.514  25.848  0.00  0.00    -0.461 OA
BRANCH  20  21
ATOM     21  C   UNL     1       6.875   0.041  25.788  0.00  0.00    +0.307 C 
ATOM     22  O   UNL     1       5.953   0.582  25.193  0.00  0.00    -0.251 OA
BRANCH  21  23
ATOM     23  C   UNL     1       6.734  -1.274  26.514  0.00  0.00    +0.120 C 
BRANCH  23  24
ATOM     24  C   UNL     1       5.297  -1.727  26.705  0.00  0.00    +0.011 C 
BRANCH  24  25
ATOM     25  C   UNL     1       4.723  -2.431  25.508  0.00  0.00    +0.001 C 
BRANCH  25  26
ATOM     26  C   UNL     1       3.361  -3.142  25.897  0.00  0.00    +0.000 C 
BRANCH  26  27
ATOM     27  C   UNL     1       2.955  -2.571  27.186  0.00  0.00    +0.000 C 
BRANCH  27  28
ATOM     28  C   UNL     1       1.739  -1.291  27.563  0.00  0.00    +0.000 C 
BRANCH  28  29
ATOM     29  C   UNL     1       1.879   0.452  27.483  0.00  0.00    -0.000 C 
BRANCH  29  30
ATOM     30  C   UNL     1       3.101   1.272  26.971  0.00  0.00    -0.000 C 
BRANCH  30  31
ATOM     31  C   UNL     1       3.961   1.887  28.166  0.00  0.00    -0.000 C 
BRANCH  31  32
ATOM     32  C   UNL     1       4.462   0.766  29.086  0.00  0.00    -0.000 C 
BRANCH  32  33
ATOM     33  C   UNL     1       5.819   1.011  29.750  0.00  0.00    -0.003 C 
ATOM     34  C   UNL     1       6.655   1.916  28.839  0.00  0.00    +0.004 C 
ENDBRANCH  32  33
ENDBRANCH  31  32
ENDBRANCH  30  31
ENDBRANCH  29  30
ENDBRANCH  28  29
ENDBRANCH  27  28
ENDBRANCH  26  27
ENDBRANCH  25  26
ENDBRANCH  24  25
ENDBRANCH  23  24
ENDBRANCH  21  23
ENDBRANCH  20  21
ENDBRANCH  19  20
ENDBRANCH   1  19
BRANCH   1  35
ATOM     35  O   UNL     1       9.326  -0.846  23.466  0.00  0.00    -0.456 OA
BRANCH  35  36
ATOM     36  C   UNL     1       9.168  -2.215  23.320  0.00  0.00    +0.308 C 
ATOM     37  O   UNL     1      10.079  -3.030  23.297  0.00  0.00    -0.251 OA
BRANCH  36  38
ATOM     38  C   UNL     1       7.731  -2.654  23.361  0.00  0.00    +0.120 C 
BRANCH  38  39
ATOM     39  C   UNL     1       7.375  -3.372  22.001  0.00  0.00    +0.011 C 
BRANCH  39  40
ATOM     40  C   UNL     1       7.234  -4.897  22.199  0.00  0.00    +0.001 C 
BRANCH  40  41
ATOM     41  C   UNL     1       5.829  -5.869  22.501  0.00  0.00    +0.000 C 
BRANCH  41  42
ATOM     42  C   UNL     1       4.186  -5.399  23.067  0.00  0.00    +0.000 C 
BRANCH  42  43
ATOM     43  C   UNL     1       2.703  -5.992  23.051  0.00  0.00    +0.000 C 
BRANCH  43  44
ATOM     44  C   UNL     1       2.168  -6.279  24.499  0.00  0.00    -0.000 C 
BRANCH  44  45
ATOM     45  C   UNL     1       3.150  -7.234  25.167  0.00  0.00    -0.000 C 
BRANCH  45  46
ATOM     46  C   UNL     1       3.515  -6.800  26.567  0.00  0.00    -0.000 C 
BRANCH  46  47
ATOM     47  C   UNL     1       5.015  -6.598  26.558  0.00  0.00    -0.000 C 
BRANCH  47  48
ATOM     48  C   UNL     1       5.427  -5.703  27.700  0.00  0.00    -0.000 C 
BRANCH  48  49
ATOM     49  C   UNL     1       6.755  -5.073  27.372  0.00  0.00    -0.000 C 
BRANCH  49  50
ATOM     50  C   UNL     1       7.042  -5.335  25.904  0.00  0.00    -0.000 C 
BRANCH  50  52
ATOM     51  C   UNL     1       9.137  -4.222  26.566  0.00  0.00    +0.004 C 
ATOM     52  C   UNL     1       8.539  -5.309  25.692  0.00  0.00    -0.003 C 
ENDBRANCH  50  52
ENDBRANCH  49  50
ENDBRANCH  48  49
ENDBRANCH  47  48
ENDBRANCH  46  47
ENDBRANCH  45  46
ENDBRANCH  44  45
ENDBRANCH  43  44
ENDBRANCH  42  43
ENDBRANCH  41  42
ENDBRANCH  40  41
ENDBRANCH  39  40
ENDBRANCH  38  39
ENDBRANCH  36  38
ENDBRANCH  35  36
ENDBRANCH   1  35
TORSDOF 38
ENDMDL
MODEL 3
REMARK VINA RESULT:      -4.9      2.187      6.512
REMARK  Name = 
REMARK  40 active torsions:
REMARK  status: ('A' for Active; 'I' for Inactive)
REMARK    1  A    between atoms: C_1  and  C_2
REMARK    2  A    between atoms: C_2  and  C_3
REMARK    3  A    between atoms: C_3  and  C_4
REMARK    4  A    between atoms: C_4  and  C_5
REMARK    5  A    between atoms: C_5  and  C_6
REMARK    6  A    between atoms: C_6  and  C_7
REMARK    7  A    between atoms: C_7  and  C_8
REMARK    8  A    between atoms: C_8  and  C_9
REMARK    9  A    between atoms: C_9  and  C_10
REMARK   10  A    between atoms: C_10  and  C_11
REMARK   11  A    between atoms: C_11  and  C_12
REMARK   12  A    between atoms: C_12  and  C_13
REMARK   13  A    between atoms: C_13  and  C_14
REMARK   14  A    between atoms: C_14  and  C_15
REMARK   15  A    between atoms: C_15  and  C_16
REMARK   16  A    between atoms: C_16  and  O_18
REMARK   17  A    between atoms: O_18  and  C_19
REMARK   18  A    between atoms: C_19  and  C_21
REMARK   19  A    between atoms: C_19  and  C_39
REMARK   20  A    between atoms: C_21  and  O_22
REMARK   21  A    between atoms: O_22  and  C_23
REMARK   22  A    between atoms: C_26  and  C_28
REMARK   23  A    between atoms: C_28  and  O_29
REMARK   24  A    between atoms: C_30  and  O_32
REMARK   25  A    between atoms: C_33  and  O_35
REMARK   26  A    between atoms: C_36  and  O_38
REMARK   27  A    between atoms: C_39  and  O_40
REMARK   28  A    between atoms: O_40  and  C_41
REMARK   29  A    between atoms: C_41  and  C_43
REMARK   30  A    between atoms: C_43  and  C_44
REMARK   31  A    between atoms: C_44  and  C_45
REMARK   32  A    between atoms: C_45  and  C_46
REMARK   33  A    between atoms: C_46  and  C_47
REMARK   34  A    between atoms: C_47  and  C_48
REMARK   35  A    between atoms: C_48  and  C_49
REMARK   36  A    between atoms: C_49  and  C_50
REMARK   37  A    between atoms: C_50  and  C_51
REMARK   38  A    between atoms: C_51  and  C_52
REMARK   39  A    between atoms: C_52  and  C_53
REMARK   40  A    between atoms: C_53  and  C_54
REMARK                            x       y       z     vdW  Elec       q    Type
REMARK                         _______ _______ _______ _____ _____    ______ ____
ROOT
ATOM      1  C   UNL     1       6.785   0.466  26.053  0.00  0.00    +0.239 C 
ENDROOT
BRANCH   1   2
ATOM      2  C   UNL     1       7.586  -0.682  26.665  0.00  0.00    +0.211 C 
BRANCH   2   3
ATOM      3  O   UNL     1       8.530  -1.301  25.785  0.00  0.00    -0.345 OA
BRANCH   3   4
ATOM      4  C   UNL     1       8.193  -2.680  25.650  0.00  0.00    +0.282 C 
ATOM      5  C   UNL     1       8.389  -3.201  24.212  0.00  0.00    +0.201 C 
ATOM      6  C   UNL     1       7.932  -4.667  24.190  0.00  0.00    +0.179 C 
ATOM      7  C   UNL     1       8.621  -5.523  25.277  0.00  0.00    +0.177 C 
ATOM      8  C   UNL     1       8.538  -4.838  26.650  0.00  0.00    +0.178 C 
ATOM      9  O   UNL     1       8.953  -3.474  26.576  0.00  0.00    -0.341 OA
BRANCH   7  10
ATOM     10  O   UNL     1       9.984  -5.792  24.890  0.00  0.00    -0.386 OA
ATOM     11  H   UNL     1       9.979  -6.205  24.010  0.00  0.00    +0.210 HD
ENDBRANCH   7  10
BRANCH   6  12
ATOM     12  O   UNL     1       8.151  -5.195  22.875  0.00  0.00    -0.386 OA
ATOM     13  H   UNL     1       7.664  -6.038  22.817  0.00  0.00    +0.210 HD
ENDBRANCH   6  12
BRANCH   5  14
ATOM     14  O   UNL     1       9.753  -3.089  23.783  0.00  0.00    -0.384 OA
ATOM     15  H   UNL     1       9.885  -3.825  23.156  0.00  0.00    +0.210 HD
ENDBRANCH   5  14
BRANCH   8  16
ATOM     16  C   UNL     1       7.175  -4.970  27.335  0.00  0.00    +0.190 C 
BRANCH  16  17
ATOM     17  O   UNL     1       7.113  -6.097  28.201  0.00  0.00    -0.392 OA
ATOM     18  H   UNL     1       7.654  -6.800  27.807  0.00  0.00    +0.210 HD
ENDBRANCH  16  17
ENDBRANCH   8  16
ENDBRANCH   3   4
ENDBRANCH   2   3
ENDBRANCH   1   2
BRANCH   1  19
ATOM     19  C   UNL     1       5.612  -0.148  25.256  0.00  0.00    +0.279 C 
BRANCH  19  20
ATOM     20  O   UNL     1       4.657  -0.835  26.077  0.00  0.00    -0.461 OA
BRANCH  20  21
ATOM     21  C   UNL     1       4.487  -2.167  25.852  0.00  0.00    +0.307 C 
ATOM     22  O   UNL     1       4.687  -2.730  24.784  0.00  0.00    -0.251 OA
BRANCH  21  23
ATOM     23  C   UNL     1       4.057  -2.893  27.102  0.00  0.00    +0.120 C 
BRANCH  23  24
ATOM     24  C   UNL     1       3.208  -4.126  26.844  0.00  0.00    +0.011 C 
BRANCH  24  25
ATOM     25  C   UNL     1       3.556  -5.292  27.725  0.00  0.00    +0.001 C 
BRANCH  25  26
ATOM     26  C   UNL     1       3.205  -6.653  26.991  0.00  0.00    +0.000 C 
BRANCH  26  27
ATOM     27  C   UNL     1       4.347  -6.955  26.122  0.00  0.00    +0.000 C 
BRANCH  27  28
ATOM     28  C   UNL     1       4.640  -6.530  24.391  0.00  0.00    +0.000 C 
BRANCH  28  29
ATOM     29  C   UNL     1       3.591  -5.737  23.235  0.00  0.00    -0.000 C 
BRANCH  29  30
ATOM     30  C   UNL     1       2.119  -5.280  23.463  0.00  0.00    -0.000 C 
BRANCH  30  31
ATOM     31  C   UNL     1       1.087  -6.084  22.550  0.00  0.00    -0.000 C 
BRANCH  31  32
ATOM     32  C   UNL     1       1.087  -7.568  22.937  0.00  0.00    -0.000 C 
BRANCH  32  33
ATOM     33  C   UNL     1       0.816  -7.868  24.413  0.00  0.00    -0.003 C 
ATOM     34  C   UNL     1       1.575  -9.142  24.802  0.00  0.00    +0.004 C 
ENDBRANCH  32  33
ENDBRANCH  31  32
ENDBRANCH  30  31
ENDBRANCH  29  30
ENDBRANCH  28  29
ENDBRANCH  27  28
ENDBRANCH  26  27
ENDBRANCH  25  26
ENDBRANCH  24  25
ENDBRANCH  23  24
ENDBRANCH  21  23
ENDBRANCH  20  21
ENDBRANCH  19  20
ENDBRANCH   1  19
BRANCH   1  35
ATOM     35  O   UNL     1       6.265   1.309  27.128  0.00  0.00    -0.456 OA
BRANCH  35  36
ATOM     36  C   UNL     1       6.939   2.508  27.296  0.00  0.00    +0.308 C 
ATOM     37  O   UNL     1       7.282   2.979  28.371  0.00  0.00    -0.251 OA
BRANCH  36  38
ATOM     38  C   UNL     1       7.381   3.127  25.999  0.00  0.00    +0.120 C 
BRANCH  38  39
ATOM     39  C   UNL     1       7.693   4.655  26.240  0.00  0.00    +0.011 C 
BRANCH  39  40
ATOM     40  C   UNL     1       8.103   5.352  24.924  0.00  0.00    +0.001 C 
BRANCH  40  41
ATOM     41  C   UNL     1       9.670   5.620  24.230  0.00  0.00    +0.000 C 
BRANCH  41  42
ATOM     42  C   UNL     1      10.927   4.444  23.703  0.00  0.00    +0.000 C 
BRANCH  42  43
ATOM     43  C   UNL     1      11.003   2.959  23.120  0.00  0.00    +0.000 C 
BRANCH  43  44
ATOM     44  C   UNL     1      10.507   1.892  24.159  0.00  0.00    -0.000 C 
BRANCH  44  45
ATOM     45  C   UNL     1      10.395   0.560  23.425  0.00  0.00    -0.000 C 
BRANCH  45  46
ATOM     46  C   UNL     1       9.546   0.658  22.179  0.00  0.00    -0.000 C 
BRANCH  46  47
ATOM     47  C   UNL     1       8.174   0.155  22.575  0.00  0.00    -0.000 C 
BRANCH  47  48
ATOM     48  C   UNL     1       7.122   1.173  22.212  0.00  0.00    -0.000 C 
BRANCH  48  49
ATOM     49  C   UNL     1       7.800   2.406  21.675  0.00  0.00    -0.000 C 
BRANCH  49  50
ATOM     50  C   UNL     1       6.982   3.611  22.105  0.00  0.00    -0.000 C 
BRANCH  50  52
ATOM     51  C   UNL     1       4.936   4.255  23.314  0.00  0.00    +0.004 C 
ATOM     52  C   UNL     1       5.618   3.135  22.551  0.00  0.00    -0.003 C 
ENDBRANCH  50  52
ENDBRANCH  49  50
ENDBRANCH  48  49
ENDBRANCH  47  48
ENDBRANCH  46  47
ENDBRANCH  45  46
ENDBRANCH  44  45
ENDBRANCH  43  44
ENDBRANCH  42  43
ENDBRANCH  41  42
ENDBRANCH  40  41
ENDBRANCH  39  40
ENDBRANCH  38  39
ENDBRANCH  36  38
ENDBRANCH  35  36
ENDBRANCH   1  35
TORSDOF 38
ENDMDL
MODEL 4
REMARK VINA RESULT:      -4.8      2.326      5.792
REMARK  Name = 
REMARK  40 active torsions:
REMARK  status: ('A' for Active; 'I' for Inactive)
REMARK    1  A    between atoms: C_1  and  C_2
REMARK    2  A    between atoms: C_2  and  C_3
REMARK    3  A    between atoms: C_3  and  C_4
REMARK    4  A    between atoms: C_4  and  C_5
REMARK    5  A    between atoms: C_5  and  C_6
REMARK    6  A    between atoms: C_6  and  C_7
REMARK    7  A    between atoms: C_7  and  C_8
REMARK    8  A    between atoms: C_8  and  C_9
REMARK    9  A    between atoms: C_9  and  C_10
REMARK   10  A    between atoms: C_10  and  C_11
REMARK   11  A    between atoms: C_11  and  C_12
REMARK   12  A    between atoms: C_12  and  C_13
REMARK   13  A    between atoms: C_13  and  C_14
REMARK   14  A    between atoms: C_14  and  C_15
REMARK   15  A    between atoms: C_15  and  C_16
REMARK   16  A    between atoms: C_16  and  O_18
REMARK   17  A    between atoms: O_18  and  C_19
REMARK   18  A    between atoms: C_19  and  C_21
REMARK   19  A    between atoms: C_19  and  C_39
REMARK   20  A    between atoms: C_21  and  O_22
REMARK   21  A    between atoms: O_22  and  C_23
REMARK   22  A    between atoms: C_26  and  C_28
REMARK   23  A    between atoms: C_28  and  O_29
REMARK   24  A    between atoms: C_30  and  O_32
REMARK   25  A    between atoms: C_33  and  O_35
REMARK   26  A    between atoms: C_36  and  O_38
REMARK   27  A    between atoms: C_39  and  O_40
REMARK   28  A    between atoms: O_40  and  C_41
REMARK   29  A    between atoms: C_41  and  C_43
REMARK   30  A    between atoms: C_43  and  C_44
REMARK   31  A    between atoms: C_44  and  C_45
REMARK   32  A    between atoms: C_45  and  C_46
REMARK   33  A    between atoms: C_46  and  C_47
REMARK   34  A    between atoms: C_47  and  C_48
REMARK   35  A    between atoms: C_48  and  C_49
REMARK   36  A    between atoms: C_49  and  C_50
REMARK   37  A    between atoms: C_50  and  C_51
REMARK   38  A    between atoms: C_51  and  C_52
REMARK   39  A    between atoms: C_52  and  C_53
REMARK   40  A    between atoms: C_53  and  C_54
REMARK                            x       y       z     vdW  Elec       q    Type
REMARK                         _______ _______ _______ _____ _____    ______ ____
ROOT
ATOM      1  C   UNL     1       9.445  -1.212  24.572  0.00  0.00    +0.239 C 
ENDROOT
BRANCH   1   2
ATOM      2  C   UNL     1       9.289  -0.149  25.658  0.00  0.00    +0.211 C 
BRANCH   2   3
ATOM      3  O   UNL     1       8.665   1.067  25.233  0.00  0.00    -0.345 OA
BRANCH   3   4
ATOM      4  C   UNL     1       7.447   1.232  25.955  0.00  0.00    +0.282 C 
ATOM      5  C   UNL     1       6.236   1.465  25.029  0.00  0.00    +0.201 C 
ATOM      6  C   UNL     1       5.011   1.692  25.927  0.00  0.00    +0.179 C 
ATOM      7  C   UNL     1       4.813   0.562  26.964  0.00  0.00    +0.177 C 
ATOM      8  C   UNL     1       6.122   0.270  27.714  0.00  0.00    +0.178 C 
ATOM      9  O   UNL     1       7.212   0.100  26.808  0.00  0.00    -0.341 OA
BRANCH   7  10
ATOM     10  O   UNL     1       4.294  -0.612  26.308  0.00  0.00    -0.386 OA
ATOM     11  H   UNL     1       5.043  -1.162  26.020  0.00  0.00    +0.210 HD
ENDBRANCH   7  10
BRANCH   6  12
ATOM     12  O   UNL     1       3.856   1.860  25.094  0.00  0.00    -0.386 OA
ATOM     13  H   UNL     1       3.826   1.100  24.484  0.00  0.00    +0.210 HD
ENDBRANCH   6  12
BRANCH   5  14
ATOM     14  O   UNL     1       6.017   0.357  24.145  0.00  0.00    -0.384 OA
ATOM     15  H   UNL     1       5.090   0.442  23.854  0.00  0.00    +0.210 HD
ENDBRANCH   5  14
BRANCH   8  16
ATOM     16  C   UNL     1       6.458   1.287  28.808  0.00  0.00    +0.190 C 
BRANCH  16  17
ATOM     17  O   UNL     1       7.768   1.103  29.330  0.00  0.00    -0.392 OA
ATOM     18  H   UNL     1       7.830   0.190  29.653  0.00  0.00    +0.210 HD
ENDBRANCH  16  17
ENDBRANCH   8  16
ENDBRANCH   3   4
ENDBRANCH   2   3
ENDBRANCH   1   2
BRANCH   1  19
ATOM     19  C   UNL     1       8.905  -2.546  25.135  0.00  0.00    +0.279 C 
BRANCH  19  20
ATOM     20  O   UNL     1       9.479  -3.705  24.514  0.00  0.00    -0.461 OA
BRANCH  20  21
ATOM     21  C   UNL     1       9.186  -4.916  25.065  0.00  0.00    +0.307 C 
ATOM     22  O   UNL     1       9.604  -5.992  24.658  0.00  0.00    -0.251 OA
BRANCH  21  23
ATOM     23  C   UNL     1       8.307  -4.776  26.283  0.00  0.00    +0.120 C 
BRANCH  23  24
ATOM     24  C   UNL     1       7.051  -5.629  26.244  0.00  0.00    +0.011 C 
BRANCH  24  25
ATOM     25  C   UNL     1       6.037  -5.257  27.288  0.00  0.00    +0.001 C 
BRANCH  25  26
ATOM     26  C   UNL     1       5.272  -6.552  27.789  0.00  0.00    +0.000 C 
BRANCH  26  27
ATOM     27  C   UNL     1       3.867  -6.161  27.947  0.00  0.00    +0.000 C 
BRANCH  27  28
ATOM     28  C   UNL     1       2.582  -5.904  26.705  0.00  0.00    +0.000 C 
BRANCH  28  29
ATOM     29  C   UNL     1       2.717  -5.720  24.969  0.00  0.00    -0.000 C 
BRANCH  29  30
ATOM     30  C   UNL     1       3.930  -5.145  24.178  0.00  0.00    -0.000 C 
BRANCH  30  31
ATOM     31  C   UNL     1       4.083  -3.569  24.367  0.00  0.00    -0.000 C 
BRANCH  31  32
ATOM     32  C   UNL     1       5.510  -3.132  24.012  0.00  0.00    -0.000 C 
BRANCH  32  33
ATOM     33  C   UNL     1       5.816  -3.019  22.516  0.00  0.00    -0.003 C 
ATOM     34  C   UNL     1       6.871  -4.069  22.150  0.00  0.00    +0.004 C 
ENDBRANCH  32  33
ENDBRANCH  31  32
ENDBRANCH  30  31
ENDBRANCH  29  30
ENDBRANCH  28  29
ENDBRANCH  27  28
ENDBRANCH  26  27
ENDBRANCH  25  26
ENDBRANCH  24  25
ENDBRANCH  23  24
ENDBRANCH  21  23
ENDBRANCH  20  21
ENDBRANCH  19  20
ENDBRANCH   1  19
BRANCH   1  35
ATOM     35  O   UNL     1       8.661  -0.816  23.403  0.00  0.00    -0.456 OA
BRANCH  35  36
ATOM     36  C   UNL     1       9.392  -0.708  22.230  0.00  0.00    +0.308 C 
ATOM     37  O   UNL     1       9.560  -1.608  21.420  0.00  0.00    -0.251 OA
BRANCH  36  38
ATOM     38  C   UNL     1       9.837   0.698  21.937  0.00  0.00    +0.120 C 
BRANCH  38  39
ATOM     39  C   UNL     1       8.673   1.459  21.189  0.00  0.00    +0.011 C 
BRANCH  39  40
ATOM     40  C   UNL     1       8.040   2.535  22.098  0.00  0.00    +0.001 C 
BRANCH  40  41
ATOM     41  C   UNL     1       6.556   3.418  21.934  0.00  0.00    +0.000 C 
BRANCH  41  42
ATOM     42  C   UNL     1       5.717   4.512  23.093  0.00  0.00    +0.000 C 
BRANCH  42  43
ATOM     43  C   UNL     1       5.704   6.063  23.474  0.00  0.00    +0.000 C 
BRANCH  43  44
ATOM     44  C   UNL     1       6.725   6.397  24.618  0.00  0.00    -0.000 C 
BRANCH  44  45
ATOM     45  C   UNL     1       7.148   5.076  25.251  0.00  0.00    -0.000 C 
BRANCH  45  46
ATOM     46  C   UNL     1       8.649   4.958  25.388  0.00  0.00    -0.000 C 
BRANCH  46  47
ATOM     47  C   UNL     1       9.210   6.281  24.914  0.00  0.00    -0.000 C 
BRANCH  47  48
ATOM     48  C   UNL     1      10.422   6.051  24.045  0.00  0.00    -0.000 C 
BRANCH  48  49
ATOM     49  C   UNL     1      10.399   4.631  23.543  0.00  0.00    -0.000 C 
BRANCH  49  50
ATOM     50  C   UNL     1      11.837   4.159  23.421  0.00  0.00    -0.000 C 
BRANCH  50  52
ATOM     51  C   UNL     1      13.237   5.552  21.951  0.00  0.00    +0.004 C 
ATOM     52  C   UNL     1      12.741   5.369  23.374  0.00  0.00    -0.003 C 
ENDBRANCH  50  52
ENDBRANCH  49  50
ENDBRANCH  48  49
ENDBRANCH  47  48
ENDBRANCH  46  47
ENDBRANCH  45  46
ENDBRANCH  44  45
ENDBRANCH  43  44
ENDBRANCH  42  43
ENDBRANCH  41  42
ENDBRANCH  40  41
ENDBRANCH  39  40
ENDBRANCH  38  39
ENDBRANCH  36  38
ENDBRANCH  35  36
ENDBRANCH   1  35
TORSDOF 38
ENDMDL
MODEL 5
REMARK VINA RESULT:      -4.8      2.269      5.512
REMARK  Name = 
REMARK  40 active torsions:
REMARK  status: ('A' for Active; 'I' for Inactive)
REMARK    1  A    between atoms: C_1  and  C_2
REMARK    2  A    between atoms: C_2  and  C_3
REMARK    3  A    between atoms: C_3  and  C_4
REMARK    4  A    between atoms: C_4  and  C_5
REMARK    5  A    between atoms: C_5  and  C_6
REMARK    6  A    between atoms: C_6  and  C_7
REMARK    7  A    between atoms: C_7  and  C_8
REMARK    8  A    between atoms: C_8  and  C_9
REMARK    9  A    between atoms: C_9  and  C_10
REMARK   10  A    between atoms: C_10  and  C_11
REMARK   11  A    between atoms: C_11  and  C_12
REMARK   12  A    between atoms: C_12  and  C_13
REMARK   13  A    between atoms: C_13  and  C_14
REMARK   14  A    between atoms: C_14  and  C_15
REMARK   15  A    between atoms: C_15  and  C_16
REMARK   16  A    between atoms: C_16  and  O_18
REMARK   17  A    between atoms: O_18  and  C_19
REMARK   18  A    between atoms: C_19  and  C_21
REMARK   19  A    between atoms: C_19  and  C_39
REMARK   20  A    between atoms: C_21  and  O_22
REMARK   21  A    between atoms: O_22  and  C_23
REMARK   22  A    between atoms: C_26  and  C_28
REMARK   23  A    between atoms: C_28  and  O_29
REMARK   24  A    between atoms: C_30  and  O_32
REMARK   25  A    between atoms: C_33  and  O_35
REMARK   26  A    between atoms: C_36  and  O_38
REMARK   27  A    between atoms: C_39  and  O_40
REMARK   28  A    between atoms: O_40  and  C_41
REMARK   29  A    between atoms: C_41  and  C_43
REMARK   30  A    between atoms: C_43  and  C_44
REMARK   31  A    between atoms: C_44  and  C_45
REMARK   32  A    between atoms: C_45  and  C_46
REMARK   33  A    between atoms: C_46  and  C_47
REMARK   34  A    between atoms: C_47  and  C_48
REMARK   35  A    between atoms: C_48  and  C_49
REMARK   36  A    between atoms: C_49  and  C_50
REMARK   37  A    between atoms: C_50  and  C_51
REMARK   38  A    between atoms: C_51  and  C_52
REMARK   39  A    between atoms: C_52  and  C_53
REMARK   40  A    between atoms: C_53  and  C_54
REMARK                            x       y       z     vdW  Elec       q    Type
REMARK                         _______ _______ _______ _____ _____    ______ ____
ROOT
ATOM      1  C   UNL     1       3.030  -2.375  26.895  0.00  0.00    +0.239 C 
ENDROOT
BRANCH   1   2
ATOM      2  C   UNL     1       3.098  -3.305  25.685  0.00  0.00    +0.211 C 
BRANCH   2   3
ATOM      3  O   UNL     1       1.830  -3.673  25.131  0.00  0.00    -0.345 OA
BRANCH   3   4
ATOM      4  C   UNL     1       1.756  -5.095  25.065  0.00  0.00    +0.282 C 
ATOM      5  C   UNL     1       1.731  -5.621  23.615  0.00  0.00    +0.201 C 
ATOM      6  C   UNL     1       1.584  -7.148  23.685  0.00  0.00    +0.179 C 
ATOM      7  C   UNL     1       2.652  -7.810  24.585  0.00  0.00    +0.177 C 
ATOM      8  C   UNL     1       2.737  -7.104  25.947  0.00  0.00    +0.178 C 
ATOM      9  O   UNL     1       2.844  -5.689  25.792  0.00  0.00    -0.341 OA
BRANCH   7  10
ATOM     10  O   UNL     1       3.922  -7.820  23.902  0.00  0.00    -0.386 OA
ATOM     11  H   UNL     1       4.045  -8.692  23.490  0.00  0.00    +0.210 HD
ENDBRANCH   7  10
BRANCH   6  12
ATOM     12  O   UNL     1       1.610  -7.672  22.350  0.00  0.00    -0.386 OA
ATOM     13  H   UNL     1       2.265  -8.393  22.336  0.00  0.00    +0.210 HD
ENDBRANCH   6  12
BRANCH   5  14
ATOM     14  O   UNL     1       2.916  -5.259  22.895  0.00  0.00    -0.384 OA
ATOM     15  H   UNL     1       3.229  -4.434  23.313  0.00  0.00    +0.210 HD
ENDBRANCH   5  14
BRANCH   8  16
ATOM     16  C   UNL     1       1.613  -7.476  26.917  0.00  0.00    +0.190 C 
BRANCH  16  17
ATOM     17  O   UNL     1       1.423  -8.882  27.008  0.00  0.00    -0.392 OA
ATOM     18  H   UNL     1       2.284  -9.283  27.207  0.00  0.00    +0.210 HD
ENDBRANCH  16  17
ENDBRANCH   8  16
ENDBRANCH   3   4
ENDBRANCH   2   3
ENDBRANCH   1   2
BRANCH   1  19
ATOM     19  C   UNL     1       4.167  -2.775  27.863  0.00  0.00    +0.279 C 
BRANCH  19  20
ATOM     20  O   UNL     1       4.266  -4.190  28.079  0.00  0.00    -0.461 OA
BRANCH  20  21
ATOM     21  C   UNL     1       5.517  -4.726  28.127  0.00  0.00    +0.307 C 
ATOM     22  O   UNL     1       6.031  -5.219  29.122  0.00  0.00    -0.251 OA
BRANCH  21  23
ATOM     23  C   UNL     1       6.194  -4.683  26.780  0.00  0.00    +0.120 C 
BRANCH  23  24
ATOM     24  C   UNL     1       7.474  -3.866  26.754  0.00  0.00    +0.011 C 
BRANCH  24  25
ATOM     25  C   UNL     1       8.719  -4.700  26.646  0.00  0.00    +0.001 C 
BRANCH  25  26
ATOM     26  C   UNL     1       9.027  -5.024  25.124  0.00  0.00    +0.000 C 
BRANCH  26  27
ATOM     27  C   UNL     1       9.802  -3.888  24.614  0.00  0.00    +0.000 C 
BRANCH  27  28
ATOM     28  C   UNL     1       9.393  -2.676  23.340  0.00  0.00    +0.000 C 
BRANCH  28  29
ATOM     29  C   UNL     1       7.838  -2.226  22.673  0.00  0.00    -0.000 C 
BRANCH  29  30
ATOM     30  C   UNL     1       6.447  -2.364  23.361  0.00  0.00    -0.000 C 
BRANCH  30  31
ATOM     31  C   UNL     1       5.732  -3.746  23.009  0.00  0.00    -0.000 C 
BRANCH  31  32
ATOM     32  C   UNL     1       5.973  -4.103  21.537  0.00  0.00    -0.000 C 
BRANCH  32  33
ATOM     33  C   UNL     1       6.112  -5.597  21.232  0.00  0.00    -0.003 C 
ATOM     34  C   UNL     1       7.239  -6.172  22.096  0.00  0.00    +0.004 C 
ENDBRANCH  32  33
ENDBRANCH  31  32
ENDBRANCH  30  31
ENDBRANCH  29  30
ENDBRANCH  28  29
ENDBRANCH  27  28
ENDBRANCH  26  27
ENDBRANCH  25  26
ENDBRANCH  24  25
ENDBRANCH  23  24
ENDBRANCH  21  23
ENDBRANCH  20  21
ENDBRANCH  19  20
ENDBRANCH   1  19
BRANCH   1  35
ATOM     35  O   UNL     1       3.224  -0.997  26.448  0.00  0.00    -0.456 OA
BRANCH  35  36
ATOM     36  C   UNL     1       3.220  -0.055  27.464  0.00  0.00    +0.308 C 
ATOM     37  O   UNL     1       2.279   0.169  28.213  0.00  0.00    -0.251 OA
BRANCH  36  38
ATOM     38  C   UNL     1       4.565   0.575  27.694  0.00  0.00    +0.120 C 
BRANCH  38  39
ATOM     39  C   UNL     1       5.426   0.441  26.377  0.00  0.00    +0.011 C 
BRANCH  39  40
ATOM     40  C   UNL     1       6.932   0.348  26.705  0.00  0.00    +0.001 C 
BRANCH  40  41
ATOM     41  C   UNL     1       8.261  -0.224  25.747  0.00  0.00    +0.000 C 
BRANCH  41  42
ATOM     42  C   UNL     1       9.742   0.630  25.183  0.00  0.00    +0.000 C 
BRANCH  42  43
ATOM     43  C   UNL     1      10.778   0.548  23.970  0.00  0.00    +0.000 C 
BRANCH  43  44
ATOM     44  C   UNL     1      10.063   0.655  22.576  0.00  0.00    -0.000 C 
BRANCH  44  45
ATOM     45  C   UNL     1       9.842   2.136  22.291  0.00  0.00    -0.000 C 
BRANCH  45  46
ATOM     46  C   UNL     1       8.442   2.426  21.801  0.00  0.00    -0.000 C 
BRANCH  46  47
ATOM     47  C   UNL     1       7.570   1.331  22.378  0.00  0.00    -0.000 C 
BRANCH  47  48
ATOM     48  C   UNL     1       6.445   1.931  23.184  0.00  0.00    -0.000 C 
BRANCH  48  49
ATOM     49  C   UNL     1       6.757   3.380  23.452  0.00  0.00    -0.000 C 
BRANCH  49  50
ATOM     50  C   UNL     1       6.767   3.582  24.957  0.00  0.00    -0.000 C 
BRANCH  50  52
ATOM     51  C   UNL     1       8.707   4.999  24.414  0.00  0.00    +0.004 C 
ATOM     52  C   UNL     1       8.166   3.964  25.384  0.00  0.00    -0.003 C 
ENDBRANCH  50  52
ENDBRANCH  49  50
ENDBRANCH  48  49
ENDBRANCH  47  48
ENDBRANCH  46  47
ENDBRANCH  45  46
ENDBRANCH  44  45
ENDBRANCH  43  44
ENDBRANCH  42  43
ENDBRANCH  41  42
ENDBRANCH  40  41
ENDBRANCH  39  40
ENDBRANCH  38  39
ENDBRANCH  36  38
ENDBRANCH  35  36
ENDBRANCH   1  35
TORSDOF 38
ENDMDL
MODEL 6
REMARK VINA RESULT:      -4.8      2.606      6.380
REMARK  Name = 
REMARK  40 active torsions:
REMARK  status: ('A' for Active; 'I' for Inactive)
REMARK    1  A    between atoms: C_1  and  C_2
REMARK    2  A    between atoms: C_2  and  C_3
REMARK    3  A    between atoms: C_3  and  C_4
REMARK    4  A    between atoms: C_4  and  C_5
REMARK    5  A    between atoms: C_5  and  C_6
REMARK    6  A    between atoms: C_6  and  C_7
REMARK    7  A    between atoms: C_7  and  C_8
REMARK    8  A    between atoms: C_8  and  C_9
REMARK    9  A    between atoms: C_9  and  C_10
REMARK   10  A    between atoms: C_10  and  C_11
REMARK   11  A    between atoms: C_11  and  C_12
REMARK   12  A    between atoms: C_12  and  C_13
REMARK   13  A    between atoms: C_13  and  C_14
REMARK   14  A    between atoms: C_14  and  C_15
REMARK   15  A    between atoms: C_15  and  C_16
REMARK   16  A    between atoms: C_16  and  O_18
REMARK   17  A    between atoms: O_18  and  C_19
REMARK   18  A    between atoms: C_19  and  C_21
REMARK   19  A    between atoms: C_19  and  C_39
REMARK   20  A    between atoms: C_21  and  O_22
REMARK   21  A    between atoms: O_22  and  C_23
REMARK   22  A    between atoms: C_26  and  C_28
REMARK   23  A    between atoms: C_28  and  O_29
REMARK   24  A    between atoms: C_30  and  O_32
REMARK   25  A    between atoms: C_33  and  O_35
REMARK   26  A    between atoms: C_36  and  O_38
REMARK   27  A    between atoms: C_39  and  O_40
REMARK   28  A    between atoms: O_40  and  C_41
REMARK   29  A    between atoms: C_41  and  C_43
REMARK   30  A    between atoms: C_43  and  C_44
REMARK   31  A    between atoms: C_44  and  C_45
REMARK   32  A    between atoms: C_45  and  C_46
REMARK   33  A    between atoms: C_46  and  C_47
REMARK   34  A    between atoms: C_47  and  C_48
REMARK   35  A    between atoms: C_48  and  C_49
REMARK   36  A    between atoms: C_49  and  C_50
REMARK   37  A    between atoms: C_50  and  C_51
REMARK   38  A    between atoms: C_51  and  C_52
REMARK   39  A    between atoms: C_52  and  C_53
REMARK   40  A    between atoms: C_53  and  C_54
REMARK                            x       y       z     vdW  Elec       q    Type
REMARK                         _______ _______ _______ _____ _____    ______ ____
ROOT
ATOM      1  C   UNL     1       9.432  -1.327  24.619  0.00  0.00    +0.239 C 
ENDROOT
BRANCH   1   2
ATOM      2  C   UNL     1       9.434  -0.270  25.722  0.00  0.00    +0.211 C 
BRANCH   2   3
ATOM      3  O   UNL     1       8.682  -0.611  26.891  0.00  0.00    -0.345 OA
BRANCH   3   4
ATOM      4  C   UNL     1       7.438   0.085  26.853  0.00  0.00    +0.282 C 
ATOM      5  C   UNL     1       6.961   0.523  28.253  0.00  0.00    +0.201 C 
ATOM      6  C   UNL     1       5.591   1.195  28.079  0.00  0.00    +0.179 C 
ATOM      7  C   UNL     1       5.612   2.330  27.028  0.00  0.00    +0.177 C 
ATOM      8  C   UNL     1       6.273   1.858  25.724  0.00  0.00    +0.178 C 
ATOM      9  O   UNL     1       7.525   1.221  25.978  0.00  0.00    -0.341 OA
BRANCH   7  10
ATOM     10  O   UNL     1       6.271   3.487  27.579  0.00  0.00    -0.386 OA
ATOM     11  H   UNL     1       6.175   4.225  26.953  0.00  0.00    +0.210 HD
ENDBRANCH   7  10
BRANCH   6  12
ATOM     12  O   UNL     1       5.143   1.661  29.359  0.00  0.00    -0.386 OA
ATOM     13  H   UNL     1       4.193   1.860  29.278  0.00  0.00    +0.210 HD
ENDBRANCH   6  12
BRANCH   5  14
ATOM     14  O   UNL     1       7.889   1.419  28.878  0.00  0.00    -0.384 OA
ATOM     15  H   UNL     1       8.549   0.844  29.310  0.00  0.00    +0.210 HD
ENDBRANCH   5  14
BRANCH   8  16
ATOM     16  C   UNL     1       5.372   0.988  24.844  0.00  0.00    +0.190 C 
BRANCH  16  17
ATOM     17  O   UNL     1       6.091   0.367  23.784  0.00  0.00    -0.392 OA
ATOM     18  H   UNL     1       6.465  -0.460  24.128  0.00  0.00    +0.210 HD
ENDBRANCH  16  17
ENDBRANCH   8  16
ENDBRANCH   3   4
ENDBRANCH   2   3
ENDBRANCH   1   2
BRANCH   1  19
ATOM     19  C   UNL     1       8.597  -2.528  25.118  0.00  0.00    +0.279 C 
BRANCH  19  20
ATOM     20  O   UNL     1       8.674  -3.675  24.259  0.00  0.00    -0.461 OA
BRANCH  20  21
ATOM     21  C   UNL     1       8.684  -4.900  24.856  0.00  0.00    +0.307 C 
ATOM     22  O   UNL     1       9.647  -5.655  24.892  0.00  0.00    -0.251 OA
BRANCH  21  23
ATOM     23  C   UNL     1       7.365  -5.208  25.519  0.00  0.00    +0.120 C 
BRANCH  23  24
ATOM     24  C   UNL     1       7.461  -5.438  27.017  0.00  0.00    +0.011 C 
BRANCH  24  25
ATOM     25  C   UNL     1       6.135  -5.390  27.720  0.00  0.00    +0.001 C 
BRANCH  25  26
ATOM     26  C   UNL     1       4.983  -5.872  26.742  0.00  0.00    +0.000 C 
BRANCH  26  27
ATOM     27  C   UNL     1       3.980  -4.802  26.734  0.00  0.00    +0.000 C 
BRANCH  27  28
ATOM     28  C   UNL     1       2.930  -4.198  25.394  0.00  0.00    +0.000 C 
BRANCH  28  29
ATOM     29  C   UNL     1       2.564  -4.919  23.842  0.00  0.00    -0.000 C 
BRANCH  29  30
ATOM     30  C   UNL     1       3.251  -6.159  23.197  0.00  0.00    -0.000 C 
BRANCH  30  31
ATOM     31  C   UNL     1       4.838  -6.003  23.126  0.00  0.00    -0.000 C 
BRANCH  31  32
ATOM     32  C   UNL     1       5.207  -4.608  22.606  0.00  0.00    -0.000 C 
BRANCH  32  33
ATOM     33  C   UNL     1       6.384  -4.554  21.629  0.00  0.00    -0.003 C 
ATOM     34  C   UNL     1       7.089  -5.915  21.634  0.00  0.00    +0.004 C 
ENDBRANCH  32  33
ENDBRANCH  31  32
ENDBRANCH  30  31
ENDBRANCH  29  30
ENDBRANCH  28  29
ENDBRANCH  27  28
ENDBRANCH  26  27
ENDBRANCH  25  26
ENDBRANCH  24  25
ENDBRANCH  23  24
ENDBRANCH  21  23
ENDBRANCH  20  21
ENDBRANCH  19  20
ENDBRANCH   1  19
BRANCH   1  35
ATOM     35  O   UNL     1       8.818  -0.761  23.419  0.00  0.00    -0.456 OA
BRANCH  35  36
ATOM     36  C   UNL     1       9.660  -0.689  22.321  0.00  0.00    +0.308 C 
ATOM     37  O   UNL     1      10.386  -1.592  21.930  0.00  0.00    -0.251 OA
BRANCH  36  38
ATOM     38  C   UNL     1       9.481   0.569  21.519  0.00  0.00    +0.120 C 
BRANCH  38  39
ATOM     39  C   UNL     1       9.858   1.809  22.421  0.00  0.00    +0.011 C 
BRANCH  39  40
ATOM     40  C   UNL     1       8.612   2.664  22.738  0.00  0.00    +0.001 C 
BRANCH  40  41
ATOM     41  C   UNL     1       7.152   2.907  21.835  0.00  0.00    +0.000 C 
BRANCH  41  42
ATOM     42  C   UNL     1       5.589   3.656  22.324  0.00  0.00    +0.000 C 
BRANCH  42  43
ATOM     43  C   UNL     1       5.001   4.499  23.547  0.00  0.00    +0.000 C 
BRANCH  43  44
ATOM     44  C   UNL     1       5.839   5.798  23.824  0.00  0.00    -0.000 C 
BRANCH  44  45
ATOM     45  C   UNL     1       6.324   6.323  22.477  0.00  0.00    -0.000 C 
BRANCH  45  46
ATOM     46  C   UNL     1       7.817   6.551  22.451  0.00  0.00    -0.000 C 
BRANCH  46  47
ATOM     47  C   UNL     1       8.306   6.230  23.848  0.00  0.00    -0.000 C 
BRANCH  47  48
ATOM     48  C   UNL     1       9.731   6.695  24.020  0.00  0.00    -0.000 C 
BRANCH  48  49
ATOM     49  C   UNL     1      10.646   5.501  23.938  0.00  0.00    -0.000 C 
BRANCH  49  50
ATOM     50  C   UNL     1      12.077   6.009  23.980  0.00  0.00    -0.000 C 
BRANCH  50  52
ATOM     51  C   UNL     1      13.433   5.766  21.939  0.00  0.00    +0.004 C 
ATOM     52  C   UNL     1      12.950   5.059  23.193  0.00  0.00    -0.003 C 
ENDBRANCH  50  52
ENDBRANCH  49  50
ENDBRANCH  48  49
ENDBRANCH  47  48
ENDBRANCH  46  47
ENDBRANCH  45  46
ENDBRANCH  44  45
ENDBRANCH  43  44
ENDBRANCH  42  43
ENDBRANCH  41  42
ENDBRANCH  40  41
ENDBRANCH  39  40
ENDBRANCH  38  39
ENDBRANCH  36  38
ENDBRANCH  35  36
ENDBRANCH   1  35
TORSDOF 38
ENDMDL
MODEL 7
REMARK VINA RESULT:      -4.8      1.615      3.099
REMARK  Name = 
REMARK  40 active torsions:
REMARK  status: ('A' for Active; 'I' for Inactive)
REMARK    1  A    between atoms: C_1  and  C_2
REMARK    2  A    between atoms: C_2  and  C_3
REMARK    3  A    between atoms: C_3  and  C_4
REMARK    4  A    between atoms: C_4  and  C_5
REMARK    5  A    between atoms: C_5  and  C_6
REMARK    6  A    between atoms: C_6  and  C_7
REMARK    7  A    between atoms: C_7  and  C_8
REMARK    8  A    between atoms: C_8  and  C_9
REMARK    9  A    between atoms: C_9  and  C_10
REMARK   10  A    between atoms: C_10  and  C_11
REMARK   11  A    between atoms: C_11  and  C_12
REMARK   12  A    between atoms: C_12  and  C_13
REMARK   13  A    between atoms: C_13  and  C_14
REMARK   14  A    between atoms: C_14  and  C_15
REMARK   15  A    between atoms: C_15  and  C_16
REMARK   16  A    between atoms: C_16  and  O_18
REMARK   17  A    between atoms: O_18  and  C_19
REMARK   18  A    between atoms: C_19  and  C_21
REMARK   19  A    between atoms: C_19  and  C_39
REMARK   20  A    between atoms: C_21  and  O_22
REMARK   21  A    between atoms: O_22  and  C_23
REMARK   22  A    between atoms: C_26  and  C_28
REMARK   23  A    between atoms: C_28  and  O_29
REMARK   24  A    between atoms: C_30  and  O_32
REMARK   25  A    between atoms: C_33  and  O_35
REMARK   26  A    between atoms: C_36  and  O_38
REMARK   27  A    between atoms: C_39  and  O_40
REMARK   28  A    between atoms: O_40  and  C_41
REMARK   29  A    between atoms: C_41  and  C_43
REMARK   30  A    between atoms: C_43  and  C_44
REMARK   31  A    between atoms: C_44  and  C_45
REMARK   32  A    between atoms: C_45  and  C_46
REMARK   33  A    between atoms: C_46  and  C_47
REMARK   34  A    between atoms: C_47  and  C_48
REMARK   35  A    between atoms: C_48  and  C_49
REMARK   36  A    between atoms: C_49  and  C_50
REMARK   37  A    between atoms: C_50  and  C_51
REMARK   38  A    between atoms: C_51  and  C_52
REMARK   39  A    between atoms: C_52  and  C_53
REMARK   40  A    between atoms: C_53  and  C_54
REMARK                            x       y       z     vdW  Elec       q    Type
REMARK                         _______ _______ _______ _____ _____    ______ ____
ROOT
ATOM      1  C   UNL     1       6.890  -3.146  23.242  0.00  0.00    +0.239 C 
ENDROOT
BRANCH   1   2
ATOM      2  C   UNL     1       5.363  -3.186  23.259  0.00  0.00    +0.211 C 
BRANCH   2   3
ATOM      3  O   UNL     1       4.776  -4.243  22.492  0.00  0.00    -0.345 OA
BRANCH   3   4
ATOM      4  C   UNL     1       3.783  -4.886  23.287  0.00  0.00    +0.282 C 
ATOM      5  C   UNL     1       3.747  -6.413  23.069  0.00  0.00    +0.201 C 
ATOM      6  C   UNL     1       2.600  -6.970  23.926  0.00  0.00    +0.179 C 
ATOM      7  C   UNL     1       2.700  -6.540  25.407  0.00  0.00    +0.177 C 
ATOM      8  C   UNL     1       2.919  -5.024  25.526  0.00  0.00    +0.178 C 
ATOM      9  O   UNL     1       3.981  -4.586  24.678  0.00  0.00    -0.341 OA
BRANCH   7  10
ATOM     10  O   UNL     1       3.744  -7.289  26.060  0.00  0.00    -0.386 OA
ATOM     11  H   UNL     1       3.501  -7.409  26.995  0.00  0.00    +0.210 HD
ENDBRANCH   7  10
BRANCH   6  12
ATOM     12  O   UNL     1       2.574  -8.397  23.784  0.00  0.00    -0.386 OA
ATOM     13  H   UNL     1       2.372  -8.771  24.661  0.00  0.00    +0.210 HD
ENDBRANCH   6  12
BRANCH   5  14
ATOM     14  O   UNL     1       4.990  -7.033  23.421  0.00  0.00    -0.384 OA
ATOM     15  H   UNL     1       5.550  -6.954  22.626  0.00  0.00    +0.210 HD
ENDBRANCH   5  14
BRANCH   8  16
ATOM     16  C   UNL     1       1.655  -4.188  25.313  0.00  0.00    +0.190 C 
BRANCH  16  17
ATOM     17  O   UNL     1       1.582  -3.083  26.205  0.00  0.00    -0.392 OA
ATOM     18  H   UNL     1       2.484  -2.745  26.328  0.00  0.00    +0.210 HD
ENDBRANCH  16  17
ENDBRANCH   8  16
ENDBRANCH   3   4
ENDBRANCH   2   3
ENDBRANCH   1   2
BRANCH   1  19
ATOM     19  C   UNL     1       7.396  -4.540  22.807  0.00  0.00    +0.279 C 
BRANCH  19  20
ATOM     20  O   UNL     1       7.656  -5.425  23.906  0.00  0.00    -0.461 OA
BRANCH  20  21
ATOM     21  C   UNL     1       8.595  -5.033  24.812  0.00  0.00    +0.307 C 
ATOM     22  O   UNL     1       9.688  -4.560  24.530  0.00  0.00    -0.251 OA
BRANCH  21  23
ATOM     23  C   UNL     1       8.110  -5.210  26.230  0.00  0.00    +0.120 C 
BRANCH  23  24
ATOM     24  C   UNL     1       7.402  -3.993  26.800  0.00  0.00    +0.011 C 
BRANCH  24  25
ATOM     25  C   UNL     1       6.026  -4.289  27.326  0.00  0.00    +0.001 C 
BRANCH  25  26
ATOM     26  C   UNL     1       5.225  -2.937  27.543  0.00  0.00    +0.000 C 
BRANCH  26  27
ATOM     27  C   UNL     1       5.931  -1.914  26.764  0.00  0.00    +0.000 C 
BRANCH  27  28
ATOM     28  C   UNL     1       6.501  -0.270  27.246  0.00  0.00    +0.000 C 
BRANCH  28  29
ATOM     29  C   UNL     1       5.811   1.303  26.908  0.00  0.00    -0.000 C 
BRANCH  29  30
ATOM     30  C   UNL     1       4.703   1.637  25.865  0.00  0.00    -0.000 C 
BRANCH  30  31
ATOM     31  C   UNL     1       3.304   1.974  26.555  0.00  0.00    -0.000 C 
BRANCH  31  32
ATOM     32  C   UNL     1       3.213   3.476  26.853  0.00  0.00    -0.000 C 
BRANCH  32  33
ATOM     33  C   UNL     1       3.762   4.403  25.766  0.00  0.00    -0.003 C 
ATOM     34  C   UNL     1       2.783   4.411  24.587  0.00  0.00    +0.004 C 
ENDBRANCH  32  33
ENDBRANCH  31  32
ENDBRANCH  30  31
ENDBRANCH  29  30
ENDBRANCH  28  29
ENDBRANCH  27  28
ENDBRANCH  26  27
ENDBRANCH  25  26
ENDBRANCH  24  25
ENDBRANCH  23  24
ENDBRANCH  21  23
ENDBRANCH  20  21
ENDBRANCH  19  20
ENDBRANCH   1  19
BRANCH   1  35
ATOM     35  O   UNL     1       7.329  -2.138  22.278  0.00  0.00    -0.456 OA
BRANCH  35  36
ATOM     36  C   UNL     1       8.241  -1.222  22.778  0.00  0.00    +0.308 C 
ATOM     37  O   UNL     1       8.325  -0.879  23.949  0.00  0.00    -0.251 OA
BRANCH  36  38
ATOM     38  C   UNL     1       9.266  -0.793  21.766  0.00  0.00    +0.120 C 
BRANCH  38  39
ATOM     39  C   UNL     1       9.009   0.717  21.384  0.00  0.00    +0.011 C 
BRANCH  39  40
ATOM     40  C   UNL     1      10.059   1.641  22.038  0.00  0.00    +0.001 C 
BRANCH  40  41
ATOM     41  C   UNL     1      10.118   2.333  23.628  0.00  0.00    +0.000 C 
BRANCH  41  42
ATOM     42  C   UNL     1       8.798   2.648  24.811  0.00  0.00    +0.000 C 
BRANCH  42  43
ATOM     43  C   UNL     1       7.672   3.749  25.078  0.00  0.00    +0.000 C 
BRANCH  43  44
ATOM     44  C   UNL     1       6.753   3.969  23.825  0.00  0.00    -0.000 C 
BRANCH  44  45
ATOM     45  C   UNL     1       6.636   5.473  23.603  0.00  0.00    -0.000 C 
BRANCH  45  46
ATOM     46  C   UNL     1       7.681   5.996  22.644  0.00  0.00    -0.000 C 
BRANCH  46  47
ATOM     47  C   UNL     1       8.685   6.742  23.497  0.00  0.00    -0.000 C 
BRANCH  47  48
ATOM     48  C   UNL     1      10.045   6.101  23.380  0.00  0.00    -0.000 C 
BRANCH  48  49
ATOM     49  C   UNL     1      10.829   6.389  24.634  0.00  0.00    -0.000 C 
BRANCH  49  50
ATOM     50  C   UNL     1      12.298   6.155  24.327  0.00  0.00    -0.000 C 
BRANCH  50  52
ATOM     51  C   UNL     1      13.391   5.637  22.182  0.00  0.00    +0.004 C 
ATOM     52  C   UNL     1      12.403   5.133  23.218  0.00  0.00    -0.003 C 
ENDBRANCH  50  52
ENDBRANCH  49  50
ENDBRANCH  48  49
ENDBRANCH  47  48
ENDBRANCH  46  47
ENDBRANCH  45  46
ENDBRANCH  44  45
ENDBRANCH  43  44
ENDBRANCH  42  43
ENDBRANCH  41  42
ENDBRANCH  40  41
ENDBRANCH  39  40
ENDBRANCH  38  39
ENDBRANCH  36  38
ENDBRANCH  35  36
ENDBRANCH   1  35
TORSDOF 38
ENDMDL
MODEL 8
REMARK VINA RESULT:      -4.7      2.008      6.054
REMARK  Name = 
REMARK  40 active torsions:
REMARK  status: ('A' for Active; 'I' for Inactive)
REMARK    1  A    between atoms: C_1  and  C_2
REMARK    2  A    between atoms: C_2  and  C_3
REMARK    3  A    between atoms: C_3  and  C_4
REMARK    4  A    between atoms: C_4  and  C_5
REMARK    5  A    between atoms: C_5  and  C_6
REMARK    6  A    between atoms: C_6  and  C_7
REMARK    7  A    between atoms: C_7  and  C_8
REMARK    8  A    between atoms: C_8  and  C_9
REMARK    9  A    between atoms: C_9  and  C_10
REMARK   10  A    between atoms: C_10  and  C_11
REMARK   11  A    between atoms: C_11  and  C_12
REMARK   12  A    between atoms: C_12  and  C_13
REMARK   13  A    between atoms: C_13  and  C_14
REMARK   14  A    between atoms: C_14  and  C_15
REMARK   15  A    between atoms: C_15  and  C_16
REMARK   16  A    between atoms: C_16  and  O_18
REMARK   17  A    between atoms: O_18  and  C_19
REMARK   18  A    between atoms: C_19  and  C_21
REMARK   19  A    between atoms: C_19  and  C_39
REMARK   20  A    between atoms: C_21  and  O_22
REMARK   21  A    between atoms: O_22  and  C_23
REMARK   22  A    between atoms: C_26  and  C_28
REMARK   23  A    between atoms: C_28  and  O_29
REMARK   24  A    between atoms: C_30  and  O_32
REMARK   25  A    between atoms: C_33  and  O_35
REMARK   26  A    between atoms: C_36  and  O_38
REMARK   27  A    between atoms: C_39  and  O_40
REMARK   28  A    between atoms: O_40  and  C_41
REMARK   29  A    between atoms: C_41  and  C_43
REMARK   30  A    between atoms: C_43  and  C_44
REMARK   31  A    between atoms: C_44  and  C_45
REMARK   32  A    between atoms: C_45  and  C_46
REMARK   33  A    between atoms: C_46  and  C_47
REMARK   34  A    between atoms: C_47  and  C_48
REMARK   35  A    between atoms: C_48  and  C_49
REMARK   36  A    between atoms: C_49  and  C_50
REMARK   37  A    between atoms: C_50  and  C_51
REMARK   38  A    between atoms: C_51  and  C_52
REMARK   39  A    between atoms: C_52  and  C_53
REMARK   40  A    between atoms: C_53  and  C_54
REMARK                            x       y       z     vdW  Elec       q    Type
REMARK                         _______ _______ _______ _____ _____    ______ ____
ROOT
ATOM      1  C   UNL     1       7.845  -4.737  25.562  0.00  0.00    +0.239 C 
ENDROOT
BRANCH   1   2
ATOM      2  C   UNL     1       9.011  -3.750  25.567  0.00  0.00    +0.211 C 
BRANCH   2   3
ATOM      3  O   UNL     1       9.777  -3.710  24.357  0.00  0.00    -0.345 OA
BRANCH   3   4
ATOM      4  C   UNL     1       9.852  -2.358  23.910  0.00  0.00    +0.282 C 
ATOM      5  C   UNL     1       9.476  -2.205  22.422  0.00  0.00    +0.201 C 
ATOM      6  C   UNL     1       9.662  -0.725  22.054  0.00  0.00    +0.179 C 
ATOM      7  C   UNL     1       8.901   0.227  23.005  0.00  0.00    +0.177 C 
ATOM      8  C   UNL     1       9.192  -0.117  24.474  0.00  0.00    +0.178 C 
ATOM      9  O   UNL     1       9.023  -1.513  24.723  0.00  0.00    -0.341 OA
BRANCH   7  10
ATOM     10  O   UNL     1       7.491   0.182  22.709  0.00  0.00    -0.386 OA
ATOM     11  H   UNL     1       7.373   0.284  21.749  0.00  0.00    +0.210 HD
ENDBRANCH   7  10
BRANCH   6  12
ATOM     12  O   UNL     1       9.270  -0.540  20.687  0.00  0.00    -0.386 OA
ATOM     13  H   UNL     1      10.063  -0.675  20.137  0.00  0.00    +0.210 HD
ENDBRANCH   6  12
BRANCH   5  14
ATOM     14  O   UNL     1       8.130  -2.625  22.164  0.00  0.00    -0.384 OA
ATOM     15  H   UNL     1       7.576  -2.092  22.765  0.00  0.00    +0.210 HD
ENDBRANCH   5  14
BRANCH   8  16
ATOM     16  C   UNL     1      10.550   0.379  24.978  0.00  0.00    +0.190 C 
BRANCH  16  17
ATOM     17  O   UNL     1      10.994   1.536  24.279  0.00  0.00    -0.392 OA
ATOM     18  H   UNL     1      10.645   2.313  24.744  0.00  0.00    +0.210 HD
ENDBRANCH  16  17
ENDBRANCH   8  16
ENDBRANCH   3   4
ENDBRANCH   2   3
ENDBRANCH   1   2
BRANCH   1  19
ATOM     19  C   UNL     1       7.171  -4.678  26.951  0.00  0.00    +0.279 C 
BRANCH  19  20
ATOM     20  O   UNL     1       7.105  -5.951  27.611  0.00  0.00    -0.461 OA
BRANCH  20  21
ATOM     21  C   UNL     1       5.871  -6.409  27.959  0.00  0.00    +0.307 C 
ATOM     22  O   UNL     1       5.657  -7.413  28.625  0.00  0.00    -0.251 OA
BRANCH  21  23
ATOM     23  C   UNL     1       4.777  -5.498  27.459  0.00  0.00    +0.120 C 
BRANCH  23  24
ATOM     24  C   UNL     1       3.510  -5.532  28.296  0.00  0.00    +0.011 C 
BRANCH  24  25
ATOM     25  C   UNL     1       2.993  -4.169  28.660  0.00  0.00    +0.001 C 
BRANCH  25  26
ATOM     26  C   UNL     1       4.159  -3.294  29.284  0.00  0.00    +0.000 C 
BRANCH  26  27
ATOM     27  C   UNL     1       3.539  -2.035  29.714  0.00  0.00    +0.000 C 
BRANCH  27  28
ATOM     28  C   UNL     1       4.263  -0.396  29.935  0.00  0.00    +0.000 C 
BRANCH  28  29
ATOM     29  C   UNL     1       3.586   1.185  29.609  0.00  0.00    -0.000 C 
BRANCH  29  30
ATOM     30  C   UNL     1       2.501   1.541  28.549  0.00  0.00    -0.000 C 
BRANCH  30  31
ATOM     31  C   UNL     1       2.942   2.758  27.616  0.00  0.00    -0.000 C 
BRANCH  31  32
ATOM     32  C   UNL     1       3.435   2.233  26.262  0.00  0.00    -0.000 C 
BRANCH  32  33
ATOM     33  C   UNL     1       3.863   3.301  25.253  0.00  0.00    -0.003 C 
ATOM     34  C   UNL     1       4.613   2.618  24.104  0.00  0.00    +0.004 C 
ENDBRANCH  32  33
ENDBRANCH  31  32
ENDBRANCH  30  31
ENDBRANCH  29  30
ENDBRANCH  28  29
ENDBRANCH  27  28
ENDBRANCH  26  27
ENDBRANCH  25  26
ENDBRANCH  24  25
ENDBRANCH  23  24
ENDBRANCH  21  23
ENDBRANCH  20  21
ENDBRANCH  19  20
ENDBRANCH   1  19
BRANCH   1  35
ATOM     35  O   UNL     1       6.888  -4.338  24.531  0.00  0.00    -0.456 OA
BRANCH  35  36
ATOM     36  C   UNL     1       6.639  -5.306  23.571  0.00  0.00    +0.308 C 
ATOM     37  O   UNL     1       7.385  -5.586  22.643  0.00  0.00    -0.251 OA
BRANCH  36  38
ATOM     38  C   UNL     1       5.418  -6.132  23.865  0.00  0.00    +0.120 C 
BRANCH  38  39
ATOM     39  C   UNL     1       4.221  -5.610  22.978  0.00  0.00    +0.011 C 
BRANCH  39  40
ATOM     40  C   UNL     1       3.063  -5.090  23.857  0.00  0.00    +0.001 C 
BRANCH  40  41
ATOM     41  C   UNL     1       2.974  -3.708  24.902  0.00  0.00    +0.000 C 
BRANCH  41  42
ATOM     42  C   UNL     1       4.257  -2.559  25.427  0.00  0.00    +0.000 C 
BRANCH  42  43
ATOM     43  C   UNL     1       4.377  -1.212  26.277  0.00  0.00    +0.000 C 
BRANCH  43  44
ATOM     44  C   UNL     1       5.727  -0.459  26.000  0.00  0.00    -0.000 C 
BRANCH  44  45
ATOM     45  C   UNL     1       6.683  -0.806  27.136  0.00  0.00    -0.000 C 
BRANCH  45  46
ATOM     46  C   UNL     1       7.149   0.418  27.890  0.00  0.00    -0.000 C 
BRANCH  46  47
ATOM     47  C   UNL     1       6.914   1.589  26.958  0.00  0.00    -0.000 C 
BRANCH  47  48
ATOM     48  C   UNL     1       6.975   2.885  27.727  0.00  0.00    -0.000 C 
BRANCH  48  49
ATOM     49  C   UNL     1       7.119   4.024  26.751  0.00  0.00    -0.000 C 
BRANCH  49  50
ATOM     50  C   UNL     1       7.958   3.533  25.585  0.00  0.00    -0.000 C 
BRANCH  50  52
ATOM     51  C   UNL     1       8.435   3.876  23.193  0.00  0.00    +0.004 C 
ATOM     52  C   UNL     1       7.750   4.465  24.413  0.00  0.00    -0.003 C 
ENDBRANCH  50  52
ENDBRANCH  49  50
ENDBRANCH  48  49
ENDBRANCH  47  48
ENDBRANCH  46  47
ENDBRANCH  45  46
ENDBRANCH  44  45
ENDBRANCH  43  44
ENDBRANCH  42  43
ENDBRANCH  41  42
ENDBRANCH  40  41
ENDBRANCH  39  40
ENDBRANCH  38  39
ENDBRANCH  36  38
ENDBRANCH  35  36
ENDBRANCH   1  35
TORSDOF 38
ENDMDL
MODEL 9
REMARK VINA RESULT:      -4.7      2.259      7.530
REMARK  Name = 
REMARK  40 active torsions:
REMARK  status: ('A' for Active; 'I' for Inactive)
REMARK    1  A    between atoms: C_1  and  C_2
REMARK    2  A    between atoms: C_2  and  C_3
REMARK    3  A    between atoms: C_3  and  C_4
REMARK    4  A    between atoms: C_4  and  C_5
REMARK    5  A    between atoms: C_5  and  C_6
REMARK    6  A    between atoms: C_6  and  C_7
REMARK    7  A    between atoms: C_7  and  C_8
REMARK    8  A    between atoms: C_8  and  C_9
REMARK    9  A    between atoms: C_9  and  C_10
REMARK   10  A    between atoms: C_10  and  C_11
REMARK   11  A    between atoms: C_11  and  C_12
REMARK   12  A    between atoms: C_12  and  C_13
REMARK   13  A    between atoms: C_13  and  C_14
REMARK   14  A    between atoms: C_14  and  C_15
REMARK   15  A    between atoms: C_15  and  C_16
REMARK   16  A    between atoms: C_16  and  O_18
REMARK   17  A    between atoms: O_18  and  C_19
REMARK   18  A    between atoms: C_19  and  C_21
REMARK   19  A    between atoms: C_19  and  C_39
REMARK   20  A    between atoms: C_21  and  O_22
REMARK   21  A    between atoms: O_22  and  C_23
REMARK   22  A    between atoms: C_26  and  C_28
REMARK   23  A    between atoms: C_28  and  O_29
REMARK   24  A    between atoms: C_30  and  O_32
REMARK   25  A    between atoms: C_33  and  O_35
REMARK   26  A    between atoms: C_36  and  O_38
REMARK   27  A    between atoms: C_39  and  O_40
REMARK   28  A    between atoms: O_40  and  C_41
REMARK   29  A    between atoms: C_41  and  C_43
REMARK   30  A    between atoms: C_43  and  C_44
REMARK   31  A    between atoms: C_44  and  C_45
REMARK   32  A    between atoms: C_45  and  C_46
REMARK   33  A    between atoms: C_46  and  C_47
REMARK   34  A    between atoms: C_47  and  C_48
REMARK   35  A    between atoms: C_48  and  C_49
REMARK   36  A    between atoms: C_49  and  C_50
REMARK   37  A    between atoms: C_50  and  C_51
REMARK   38  A    between atoms: C_51  and  C_52
REMARK   39  A    between atoms: C_52  and  C_53
REMARK   40  A    between atoms: C_53  and  C_54
REMARK                            x       y       z     vdW  Elec       q    Type
REMARK                         _______ _______ _______ _____ _____    ______ ____
ROOT
ATOM      1  C   UNL     1       7.983  -2.413  25.329  0.00  0.00    +0.239 C 
ENDROOT
BRANCH   1   2
ATOM      2  C   UNL     1       8.243  -1.145  26.140  0.00  0.00    +0.211 C 
BRANCH   2   3
ATOM      3  O   UNL     1       8.171   0.076  25.397  0.00  0.00    -0.345 OA
BRANCH   3   4
ATOM      4  C   UNL     1       7.128   0.882  25.940  0.00  0.00    +0.282 C 
ATOM      5  C   UNL     1       6.011   1.175  24.918  0.00  0.00    +0.201 C 
ATOM      6  C   UNL     1       4.993   2.097  25.604  0.00  0.00    +0.179 C 
ATOM      7  C   UNL     1       4.490   1.532  26.952  0.00  0.00    +0.177 C 
ATOM      8  C   UNL     1       5.667   1.094  27.838  0.00  0.00    +0.178 C 
ATOM      9  O   UNL     1       6.578   0.264  27.116  0.00  0.00    -0.341 OA
BRANCH   7  10
ATOM     10  O   UNL     1       3.566   0.453  26.711  0.00  0.00    -0.386 OA
ATOM     11  H   UNL     1       3.442   0.361  25.750  0.00  0.00    +0.210 HD
ENDBRANCH   7  10
BRANCH   6  12
ATOM     12  O   UNL     1       3.914   2.347  24.693  0.00  0.00    -0.386 OA
ATOM     13  H   UNL     1       3.593   1.481  24.381  0.00  0.00    +0.210 HD
ENDBRANCH   6  12
BRANCH   5  14
ATOM     14  O   UNL     1       5.377  -0.026  24.459  0.00  0.00    -0.384 OA
ATOM     15  H   UNL     1       4.524   0.262  24.083  0.00  0.00    +0.210 HD
ENDBRANCH   5  14
BRANCH   8  16
ATOM     16  C   UNL     1       6.395   2.249  28.531  0.00  0.00    +0.190 C 
BRANCH  16  17
ATOM     17  O   UNL     1       7.545   1.811  29.244  0.00  0.00    -0.392 OA
ATOM     18  H   UNL     1       7.263   1.582  30.144  0.00  0.00    +0.210 HD
ENDBRANCH  16  17
ENDBRANCH   8  16
ENDBRANCH   3   4
ENDBRANCH   2   3
ENDBRANCH   1   2
BRANCH   1  19
ATOM     19  C   UNL     1       8.188  -2.070  23.836  0.00  0.00    +0.279 C 
BRANCH  19  20
ATOM     20  O   UNL     1       9.563  -2.088  23.427  0.00  0.00    -0.461 OA
BRANCH  20  21
ATOM     21  C   UNL     1      10.075  -0.935  22.913  0.00  0.00    +0.307 C 
ATOM     22  O   UNL     1      10.947  -0.258  23.441  0.00  0.00    -0.251 OA
BRANCH  21  23
ATOM     23  C   UNL     1       9.467  -0.604  21.573  0.00  0.00    +0.120 C 
BRANCH  23  24
ATOM     24  C   UNL     1       9.261   0.882  21.335  0.00  0.00    +0.011 C 
BRANCH  24  25
ATOM     25  C   UNL     1       8.027   1.432  21.993  0.00  0.00    +0.001 C 
BRANCH  25  26
ATOM     26  C   UNL     1       8.308   2.893  22.541  0.00  0.00    +0.000 C 
BRANCH  26  27
ATOM     27  C   UNL     1       9.417   2.767  23.491  0.00  0.00    +0.000 C 
BRANCH  27  28
ATOM     28  C   UNL     1      11.123   3.349  23.377  0.00  0.00    +0.000 C 
BRANCH  28  29
ATOM     29  C   UNL     1      11.759   4.980  23.408  0.00  0.00    -0.000 C 
BRANCH  29  30
ATOM     30  C   UNL     1      11.203   6.188  24.220  0.00  0.00    -0.000 C 
BRANCH  30  31
ATOM     31  C   UNL     1       9.669   6.482  23.895  0.00  0.00    -0.000 C 
BRANCH  31  32
ATOM     32  C   UNL     1       8.874   6.631  25.199  0.00  0.00    -0.000 C 
BRANCH  32  33
ATOM     33  C   UNL     1       8.362   5.327  25.816  0.00  0.00    -0.003 C 
ATOM     34  C   UNL     1       7.439   5.668  26.990  0.00  0.00    +0.004 C 
ENDBRANCH  32  33
ENDBRANCH  31  32
ENDBRANCH  30  31
ENDBRANCH  29  30
ENDBRANCH  28  29
ENDBRANCH  27  28
ENDBRANCH  26  27
ENDBRANCH  25  26
ENDBRANCH  24  25
ENDBRANCH  23  24
ENDBRANCH  21  23
ENDBRANCH  20  21
ENDBRANCH  19  20
ENDBRANCH   1  19
BRANCH   1  35
ATOM     35  O   UNL     1       8.939  -3.442  25.736  0.00  0.00    -0.456 OA
BRANCH  35  36
ATOM     36  C   UNL     1       8.653  -4.712  25.261  0.00  0.00    +0.308 C 
ATOM     37  O   UNL     1       9.428  -5.419  24.632  0.00  0.00    -0.251 OA
BRANCH  36  38
ATOM     38  C   UNL     1       7.331  -5.241  25.742  0.00  0.00    +0.120 C 
BRANCH  38  39
ATOM     39  C   UNL     1       7.433  -5.549  27.287  0.00  0.00    +0.011 C 
BRANCH  39  40
ATOM     40  C   UNL     1       6.048  -5.454  27.964  0.00  0.00    +0.001 C 
BRANCH  40  41
ATOM     41  C   UNL     1       4.967  -4.108  28.136  0.00  0.00    +0.000 C 
BRANCH  41  42
ATOM     42  C   UNL     1       4.402  -2.904  26.923  0.00  0.00    +0.000 C 
BRANCH  42  43
ATOM     43  C   UNL     1       3.605  -2.889  25.539  0.00  0.00    +0.000 C 
BRANCH  43  44
ATOM     44  C   UNL     1       2.222  -3.624  25.647  0.00  0.00    -0.000 C 
BRANCH  44  45
ATOM     45  C   UNL     1       2.501  -5.123  25.633  0.00  0.00    -0.000 C 
BRANCH  45  46
ATOM     46  C   UNL     1       2.071  -5.776  24.339  0.00  0.00    -0.000 C 
BRANCH  46  47
ATOM     47  C   UNL     1       3.003  -6.954  24.144  0.00  0.00    -0.000 C 
BRANCH  47  48
ATOM     48  C   UNL     1       4.438  -6.489  24.158  0.00  0.00    -0.000 C 
BRANCH  48  49
ATOM     49  C   UNL     1       4.838  -6.103  22.758  0.00  0.00    -0.000 C 
BRANCH  49  50
ATOM     50  C   UNL     1       5.215  -4.632  22.773  0.00  0.00    -0.000 C 
BRANCH  50  52
ATOM     51  C   UNL     1       7.075  -5.795  21.656  0.00  0.00    +0.004 C 
ATOM     52  C   UNL     1       6.445  -4.439  21.916  0.00  0.00    -0.003 C 
ENDBRANCH  50  52
ENDBRANCH  49  50
ENDBRANCH  48  49
ENDBRANCH  47  48
ENDBRANCH  46  47
ENDBRANCH  45  46
ENDBRANCH  44  45
ENDBRANCH  43  44
ENDBRANCH  42  43
ENDBRANCH  41  42
ENDBRANCH  40  41
ENDBRANCH  39  40
ENDBRANCH  38  39
ENDBRANCH  36  38
ENDBRANCH  35  36
ENDBRANCH   1  35
TORSDOF 38
ENDMDL
