MODEL 1
REMARK VINA RESULT:      -6.7      0.000      0.000
REMARK  Name = 
REMARK  5 active torsions:
REMARK  status: ('A' for Active; 'I' for Inactive)
REMARK    1  A    between atoms: O5*_1  and  C5*_2
REMARK    2  A    between atoms: C5*_2  and  C4*_3
REMARK    3  A    between atoms: C1*_6  and  N_14
REMARK    4  A    between atoms: C2*_8  and  O2*_10
REMARK    5  A    between atoms: C3*_11  and  O3*_13
REMARK                            x       y       z     vdW  Elec       q    Type
REMARK                         _______ _______ _______ _____ _____    ______ ____
ROOT
ATOM      1  C4* UNL     1       8.739  -4.624  26.585  0.00  0.00    +0.177 C 
ATOM      2  C3* UNL     1       9.161  -5.058  25.181  0.00  0.00    +0.178 C 
ATOM      3  C2* UNL     1       8.911  -3.843  24.290  0.00  0.00    +0.195 C 
ATOM      4  C1* UNL     1       8.384  -2.772  25.257  0.00  0.00    +0.257 C 
ATOM      5  O4* UNL     1       8.789  -3.177  26.575  0.00  0.00    -0.346 OA
ENDROOT
BRANCH   4   6
ATOM      6  N   UNL     1       8.952  -1.448  25.023  0.00  0.00    -0.244 N 
ATOM      7  C   UNL     1       9.172  -0.893  23.783  0.00  0.00    +0.216 A 
ATOM      8  N   UNL     1       8.973  -1.490  22.565  0.00  0.00    -0.212 NA
ATOM      9  C   UNL     1       9.280  -0.656  21.550  0.00  0.00    +0.223 A 
ATOM     10  N   UNL     1       9.753   0.615  21.652  0.00  0.00    -0.237 NA
ATOM     11  C   UNL     1       9.948   1.165  22.884  0.00  0.00    +0.194 A 
ATOM     12  C   UNL     1       9.646   0.394  23.995  0.00  0.00    +0.268 A 
ATOM     13  N   UNL     1       9.692   0.563  25.361  0.00  0.00    -0.192 N 
ATOM     14  H   UNL     1       9.991   1.404  25.849  0.00  0.00    +0.455 HD
ATOM     15  C   UNL     1       9.248  -0.548  25.968  0.00  0.00    +0.411 A 
ENDBRANCH   4   6
BRANCH   2  16
ATOM     16  O3* UNL     1      10.567  -5.357  25.144  0.00  0.00    -0.386 OA
ATOM     17  H3* UNL     1      10.706  -6.316  25.083  0.00  0.00    +0.210 HD
ENDBRANCH   2  16
BRANCH   3  18
ATOM     18  O2* UNL     1       7.989  -4.156  23.248  0.00  0.00    -0.385 OA
ATOM     19  H2* UNL     1       7.277  -4.704  23.627  0.00  0.00    +0.210 HD
ENDBRANCH   3  18
BRANCH   1  20
ATOM     20  C5* UNL     1       7.336  -5.114  26.981  0.00  0.00    +0.190 C 
BRANCH  20  21
ATOM     21  O5* UNL     1       7.414  -6.157  27.943  0.00  0.00    -0.392 OA
ATOM     22  H5* UNL     1       8.360  -6.299  28.141  0.00  0.00    +0.210 HD
ENDBRANCH  20  21
ENDBRANCH   1  20
TORSDOF 5
ENDMDL
MODEL 2
REMARK VINA RESULT:      -6.6      1.488      2.517
REMARK  Name = 
REMARK  5 active torsions:
REMARK  status: ('A' for Active; 'I' for Inactive)
REMARK    1  A    between atoms: O5*_1  and  C5*_2
REMARK    2  A    between atoms: C5*_2  and  C4*_3
REMARK    3  A    between atoms: C1*_6  and  N_14
REMARK    4  A    between atoms: C2*_8  and  O2*_10
REMARK    5  A    between atoms: C3*_11  and  O3*_13
REMARK                            x       y       z     vdW  Elec       q    Type
REMARK                         _______ _______ _______ _____ _____    ______ ____
ROOT
ATOM      1  C4* UNL     1       9.207  -4.693  24.823  0.00  0.00    +0.177 C 
ATOM      2  C3* UNL     1       7.816  -4.831  24.204  0.00  0.00    +0.178 C 
ATOM      3  C2* UNL     1       7.422  -3.420  23.772  0.00  0.00    +0.195 C 
ATOM      4  C1* UNL     1       8.639  -2.561  24.150  0.00  0.00    +0.257 C 
ATOM      5  O4* UNL     1       9.749  -3.463  24.286  0.00  0.00    -0.346 OA
ENDROOT
BRANCH   4   6
ATOM      6  N   UNL     1       9.001  -1.586  23.127  0.00  0.00    -0.244 N 
ATOM      7  C   UNL     1       9.425  -0.301  23.377  0.00  0.00    +0.216 A 
ATOM      8  N   UNL     1       9.515   0.314  24.599  0.00  0.00    -0.212 NA
ATOM      9  C   UNL     1       9.980   1.576  24.485  0.00  0.00    +0.223 A 
ATOM     10  N   UNL     1      10.310   2.222  23.335  0.00  0.00    -0.237 NA
ATOM     11  C   UNL     1      10.193   1.576  22.139  0.00  0.00    +0.194 A 
ATOM     12  C   UNL     1       9.739   0.267  22.151  0.00  0.00    +0.268 A 
ATOM     13  N   UNL     1       9.491  -0.704  21.207  0.00  0.00    -0.192 N 
ATOM     14  H   UNL     1       9.625  -0.609  20.202  0.00  0.00    +0.455 HD
ATOM     15  C   UNL     1       9.068  -1.824  21.812  0.00  0.00    +0.411 A 
ENDBRANCH   4   6
BRANCH   2  16
ATOM     16  O3* UNL     1       7.864  -5.660  23.029  0.00  0.00    -0.386 OA
ATOM     17  H3* UNL     1       7.067  -6.211  22.972  0.00  0.00    +0.210 HD
ENDBRANCH   2  16
BRANCH   3  18
ATOM     18  O2* UNL     1       6.222  -3.005  24.422  0.00  0.00    -0.385 OA
ATOM     19  H2* UNL     1       6.110  -2.049  24.271  0.00  0.00    +0.210 HD
ENDBRANCH   3  18
BRANCH   1  20
ATOM     20  C5* UNL     1       9.190  -4.652  26.360  0.00  0.00    +0.190 C 
BRANCH  20  21
ATOM     21  O5* UNL     1       8.318  -5.642  26.887  0.00  0.00    -0.392 OA
ATOM     22  H5* UNL     1       7.589  -5.175  27.339  0.00  0.00    +0.210 HD
ENDBRANCH  20  21
ENDBRANCH   1  20
TORSDOF 5
ENDMDL
MODEL 3
REMARK VINA RESULT:      -6.4      1.635      2.106
REMARK  Name = 
REMARK  5 active torsions:
REMARK  status: ('A' for Active; 'I' for Inactive)
REMARK    1  A    between atoms: O5*_1  and  C5*_2
REMARK    2  A    between atoms: C5*_2  and  C4*_3
REMARK    3  A    between atoms: C1*_6  and  N_14
REMARK    4  A    between atoms: C2*_8  and  O2*_10
REMARK    5  A    between atoms: C3*_11  and  O3*_13
REMARK                            x       y       z     vdW  Elec       q    Type
REMARK                         _______ _______ _______ _____ _____    ______ ____
ROOT
ATOM      1  C4* UNL     1       6.700  -4.928  25.480  0.00  0.00    +0.177 C 
ATOM      2  C3* UNL     1       7.993  -5.538  26.023  0.00  0.00    +0.178 C 
ATOM      3  C2* UNL     1       9.095  -4.549  25.654  0.00  0.00    +0.195 C 
ATOM      4  C1* UNL     1       8.350  -3.409  24.941  0.00  0.00    +0.257 C 
ATOM      5  O4* UNL     1       6.972  -3.513  25.334  0.00  0.00    -0.346 OA
ENDROOT
BRANCH   4   6
ATOM      6  N   UNL     1       8.809  -2.081  25.334  0.00  0.00    -0.244 N 
ATOM      7  C   UNL     1       9.363  -1.153  24.483  0.00  0.00    +0.216 A 
ATOM      8  N   UNL     1       9.650  -1.323  23.153  0.00  0.00    -0.212 NA
ATOM      9  C   UNL     1      10.179  -0.205  22.614  0.00  0.00    +0.223 A 
ATOM     10  N   UNL     1      10.443   0.964  23.257  0.00  0.00    -0.237 NA
ATOM     11  C   UNL     1      10.154   1.085  24.584  0.00  0.00    +0.194 A 
ATOM     12  C   UNL     1       9.589  -0.004  25.227  0.00  0.00    +0.268 A 
ATOM     13  N   UNL     1       9.159  -0.287  26.504  0.00  0.00    -0.192 N 
ATOM     14  H   UNL     1       9.182   0.350  27.298  0.00  0.00    +0.455 HD
ATOM     15  C   UNL     1       8.669  -1.536  26.549  0.00  0.00    +0.411 A 
ENDBRANCH   4   6
BRANCH   2  16
ATOM     16  O3* UNL     1       7.943  -5.636  27.457  0.00  0.00    -0.386 OA
ATOM     17  H3* UNL     1       7.897  -6.567  27.730  0.00  0.00    +0.210 HD
ENDBRANCH   2  16
BRANCH   3  18
ATOM     18  O2* UNL     1      10.082  -5.169  24.833  0.00  0.00    -0.385 OA
ATOM     19  H2* UNL     1       9.699  -5.983  24.459  0.00  0.00    +0.210 HD
ENDBRANCH   3  18
BRANCH   1  20
ATOM     20  C5* UNL     1       6.254  -5.534  24.139  0.00  0.00    +0.190 C 
BRANCH  20  21
ATOM     21  O5* UNL     1       5.092  -6.336  24.305  0.00  0.00    -0.392 OA
ATOM     22  H5* UNL     1       5.188  -7.110  23.716  0.00  0.00    +0.210 HD
ENDBRANCH  20  21
ENDBRANCH   1  20
TORSDOF 5
ENDMDL
MODEL 4
REMARK VINA RESULT:      -6.3      3.086      5.649
REMARK  Name = 
REMARK  5 active torsions:
REMARK  status: ('A' for Active; 'I' for Inactive)
REMARK    1  A    between atoms: O5*_1  and  C5*_2
REMARK    2  A    between atoms: C5*_2  and  C4*_3
REMARK    3  A    between atoms: C1*_6  and  N_14
REMARK    4  A    between atoms: C2*_8  and  O2*_10
REMARK    5  A    between atoms: C3*_11  and  O3*_13
REMARK                            x       y       z     vdW  Elec       q    Type
REMARK                         _______ _______ _______ _____ _____    ______ ____
ROOT
ATOM      1  C4* UNL     1       9.435   1.101  23.332  0.00  0.00    +0.177 C 
ATOM      2  C3* UNL     1       9.678   0.616  21.903  0.00  0.00    +0.178 C 
ATOM      3  C2* UNL     1       9.334  -0.872  21.916  0.00  0.00    +0.195 C 
ATOM      4  C1* UNL     1       8.884  -1.139  23.361  0.00  0.00    +0.257 C 
ATOM      5  O4* UNL     1       8.529   0.137  23.920  0.00  0.00    -0.346 OA
ENDROOT
BRANCH   4   6
ATOM      6  N   UNL     1       7.703  -1.991  23.453  0.00  0.00    -0.244 N 
ATOM      7  C   UNL     1       7.627  -3.156  24.181  0.00  0.00    +0.216 A 
ATOM      8  N   UNL     1       8.640  -3.760  24.879  0.00  0.00    -0.212 NA
ATOM      9  C   UNL     1       8.217  -4.887  25.490  0.00  0.00    +0.223 A 
ATOM     10  N   UNL     1       6.968  -5.422  25.439  0.00  0.00    -0.237 NA
ATOM     11  C   UNL     1       5.993  -4.795  24.721  0.00  0.00    +0.194 A 
ATOM     12  C   UNL     1       6.323  -3.617  24.070  0.00  0.00    +0.268 A 
ATOM     13  N   UNL     1       5.663  -2.706  23.276  0.00  0.00    -0.192 N 
ATOM     14  H   UNL     1       4.683  -2.750  23.003  0.00  0.00    +0.455 HD
ATOM     15  C   UNL     1       6.502  -1.717  22.930  0.00  0.00    +0.411 A 
ENDBRANCH   4   6
BRANCH   2  16
ATOM     16  O3* UNL     1       8.784   1.272  20.986  0.00  0.00    -0.386 OA
ATOM     17  H3* UNL     1       9.258   1.529  20.178  0.00  0.00    +0.210 HD
ENDBRANCH   2  16
BRANCH   3  18
ATOM     18  O2* UNL     1      10.459  -1.658  21.528  0.00  0.00    -0.385 OA
ATOM     19  H2* UNL     1      11.250  -1.291  21.962  0.00  0.00    +0.210 HD
ENDBRANCH   3  18
BRANCH   1  20
ATOM     20  C5* UNL     1      10.722   1.213  24.166  0.00  0.00    +0.190 C 
BRANCH  20  21
ATOM     21  O5* UNL     1      10.547   0.636  25.453  0.00  0.00    -0.392 OA
ATOM     22  H5* UNL     1      10.798  -0.306  25.385  0.00  0.00    +0.210 HD
ENDBRANCH  20  21
ENDBRANCH   1  20
TORSDOF 5
ENDMDL
MODEL 5
REMARK VINA RESULT:      -6.1      3.360      5.785
REMARK  Name = 
REMARK  5 active torsions:
REMARK  status: ('A' for Active; 'I' for Inactive)
REMARK    1  A    between atoms: O5*_1  and  C5*_2
REMARK    2  A    between atoms: C5*_2  and  C4*_3
REMARK    3  A    between atoms: C1*_6  and  N_14
REMARK    4  A    between atoms: C2*_8  and  O2*_10
REMARK    5  A    between atoms: C3*_11  and  O3*_13
REMARK                            x       y       z     vdW  Elec       q    Type
REMARK                         _______ _______ _______ _____ _____    ______ ____
ROOT
ATOM      1  C4* UNL     1       9.891   1.228  23.514  0.00  0.00    +0.177 C 
ATOM      2  C3* UNL     1       8.487   1.502  24.057  0.00  0.00    +0.178 C 
ATOM      3  C2* UNL     1       7.673   0.253  23.726  0.00  0.00    +0.195 C 
ATOM      4  C1* UNL     1       8.681  -0.677  23.033  0.00  0.00    +0.257 C 
ATOM      5  O4* UNL     1       9.989  -0.213  23.406  0.00  0.00    -0.346 OA
ENDROOT
BRANCH   4   6
ATOM      6  N   UNL     1       8.580  -2.067  23.465  0.00  0.00    -0.244 N 
ATOM      7  C   UNL     1       7.592  -2.943  23.079  0.00  0.00    +0.216 A 
ATOM      8  N   UNL     1       6.503  -2.663  22.294  0.00  0.00    -0.212 NA
ATOM      9  C   UNL     1       5.737  -3.758  22.102  0.00  0.00    +0.223 A 
ATOM     10  N   UNL     1       5.949  -5.001  22.612  0.00  0.00    -0.237 NA
ATOM     11  C   UNL     1       7.039  -5.232  23.398  0.00  0.00    +0.194 A 
ATOM     12  C   UNL     1       7.899  -4.173  23.642  0.00  0.00    +0.268 A 
ATOM     13  N   UNL     1       9.066  -3.988  24.349  0.00  0.00    -0.192 N 
ATOM     14  H   UNL     1       9.564  -4.700  24.878  0.00  0.00    +0.455 HD
ATOM     15  C   UNL     1       9.479  -2.718  24.214  0.00  0.00    +0.411 A 
ENDBRANCH   4   6
BRANCH   2  16
ATOM     16  O3* UNL     1       8.518   1.648  25.488  0.00  0.00    -0.386 OA
ATOM     17  H3* UNL     1       8.436   2.584  25.733  0.00  0.00    +0.210 HD
ENDBRANCH   2  16
BRANCH   3  18
ATOM     18  O2* UNL     1       6.556   0.578  22.902  0.00  0.00    -0.385 OA
ATOM     19  H2* UNL     1       6.579   0.001  22.117  0.00  0.00    +0.210 HD
ENDBRANCH   3  18
BRANCH   1  20
ATOM     20  C5* UNL     1      10.159   1.892  22.154  0.00  0.00    +0.190 C 
BRANCH  20  21
ATOM     21  O5* UNL     1       8.950   2.339  21.558  0.00  0.00    -0.392 OA
ATOM     22  H5* UNL     1       9.062   3.287  21.351  0.00  0.00    +0.210 HD
ENDBRANCH  20  21
ENDBRANCH   1  20
TORSDOF 5
ENDMDL
MODEL 6
REMARK VINA RESULT:      -6.1      3.638      6.180
REMARK  Name = 
REMARK  5 active torsions:
REMARK  status: ('A' for Active; 'I' for Inactive)
REMARK    1  A    between atoms: O5*_1  and  C5*_2
REMARK    2  A    between atoms: C5*_2  and  C4*_3
REMARK    3  A    between atoms: C1*_6  and  N_14
REMARK    4  A    between atoms: C2*_8  and  O2*_10
REMARK    5  A    between atoms: C3*_11  and  O3*_13
REMARK                            x       y       z     vdW  Elec       q    Type
REMARK                         _______ _______ _______ _____ _____    ______ ____
ROOT
ATOM      1  C4* UNL     1       7.821   1.842  21.881  0.00  0.00    +0.177 C 
ATOM      2  C3* UNL     1       9.092   2.350  22.563  0.00  0.00    +0.178 C 
ATOM      3  C2* UNL     1       9.358   1.372  23.706  0.00  0.00    +0.195 C 
ATOM      4  C1* UNL     1       8.226   0.340  23.585  0.00  0.00    +0.257 C 
ATOM      5  O4* UNL     1       7.720   0.444  22.244  0.00  0.00    -0.346 OA
ENDROOT
BRANCH   4   6
ATOM      6  N   UNL     1       8.674  -1.036  23.769  0.00  0.00    -0.244 N 
ATOM      7  C   UNL     1       7.843  -2.127  23.889  0.00  0.00    +0.216 A 
ATOM      8  N   UNL     1       6.473  -2.117  23.932  0.00  0.00    -0.212 NA
ATOM      9  C   UNL     1       5.973  -3.366  24.045  0.00  0.00    +0.223 A 
ATOM     10  N   UNL     1       6.683  -4.523  24.135  0.00  0.00    -0.237 NA
ATOM     11  C   UNL     1       8.045  -4.484  24.101  0.00  0.00    +0.194 A 
ATOM     12  C   UNL     1       8.656  -3.248  23.969  0.00  0.00    +0.268 A 
ATOM     13  N   UNL     1       9.951  -2.786  23.893  0.00  0.00    -0.192 N 
ATOM     14  H   UNL     1      10.792  -3.358  23.917  0.00  0.00    +0.455 HD
ATOM     15  C   UNL     1       9.946  -1.451  23.748  0.00  0.00    +0.411 A 
ENDBRANCH   4   6
BRANCH   2  16
ATOM     16  O3* UNL     1      10.209   2.294  21.659  0.00  0.00    -0.386 OA
ATOM     17  H3* UNL     1      11.040   2.440  22.139  0.00  0.00    +0.210 HD
ENDBRANCH   2  16
BRANCH   3  18
ATOM     18  O2* UNL     1       9.366   2.047  24.962  0.00  0.00    -0.385 OA
ATOM     19  H2* UNL     1       9.562   2.988  24.800  0.00  0.00    +0.210 HD
ENDBRANCH   3  18
BRANCH   1  20
ATOM     20  C5* UNL     1       6.554   2.604  22.305  0.00  0.00    +0.190 C 
BRANCH  20  21
ATOM     21  O5* UNL     1       6.540   3.914  21.755  0.00  0.00    -0.392 OA
ATOM     22  H5* UNL     1       5.608   4.205  21.722  0.00  0.00    +0.210 HD
ENDBRANCH  20  21
ENDBRANCH   1  20
TORSDOF 5
ENDMDL
MODEL 7
REMARK VINA RESULT:      -6.0      2.286      3.259
REMARK  Name = 
REMARK  5 active torsions:
REMARK  status: ('A' for Active; 'I' for Inactive)
REMARK    1  A    between atoms: O5*_1  and  C5*_2
REMARK    2  A    between atoms: C5*_2  and  C4*_3
REMARK    3  A    between atoms: C1*_6  and  N_14
REMARK    4  A    between atoms: C2*_8  and  O2*_10
REMARK    5  A    between atoms: C3*_11  and  O3*_13
REMARK                            x       y       z     vdW  Elec       q    Type
REMARK                         _______ _______ _______ _____ _____    ______ ____
ROOT
ATOM      1  C4* UNL     1       6.734  -5.181  23.291  0.00  0.00    +0.177 C 
ATOM      2  C3* UNL     1       7.710  -5.064  24.462  0.00  0.00    +0.178 C 
ATOM      3  C2* UNL     1       8.330  -3.674  24.334  0.00  0.00    +0.195 C 
ATOM      4  C1* UNL     1       7.640  -3.068  23.102  0.00  0.00    +0.257 C 
ATOM      5  O4* UNL     1       6.432  -3.820  22.901  0.00  0.00    -0.346 OA
ENDROOT
BRANCH   4   6
ATOM      6  N   UNL     1       7.252  -1.673  23.282  0.00  0.00    -0.244 N 
ATOM      7  C   UNL     1       7.873  -0.599  22.688  0.00  0.00    +0.216 A 
ATOM      8  N   UNL     1       8.989  -0.629  21.893  0.00  0.00    -0.212 NA
ATOM      9  C   UNL     1       9.326   0.607  21.467  0.00  0.00    +0.223 A 
ATOM     10  N   UNL     1       8.696   1.774  21.769  0.00  0.00    -0.237 NA
ATOM     11  C   UNL     1       7.595   1.758  22.574  0.00  0.00    +0.194 A 
ATOM     12  C   UNL     1       7.157   0.533  23.052  0.00  0.00    +0.268 A 
ATOM     13  N   UNL     1       6.129   0.093  23.854  0.00  0.00    -0.192 N 
ATOM     14  H   UNL     1       5.415   0.677  24.285  0.00  0.00    +0.455 HD
ATOM     15  C   UNL     1       6.184  -1.243  23.966  0.00  0.00    +0.411 A 
ENDBRANCH   4   6
BRANCH   2  16
ATOM     16  O3* UNL     1       7.008  -5.126  25.715  0.00  0.00    -0.386 OA
ATOM     17  H3* UNL     1       6.439  -4.346  25.822  0.00  0.00    +0.210 HD
ENDBRANCH   2  16
BRANCH   3  18
ATOM     18  O2* UNL     1       9.747  -3.759  24.195  0.00  0.00    -0.385 OA
ATOM     19  H2* UNL     1       9.967  -4.651  23.868  0.00  0.00    +0.210 HD
ENDBRANCH   3  18
BRANCH   1  20
ATOM     20  C5* UNL     1       7.300  -5.973  22.100  0.00  0.00    +0.190 C 
BRANCH  20  21
ATOM     21  O5* UNL     1       6.527  -5.752  20.928  0.00  0.00    -0.392 OA
ATOM     22  H5* UNL     1       7.033  -6.115  20.175  0.00  0.00    +0.210 HD
ENDBRANCH  20  21
ENDBRANCH   1  20
TORSDOF 5
ENDMDL
MODEL 8
REMARK VINA RESULT:      -5.9      2.193      3.400
REMARK  Name = 
REMARK  5 active torsions:
REMARK  status: ('A' for Active; 'I' for Inactive)
REMARK    1  A    between atoms: O5*_1  and  C5*_2
REMARK    2  A    between atoms: C5*_2  and  C4*_3
REMARK    3  A    between atoms: C1*_6  and  N_14
REMARK    4  A    between atoms: C2*_8  and  O2*_10
REMARK    5  A    between atoms: C3*_11  and  O3*_13
REMARK                            x       y       z     vdW  Elec       q    Type
REMARK                         _______ _______ _______ _____ _____    ______ ____
ROOT
ATOM      1  C4* UNL     1       6.924  -4.399  23.456  0.00  0.00    +0.177 C 
ATOM      2  C3* UNL     1       5.688  -3.552  23.152  0.00  0.00    +0.178 C 
ATOM      3  C2* UNL     1       6.152  -2.102  23.266  0.00  0.00    +0.195 C 
ATOM      4  C1* UNL     1       7.647  -2.213  23.603  0.00  0.00    +0.257 C 
ATOM      5  O4* UNL     1       8.057  -3.533  23.208  0.00  0.00    -0.346 OA
ENDROOT
BRANCH   4   6
ATOM      6  N   UNL     1       8.480  -1.267  22.868  0.00  0.00    -0.244 N 
ATOM      7  C   UNL     1       8.832  -0.014  23.314  0.00  0.00    +0.216 A 
ATOM      8  N   UNL     1       8.418   0.595  24.470  0.00  0.00    -0.212 NA
ATOM      9  C   UNL     1       8.964   1.822  24.605  0.00  0.00    +0.223 A 
ATOM     10  N   UNL     1       9.803   2.442  23.732  0.00  0.00    -0.237 NA
ATOM     11  C   UNL     1      10.180   1.803  22.588  0.00  0.00    +0.194 A 
ATOM     12  C   UNL     1       9.686   0.528  22.364  0.00  0.00    +0.268 A 
ATOM     13  N   UNL     1       9.815  -0.425  21.379  0.00  0.00    -0.192 N 
ATOM     14  H   UNL     1      10.380  -0.342  20.537  0.00  0.00    +0.455 HD
ATOM     15  C   UNL     1       9.100  -1.513  21.708  0.00  0.00    +0.411 A 
ENDBRANCH   4   6
BRANCH   2  16
ATOM     16  O3* UNL     1       5.242  -3.773  21.802  0.00  0.00    -0.386 OA
ATOM     17  H3* UNL     1       4.366  -4.193  21.801  0.00  0.00    +0.210 HD
ENDBRANCH   2  16
BRANCH   3  18
ATOM     18  O2* UNL     1       5.406  -1.405  24.262  0.00  0.00    -0.385 OA
ATOM     19  H2* UNL     1       6.030  -1.079  24.936  0.00  0.00    +0.210 HD
ENDBRANCH   3  18
BRANCH   1  20
ATOM     20  C5* UNL     1       6.958  -4.935  24.897  0.00  0.00    +0.190 C 
BRANCH  20  21
ATOM     21  O5* UNL     1       5.678  -4.838  25.507  0.00  0.00    -0.392 OA
ATOM     22  H5* UNL     1       5.492  -5.699  25.929  0.00  0.00    +0.210 HD
ENDBRANCH  20  21
ENDBRANCH   1  20
TORSDOF 5
ENDMDL
MODEL 9
REMARK VINA RESULT:      -5.9      3.036      5.495
REMARK  Name = 
REMARK  5 active torsions:
REMARK  status: ('A' for Active; 'I' for Inactive)
REMARK    1  A    between atoms: O5*_1  and  C5*_2
REMARK    2  A    between atoms: C5*_2  and  C4*_3
REMARK    3  A    between atoms: C1*_6  and  N_14
REMARK    4  A    between atoms: C2*_8  and  O2*_10
REMARK    5  A    between atoms: C3*_11  and  O3*_13
REMARK                            x       y       z     vdW  Elec       q    Type
REMARK                         _______ _______ _______ _____ _____    ______ ____
ROOT
ATOM      1  C4* UNL     1       8.806   0.088  21.956  0.00  0.00    +0.177 C 
ATOM      2  C3* UNL     1      10.166  -0.373  22.481  0.00  0.00    +0.178 C 
ATOM      3  C2* UNL     1       9.977  -0.568  23.983  0.00  0.00    +0.195 C 
ATOM      4  C1* UNL     1       8.496  -0.230  24.220  0.00  0.00    +0.257 C 
ATOM      5  O4* UNL     1       7.842  -0.346  22.946  0.00  0.00    -0.346 OA
ENDROOT
BRANCH   4   6
ATOM      6  N   UNL     1       7.829  -1.154  25.131  0.00  0.00    -0.244 N 
ATOM      7  C   UNL     1       7.865  -2.526  25.029  0.00  0.00    +0.216 A 
ATOM      8  N   UNL     1       8.459  -3.263  24.037  0.00  0.00    -0.212 NA
ATOM      9  C   UNL     1       8.315  -4.588  24.252  0.00  0.00    +0.223 A 
ATOM     10  N   UNL     1       7.656  -5.180  25.284  0.00  0.00    -0.237 NA
ATOM     11  C   UNL     1       7.069  -4.407  26.242  0.00  0.00    +0.194 A 
ATOM     12  C   UNL     1       7.175  -3.031  26.122  0.00  0.00    +0.268 A 
ATOM     13  N   UNL     1       6.749  -1.938  26.842  0.00  0.00    -0.192 N 
ATOM     14  H   UNL     1       6.216  -1.964  27.708  0.00  0.00    +0.455 HD
ATOM     15  C   UNL     1       7.171  -0.812  26.245  0.00  0.00    +0.411 A 
ENDBRANCH   4   6
BRANCH   2  16
ATOM     16  O3* UNL     1      10.526  -1.642  21.907  0.00  0.00    -0.386 OA
ATOM     17  H3* UNL     1      11.280  -1.539  21.304  0.00  0.00    +0.210 HD
ENDBRANCH   2  16
BRANCH   3  18
ATOM     18  O2* UNL     1      10.865   0.268  24.721  0.00  0.00    -0.385 OA
ATOM     19  H2* UNL     1      11.155   0.993  24.138  0.00  0.00    +0.210 HD
ENDBRANCH   3  18
BRANCH   1  20
ATOM     20  C5* UNL     1       8.716   1.609  21.745  0.00  0.00    +0.190 C 
BRANCH  20  21
ATOM     21  O5* UNL     1      10.006   2.174  21.557  0.00  0.00    -0.392 OA
ATOM     22  H5* UNL     1      10.658   1.521  21.878  0.00  0.00    +0.210 HD
ENDBRANCH  20  21
ENDBRANCH   1  20
TORSDOF 5
ENDMDL
