MODEL 1
REMARK VINA RESULT:      -4.7      0.000      0.000
REMARK  Name = 
REMARK  16 active torsions:
REMARK  status: ('A' for Active; 'I' for Inactive)
REMARK    1  A    between atoms: C_1  and  C_2
REMARK    2  A    between atoms: C_2  and  C_3
REMARK    3  A    between atoms: C_3  and  C_4
REMARK    4  A    between atoms: C_4  and  C_5
REMARK    5  A    between atoms: C_5  and  C_6
REMARK    6  A    between atoms: C_6  and  C_7
REMARK    7  A    between atoms: C_7  and  C_8
REMARK    8  A    between atoms: C_8  and  C_9
REMARK    9  A    between atoms: C_10  and  C_11
REMARK   10  A    between atoms: C_11  and  C_12
REMARK   11  A    between atoms: C_12  and  C_13
REMARK   12  A    between atoms: C_13  and  C_14
REMARK   13  A    between atoms: C_14  and  C_15
REMARK   14  A    between atoms: C_15  and  C_16
REMARK   15  A    between atoms: C_16  and  C_17
REMARK   16  A    between atoms: C_17  and  C_18
REMARK                            x       y       z     vdW  Elec       q    Type
REMARK                         _______ _______ _______ _____ _____    ______ ____
ROOT
ATOM      1  C   UNL     1       7.966  -1.113  26.642  0.00  0.00    +0.027 C 
ENDROOT
BRANCH   1   3
ATOM      2  C   UNL     1       9.846  -0.063  25.371  0.00  0.00    -0.031 C 
ATOM      3  C   UNL     1       8.593  -0.009  25.845  0.00  0.00    -0.031 C 
BRANCH   2   4
ATOM      4  C   UNL     1      10.467   1.039  24.567  0.00  0.00    +0.027 C 
BRANCH   4   5
ATOM      5  C   UNL     1       9.475   2.177  24.334  0.00  0.00    +0.004 C 
BRANCH   5   6
ATOM      6  C   UNL     1       9.320   2.462  22.843  0.00  0.00    +0.000 C 
BRANCH   6   7
ATOM      7  C   UNL     1      10.013   1.392  22.005  0.00  0.00    +0.000 C 
BRANCH   7   8
ATOM      8  C   UNL     1       9.005   0.377  21.472  0.00  0.00    -0.000 C 
BRANCH   8   9
ATOM      9  C   UNL     1       9.594  -1.032  21.475  0.00  0.00    -0.000 C 
BRANCH   9  11
ATOM     10  C   UNL     1       7.465  -1.390  22.760  0.00  0.00    +0.004 C 
ATOM     11  C   UNL     1       8.844  -1.942  22.442  0.00  0.00    -0.003 C 
ENDBRANCH   9  11
ENDBRANCH   8   9
ENDBRANCH   7   8
ENDBRANCH   6   7
ENDBRANCH   5   6
ENDBRANCH   4   5
ENDBRANCH   2   4
ENDBRANCH   1   3
BRANCH   1  12
ATOM     12  C   UNL     1       8.667  -2.440  26.365  0.00  0.00    +0.004 C 
BRANCH  12  13
ATOM     13  C   UNL     1       7.652  -3.553  26.121  0.00  0.00    +0.000 C 
BRANCH  13  14
ATOM     14  C   UNL     1       8.192  -4.569  25.117  0.00  0.00    +0.000 C 
BRANCH  14  15
ATOM     15  C   UNL     1       7.062  -5.235  24.335  0.00  0.00    +0.000 C 
BRANCH  15  16
ATOM     16  C   UNL     1       7.455  -5.403  22.868  0.00  0.00    +0.009 C 
BRANCH  16  17
ATOM     17  C   UNL     1       6.348  -6.072  22.059  0.00  0.00    +0.095 C 
BRANCH  17  18
ATOM     18  C   UNL     1       4.981  -5.544  22.438  0.00  0.00    +0.210 C 
ATOM     19  O   UNL     1       4.619  -4.380  22.318  0.00  0.00    -0.276 OA
ATOM     20  N   UNL     1       4.139  -6.489  22.944  0.00  0.00    -0.329 N 
ATOM     21  H   UNL     1       3.211  -6.194  23.213  0.00  0.00    +0.145 HD
ATOM     22  H   UNL     1       4.400  -7.459  23.058  0.00  0.00    +0.145 HD
ENDBRANCH  17  18
ENDBRANCH  16  17
ENDBRANCH  15  16
ENDBRANCH  14  15
ENDBRANCH  13  14
ENDBRANCH  12  13
ENDBRANCH   1  12
TORSDOF 15
ENDMDL
MODEL 2
REMARK VINA RESULT:      -4.6      1.704      3.167
REMARK  Name = 
REMARK  16 active torsions:
REMARK  status: ('A' for Active; 'I' for Inactive)
REMARK    1  A    between atoms: C_1  and  C_2
REMARK    2  A    between atoms: C_2  and  C_3
REMARK    3  A    between atoms: C_3  and  C_4
REMARK    4  A    between atoms: C_4  and  C_5
REMARK    5  A    between atoms: C_5  and  C_6
REMARK    6  A    between atoms: C_6  and  C_7
REMARK    7  A    between atoms: C_7  and  C_8
REMARK    8  A    between atoms: C_8  and  C_9
REMARK    9  A    between atoms: C_10  and  C_11
REMARK   10  A    between atoms: C_11  and  C_12
REMARK   11  A    between atoms: C_12  and  C_13
REMARK   12  A    between atoms: C_13  and  C_14
REMARK   13  A    between atoms: C_14  and  C_15
REMARK   14  A    between atoms: C_15  and  C_16
REMARK   15  A    between atoms: C_16  and  C_17
REMARK   16  A    between atoms: C_17  and  C_18
REMARK                            x       y       z     vdW  Elec       q    Type
REMARK                         _______ _______ _______ _____ _____    ______ ____
ROOT
ATOM      1  C   UNL     1       7.955  -4.939  26.524  0.00  0.00    +0.027 C 
ENDROOT
BRANCH   1   3
ATOM      2  C   UNL     1       8.559  -2.659  25.693  0.00  0.00    -0.031 C 
ATOM      3  C   UNL     1       8.607  -3.992  25.563  0.00  0.00    -0.031 C 
BRANCH   2   4
ATOM      4  C   UNL     1       9.220  -1.715  24.735  0.00  0.00    +0.027 C 
BRANCH   4   5
ATOM      5  C   UNL     1       9.977  -2.476  23.648  0.00  0.00    +0.004 C 
BRANCH   5   6
ATOM      6  C   UNL     1      10.293  -1.562  22.467  0.00  0.00    +0.000 C 
BRANCH   6   7
ATOM      7  C   UNL     1       9.021  -0.923  21.914  0.00  0.00    +0.000 C 
BRANCH   7   8
ATOM      8  C   UNL     1       9.325   0.425  21.266  0.00  0.00    -0.000 C 
BRANCH   8   9
ATOM      9  C   UNL     1       9.680   1.471  22.321  0.00  0.00    -0.000 C 
BRANCH   9  11
ATOM     10  C   UNL     1       9.092   2.271  24.628  0.00  0.00    +0.004 C 
ATOM     11  C   UNL     1       8.578   1.594  23.369  0.00  0.00    -0.003 C 
ENDBRANCH   9  11
ENDBRANCH   8   9
ENDBRANCH   7   8
ENDBRANCH   6   7
ENDBRANCH   5   6
ENDBRANCH   4   5
ENDBRANCH   2   4
ENDBRANCH   1   3
BRANCH   1  12
ATOM     12  C   UNL     1       6.672  -5.510  25.927  0.00  0.00    +0.004 C 
BRANCH  12  13
ATOM     13  C   UNL     1       5.550  -4.475  25.953  0.00  0.00    +0.000 C 
BRANCH  13  14
ATOM     14  C   UNL     1       4.913  -4.332  24.572  0.00  0.00    +0.000 C 
BRANCH  14  15
ATOM     15  C   UNL     1       5.359  -3.044  23.884  0.00  0.00    +0.000 C 
BRANCH  15  16
ATOM     16  C   UNL     1       5.578  -3.283  22.391  0.00  0.00    +0.009 C 
BRANCH  16  17
ATOM     17  C   UNL     1       6.756  -4.216  22.134  0.00  0.00    +0.095 C 
BRANCH  17  18
ATOM     18  C   UNL     1       6.341  -5.438  21.343  0.00  0.00    +0.210 C 
ATOM     19  O   UNL     1       5.995  -5.431  20.168  0.00  0.00    -0.276 OA
ATOM     20  N   UNL     1       6.377  -6.601  22.054  0.00  0.00    -0.329 N 
ATOM     21  H   UNL     1       6.111  -7.451  21.576  0.00  0.00    +0.145 HD
ATOM     22  H   UNL     1       6.657  -6.649  23.024  0.00  0.00    +0.145 HD
ENDBRANCH  17  18
ENDBRANCH  16  17
ENDBRANCH  15  16
ENDBRANCH  14  15
ENDBRANCH  13  14
ENDBRANCH  12  13
ENDBRANCH   1  12
TORSDOF 15
ENDMDL
MODEL 3
REMARK VINA RESULT:      -4.6      1.091      2.699
REMARK  Name = 
REMARK  16 active torsions:
REMARK  status: ('A' for Active; 'I' for Inactive)
REMARK    1  A    between atoms: C_1  and  C_2
REMARK    2  A    between atoms: C_2  and  C_3
REMARK    3  A    between atoms: C_3  and  C_4
REMARK    4  A    between atoms: C_4  and  C_5
REMARK    5  A    between atoms: C_5  and  C_6
REMARK    6  A    between atoms: C_6  and  C_7
REMARK    7  A    between atoms: C_7  and  C_8
REMARK    8  A    between atoms: C_8  and  C_9
REMARK    9  A    between atoms: C_10  and  C_11
REMARK   10  A    between atoms: C_11  and  C_12
REMARK   11  A    between atoms: C_12  and  C_13
REMARK   12  A    between atoms: C_13  and  C_14
REMARK   13  A    between atoms: C_14  and  C_15
REMARK   14  A    between atoms: C_15  and  C_16
REMARK   15  A    between atoms: C_16  and  C_17
REMARK   16  A    between atoms: C_17  and  C_18
REMARK                            x       y       z     vdW  Elec       q    Type
REMARK                         _______ _______ _______ _____ _____    ______ ____
ROOT
ATOM      1  C   UNL     1       6.540  -0.853  25.382  0.00  0.00    +0.027 C 
ENDROOT
BRANCH   1   3
ATOM      2  C   UNL     1       8.144  -1.729  23.676  0.00  0.00    -0.031 C 
ATOM      3  C   UNL     1       6.959  -1.181  23.981  0.00  0.00    -0.031 C 
BRANCH   2   4
ATOM      4  C   UNL     1       8.557  -2.064  22.275  0.00  0.00    +0.027 C 
BRANCH   4   5
ATOM      5  C   UNL     1       9.693  -1.158  21.805  0.00  0.00    +0.004 C 
BRANCH   5   6
ATOM      6  C   UNL     1       9.144   0.074  21.091  0.00  0.00    +0.000 C 
BRANCH   6   7
ATOM      7  C   UNL     1       9.614   1.357  21.772  0.00  0.00    +0.000 C 
BRANCH   7   8
ATOM      8  C   UNL     1       8.529   1.918  22.688  0.00  0.00    -0.000 C 
BRANCH   8   9
ATOM      9  C   UNL     1       9.014   1.982  24.134  0.00  0.00    -0.000 C 
BRANCH   9  11
ATOM     10  C   UNL     1      10.682   0.346  25.056  0.00  0.00    +0.004 C 
ATOM     11  C   UNL     1      10.490   1.612  24.239  0.00  0.00    -0.003 C 
ENDBRANCH   9  11
ENDBRANCH   8   9
ENDBRANCH   7   8
ENDBRANCH   6   7
ENDBRANCH   5   6
ENDBRANCH   4   5
ENDBRANCH   2   4
ENDBRANCH   1   3
BRANCH   1  12
ATOM     12  C   UNL     1       7.404  -1.604  26.391  0.00  0.00    +0.004 C 
BRANCH  12  13
ATOM     13  C   UNL     1       6.755  -2.926  26.790  0.00  0.00    +0.000 C 
BRANCH  13  14
ATOM     14  C   UNL     1       7.728  -4.088  26.598  0.00  0.00    +0.000 C 
BRANCH  14  15
ATOM     15  C   UNL     1       7.057  -5.264  25.892  0.00  0.00    +0.000 C 
BRANCH  15  16
ATOM     16  C   UNL     1       6.170  -4.769  24.751  0.00  0.00    +0.009 C 
BRANCH  16  17
ATOM     17  C   UNL     1       6.688  -5.228  23.392  0.00  0.00    +0.095 C 
BRANCH  17  18
ATOM     18  C   UNL     1       5.571  -5.339  22.375  0.00  0.00    +0.210 C 
ATOM     19  O   UNL     1       4.530  -4.695  22.402  0.00  0.00    -0.276 OA
ATOM     20  N   UNL     1       5.809  -6.243  21.383  0.00  0.00    -0.329 N 
ATOM     21  H   UNL     1       5.098  -6.359  20.675  0.00  0.00    +0.145 HD
ATOM     22  H   UNL     1       6.655  -6.793  21.326  0.00  0.00    +0.145 HD
ENDBRANCH  17  18
ENDBRANCH  16  17
ENDBRANCH  15  16
ENDBRANCH  14  15
ENDBRANCH  13  14
ENDBRANCH  12  13
ENDBRANCH   1  12
TORSDOF 15
ENDMDL
MODEL 4
REMARK VINA RESULT:      -4.6      3.500      6.469
REMARK  Name = 
REMARK  16 active torsions:
REMARK  status: ('A' for Active; 'I' for Inactive)
REMARK    1  A    between atoms: C_1  and  C_2
REMARK    2  A    between atoms: C_2  and  C_3
REMARK    3  A    between atoms: C_3  and  C_4
REMARK    4  A    between atoms: C_4  and  C_5
REMARK    5  A    between atoms: C_5  and  C_6
REMARK    6  A    between atoms: C_6  and  C_7
REMARK    7  A    between atoms: C_7  and  C_8
REMARK    8  A    between atoms: C_8  and  C_9
REMARK    9  A    between atoms: C_10  and  C_11
REMARK   10  A    between atoms: C_11  and  C_12
REMARK   11  A    between atoms: C_12  and  C_13
REMARK   12  A    between atoms: C_13  and  C_14
REMARK   13  A    between atoms: C_14  and  C_15
REMARK   14  A    between atoms: C_15  and  C_16
REMARK   15  A    between atoms: C_16  and  C_17
REMARK   16  A    between atoms: C_17  and  C_18
REMARK                            x       y       z     vdW  Elec       q    Type
REMARK                         _______ _______ _______ _____ _____    ______ ____
ROOT
ATOM      1  C   UNL     1       9.443  -4.208  24.980  0.00  0.00    +0.027 C 
ENDROOT
BRANCH   1   3
ATOM      2  C   UNL     1       7.417  -5.331  25.922  0.00  0.00    -0.031 C 
ATOM      3  C   UNL     1       8.053  -4.215  25.539  0.00  0.00    -0.031 C 
BRANCH   2   4
ATOM      4  C   UNL     1       6.030  -5.333  26.489  0.00  0.00    +0.027 C 
BRANCH   4   5
ATOM      5  C   UNL     1       4.984  -5.196  25.384  0.00  0.00    +0.004 C 
BRANCH   5   6
ATOM      6  C   UNL     1       4.459  -3.765  25.309  0.00  0.00    +0.000 C 
BRANCH   6   7
ATOM      7  C   UNL     1       4.813  -3.121  23.971  0.00  0.00    +0.000 C 
BRANCH   7   8
ATOM      8  C   UNL     1       5.058  -4.183  22.902  0.00  0.00    -0.000 C 
BRANCH   8   9
ATOM      9  C   UNL     1       6.290  -3.844  22.068  0.00  0.00    -0.000 C 
BRANCH   9  11
ATOM     10  C   UNL     1       6.450  -6.343  22.271  0.00  0.00    +0.004 C 
ATOM     11  C   UNL     1       7.173  -5.071  21.862  0.00  0.00    -0.003 C 
ENDBRANCH   9  11
ENDBRANCH   8   9
ENDBRANCH   7   8
ENDBRANCH   6   7
ENDBRANCH   5   6
ENDBRANCH   4   5
ENDBRANCH   2   4
ENDBRANCH   1   3
BRANCH   1  12
ATOM     12  C   UNL     1       9.637  -3.024  24.038  0.00  0.00    +0.004 C 
BRANCH  12  13
ATOM     13  C   UNL     1       8.782  -1.835  24.471  0.00  0.00    +0.000 C 
BRANCH  13  14
ATOM     14  C   UNL     1       8.148  -1.154  23.260  0.00  0.00    +0.000 C 
BRANCH  14  15
ATOM     15  C   UNL     1       8.982  -1.371  21.999  0.00  0.00    +0.000 C 
BRANCH  15  16
ATOM     16  C   UNL     1       9.445  -0.031  21.427  0.00  0.00    +0.009 C 
BRANCH  16  17
ATOM     17  C   UNL     1       8.439   1.081  21.706  0.00  0.00    +0.095 C 
BRANCH  17  18
ATOM     18  C   UNL     1       9.106   2.302  22.303  0.00  0.00    +0.210 C 
ATOM     19  O   UNL     1       8.579   3.076  23.092  0.00  0.00    -0.276 OA
ATOM     20  N   UNL     1      10.391   2.494  21.887  0.00  0.00    -0.329 N 
ATOM     21  H   UNL     1      10.887   3.294  22.255  0.00  0.00    +0.145 HD
ATOM     22  H   UNL     1      10.861   1.878  21.238  0.00  0.00    +0.145 HD
ENDBRANCH  17  18
ENDBRANCH  16  17
ENDBRANCH  15  16
ENDBRANCH  14  15
ENDBRANCH  13  14
ENDBRANCH  12  13
ENDBRANCH   1  12
TORSDOF 15
ENDMDL
MODEL 5
REMARK VINA RESULT:      -4.6      1.636      2.976
REMARK  Name = 
REMARK  16 active torsions:
REMARK  status: ('A' for Active; 'I' for Inactive)
REMARK    1  A    between atoms: C_1  and  C_2
REMARK    2  A    between atoms: C_2  and  C_3
REMARK    3  A    between atoms: C_3  and  C_4
REMARK    4  A    between atoms: C_4  and  C_5
REMARK    5  A    between atoms: C_5  and  C_6
REMARK    6  A    between atoms: C_6  and  C_7
REMARK    7  A    between atoms: C_7  and  C_8
REMARK    8  A    between atoms: C_8  and  C_9
REMARK    9  A    between atoms: C_10  and  C_11
REMARK   10  A    between atoms: C_11  and  C_12
REMARK   11  A    between atoms: C_12  and  C_13
REMARK   12  A    between atoms: C_13  and  C_14
REMARK   13  A    between atoms: C_14  and  C_15
REMARK   14  A    between atoms: C_15  and  C_16
REMARK   15  A    between atoms: C_16  and  C_17
REMARK   16  A    between atoms: C_17  and  C_18
REMARK                            x       y       z     vdW  Elec       q    Type
REMARK                         _______ _______ _______ _____ _____    ______ ____
ROOT
ATOM      1  C   UNL     1       9.066  -3.533  24.538  0.00  0.00    +0.027 C 
ENDROOT
BRANCH   1   3
ATOM      2  C   UNL     1       9.333  -1.876  22.685  0.00  0.00    -0.031 C 
ATOM      3  C   UNL     1       9.811  -2.472  23.786  0.00  0.00    -0.031 C 
BRANCH   2   4
ATOM      4  C   UNL     1      10.077  -0.809  21.940  0.00  0.00    +0.027 C 
BRANCH   4   5
ATOM      5  C   UNL     1       9.151   0.347  21.566  0.00  0.00    +0.004 C 
BRANCH   5   6
ATOM      6  C   UNL     1       9.828   1.689  21.829  0.00  0.00    +0.000 C 
BRANCH   6   7
ATOM      7  C   UNL     1      10.345   1.771  23.263  0.00  0.00    +0.000 C 
BRANCH   7   8
ATOM      8  C   UNL     1       9.794   3.004  23.973  0.00  0.00    -0.000 C 
BRANCH   8   9
ATOM      9  C   UNL     1       8.582   2.646  24.829  0.00  0.00    -0.000 C 
BRANCH   9  11
ATOM     10  C   UNL     1       7.194   0.552  24.799  0.00  0.00    +0.004 C 
ATOM     11  C   UNL     1       8.547   1.153  25.140  0.00  0.00    -0.003 C 
ENDBRANCH   9  11
ENDBRANCH   8   9
ENDBRANCH   7   8
ENDBRANCH   6   7
ENDBRANCH   5   6
ENDBRANCH   4   5
ENDBRANCH   2   4
ENDBRANCH   1   3
BRANCH   1  12
ATOM     12  C   UNL     1       7.990  -2.910  25.422  0.00  0.00    +0.004 C 
BRANCH  12  13
ATOM     13  C   UNL     1       6.789  -3.841  25.560  0.00  0.00    +0.000 C 
BRANCH  13  14
ATOM     14  C   UNL     1       5.514  -3.157  25.071  0.00  0.00    +0.000 C 
BRANCH  14  15
ATOM     15  C   UNL     1       5.703  -2.556  23.680  0.00  0.00    +0.000 C 
BRANCH  15  16
ATOM     16  C   UNL     1       5.234  -3.537  22.606  0.00  0.00    +0.009 C 
BRANCH  16  17
ATOM     17  C   UNL     1       6.393  -4.032  21.746  0.00  0.00    +0.095 C 
BRANCH  17  18
ATOM     18  C   UNL     1       6.665  -5.504  21.968  0.00  0.00    +0.210 C 
ATOM     19  O   UNL     1       7.695  -5.965  22.445  0.00  0.00    -0.276 OA
ATOM     20  N   UNL     1       5.644  -6.323  21.585  0.00  0.00    -0.329 N 
ATOM     21  H   UNL     1       5.769  -7.318  21.711  0.00  0.00    +0.145 HD
ATOM     22  H   UNL     1       4.780  -5.982  21.188  0.00  0.00    +0.145 HD
ENDBRANCH  17  18
ENDBRANCH  16  17
ENDBRANCH  15  16
ENDBRANCH  14  15
ENDBRANCH  13  14
ENDBRANCH  12  13
ENDBRANCH   1  12
TORSDOF 15
ENDMDL
MODEL 6
REMARK VINA RESULT:      -4.6      2.337      4.047
REMARK  Name = 
REMARK  16 active torsions:
REMARK  status: ('A' for Active; 'I' for Inactive)
REMARK    1  A    between atoms: C_1  and  C_2
REMARK    2  A    between atoms: C_2  and  C_3
REMARK    3  A    between atoms: C_3  and  C_4
REMARK    4  A    between atoms: C_4  and  C_5
REMARK    5  A    between atoms: C_5  and  C_6
REMARK    6  A    between atoms: C_6  and  C_7
REMARK    7  A    between atoms: C_7  and  C_8
REMARK    8  A    between atoms: C_8  and  C_9
REMARK    9  A    between atoms: C_10  and  C_11
REMARK   10  A    between atoms: C_11  and  C_12
REMARK   11  A    between atoms: C_12  and  C_13
REMARK   12  A    between atoms: C_13  and  C_14
REMARK   13  A    between atoms: C_14  and  C_15
REMARK   14  A    between atoms: C_15  and  C_16
REMARK   15  A    between atoms: C_16  and  C_17
REMARK   16  A    between atoms: C_17  and  C_18
REMARK                            x       y       z     vdW  Elec       q    Type
REMARK                         _______ _______ _______ _____ _____    ______ ____
ROOT
ATOM      1  C   UNL     1       6.192  -3.296  21.991  0.00  0.00    +0.027 C 
ENDROOT
BRANCH   1   3
ATOM      2  C   UNL     1       6.734  -1.756  23.885  0.00  0.00    -0.031 C 
ATOM      3  C   UNL     1       6.256  -1.950  22.648  0.00  0.00    -0.031 C 
BRANCH   2   4
ATOM      4  C   UNL     1       6.805  -0.408  24.535  0.00  0.00    +0.027 C 
BRANCH   4   5
ATOM      5  C   UNL     1       8.093  -0.254  25.342  0.00  0.00    +0.004 C 
BRANCH   5   6
ATOM      6  C   UNL     1       9.127  -1.292  24.915  0.00  0.00    +0.000 C 
BRANCH   6   7
ATOM      7  C   UNL     1      10.168  -0.677  23.982  0.00  0.00    +0.000 C 
BRANCH   7   8
ATOM      8  C   UNL     1      10.213  -1.419  22.649  0.00  0.00    -0.000 C 
BRANCH   8   9
ATOM      9  C   UNL     1       9.531  -0.610  21.549  0.00  0.00    -0.000 C 
BRANCH   9  11
ATOM     10  C   UNL     1       8.286   1.571  21.612  0.00  0.00    +0.004 C 
ATOM     11  C   UNL     1       9.626   0.887  21.825  0.00  0.00    -0.003 C 
ENDBRANCH   9  11
ENDBRANCH   8   9
ENDBRANCH   7   8
ENDBRANCH   6   7
ENDBRANCH   5   6
ENDBRANCH   4   5
ENDBRANCH   2   4
ENDBRANCH   1   3
BRANCH   1  12
ATOM     12  C   UNL     1       7.479  -4.077  22.240  0.00  0.00    +0.004 C 
BRANCH  12  13
ATOM     13  C   UNL     1       7.177  -5.463  22.802  0.00  0.00    +0.000 C 
BRANCH  13  14
ATOM     14  C   UNL     1       7.149  -5.436  24.328  0.00  0.00    +0.000 C 
BRANCH  14  15
ATOM     15  C   UNL     1       8.442  -4.854  24.898  0.00  0.00    +0.000 C 
BRANCH  15  16
ATOM     16  C   UNL     1       8.380  -4.808  26.424  0.00  0.00    +0.009 C 
BRANCH  16  17
ATOM     17  C   UNL     1       7.127  -4.094  26.919  0.00  0.00    +0.095 C 
BRANCH  17  18
ATOM     18  C   UNL     1       6.341  -4.950  27.889  0.00  0.00    +0.210 C 
ATOM     19  O   UNL     1       5.352  -4.581  28.510  0.00  0.00    -0.276 OA
ATOM     20  N   UNL     1       6.827  -6.215  28.035  0.00  0.00    -0.329 N 
ATOM     21  H   UNL     1       6.341  -6.833  28.670  0.00  0.00    +0.145 HD
ATOM     22  H   UNL     1       7.640  -6.557  27.541  0.00  0.00    +0.145 HD
ENDBRANCH  17  18
ENDBRANCH  16  17
ENDBRANCH  15  16
ENDBRANCH  14  15
ENDBRANCH  13  14
ENDBRANCH  12  13
ENDBRANCH   1  12
TORSDOF 15
ENDMDL
MODEL 7
REMARK VINA RESULT:      -4.5      2.399      4.073
REMARK  Name = 
REMARK  16 active torsions:
REMARK  status: ('A' for Active; 'I' for Inactive)
REMARK    1  A    between atoms: C_1  and  C_2
REMARK    2  A    between atoms: C_2  and  C_3
REMARK    3  A    between atoms: C_3  and  C_4
REMARK    4  A    between atoms: C_4  and  C_5
REMARK    5  A    between atoms: C_5  and  C_6
REMARK    6  A    between atoms: C_6  and  C_7
REMARK    7  A    between atoms: C_7  and  C_8
REMARK    8  A    between atoms: C_8  and  C_9
REMARK    9  A    between atoms: C_10  and  C_11
REMARK   10  A    between atoms: C_11  and  C_12
REMARK   11  A    between atoms: C_12  and  C_13
REMARK   12  A    between atoms: C_13  and  C_14
REMARK   13  A    between atoms: C_14  and  C_15
REMARK   14  A    between atoms: C_15  and  C_16
REMARK   15  A    between atoms: C_16  and  C_17
REMARK   16  A    between atoms: C_17  and  C_18
REMARK                            x       y       z     vdW  Elec       q    Type
REMARK                         _______ _______ _______ _____ _____    ______ ____
ROOT
ATOM      1  C   UNL     1       5.885  -2.828  22.498  0.00  0.00    +0.027 C 
ENDROOT
BRANCH   1   3
ATOM      2  C   UNL     1       6.645  -1.325  24.346  0.00  0.00    -0.031 C 
ATOM      3  C   UNL     1       6.675  -1.683  23.055  0.00  0.00    -0.031 C 
BRANCH   2   4
ATOM      4  C   UNL     1       7.443  -0.184  24.901  0.00  0.00    +0.027 C 
BRANCH   4   5
ATOM      5  C   UNL     1       8.777  -0.670  25.467  0.00  0.00    +0.004 C 
BRANCH   5   6
ATOM      6  C   UNL     1       9.872  -0.604  24.406  0.00  0.00    +0.000 C 
BRANCH   6   7
ATOM      7  C   UNL     1      10.859   0.521  24.708  0.00  0.00    +0.000 C 
BRANCH   7   8
ATOM      8  C   UNL     1      10.484   1.794  23.954  0.00  0.00    -0.000 C 
BRANCH   8   9
ATOM      9  C   UNL     1      10.038   1.474  22.530  0.00  0.00    -0.000 C 
BRANCH   9  11
ATOM     10  C   UNL     1       7.642   1.680  21.802  0.00  0.00    +0.004 C 
ATOM     11  C   UNL     1       8.938   2.426  22.068  0.00  0.00    -0.003 C 
ENDBRANCH   9  11
ENDBRANCH   8   9
ENDBRANCH   7   8
ENDBRANCH   6   7
ENDBRANCH   5   6
ENDBRANCH   4   5
ENDBRANCH   2   4
ENDBRANCH   1   3
BRANCH   1  12
ATOM     12  C   UNL     1       6.431  -4.157  23.013  0.00  0.00    +0.004 C 
BRANCH  12  13
ATOM     13  C   UNL     1       5.296  -5.096  23.411  0.00  0.00    +0.000 C 
BRANCH  13  14
ATOM     14  C   UNL     1       5.538  -5.678  24.802  0.00  0.00    +0.000 C 
BRANCH  14  15
ATOM     15  C   UNL     1       6.111  -4.630  25.753  0.00  0.00    +0.000 C 
BRANCH  15  16
ATOM     16  C   UNL     1       7.329  -5.184  26.489  0.00  0.00    +0.009 C 
BRANCH  16  17
ATOM     17  C   UNL     1       8.505  -4.214  26.448  0.00  0.00    +0.095 C 
BRANCH  17  18
ATOM     18  C   UNL     1       9.495  -4.580  25.363  0.00  0.00    +0.210 C 
ATOM     19  O   UNL     1       9.644  -3.971  24.311  0.00  0.00    -0.276 OA
ATOM     20  N   UNL     1      10.245  -5.684  25.643  0.00  0.00    -0.329 N 
ATOM     21  H   UNL     1      10.925  -5.976  24.954  0.00  0.00    +0.145 HD
ATOM     22  H   UNL     1      10.152  -6.214  26.499  0.00  0.00    +0.145 HD
ENDBRANCH  17  18
ENDBRANCH  16  17
ENDBRANCH  15  16
ENDBRANCH  14  15
ENDBRANCH  13  14
ENDBRANCH  12  13
ENDBRANCH   1  12
TORSDOF 15
ENDMDL
MODEL 8
REMARK VINA RESULT:      -4.5      2.534      3.514
REMARK  Name = 
REMARK  16 active torsions:
REMARK  status: ('A' for Active; 'I' for Inactive)
REMARK    1  A    between atoms: C_1  and  C_2
REMARK    2  A    between atoms: C_2  and  C_3
REMARK    3  A    between atoms: C_3  and  C_4
REMARK    4  A    between atoms: C_4  and  C_5
REMARK    5  A    between atoms: C_5  and  C_6
REMARK    6  A    between atoms: C_6  and  C_7
REMARK    7  A    between atoms: C_7  and  C_8
REMARK    8  A    between atoms: C_8  and  C_9
REMARK    9  A    between atoms: C_10  and  C_11
REMARK   10  A    between atoms: C_11  and  C_12
REMARK   11  A    between atoms: C_12  and  C_13
REMARK   12  A    between atoms: C_13  and  C_14
REMARK   13  A    between atoms: C_14  and  C_15
REMARK   14  A    between atoms: C_15  and  C_16
REMARK   15  A    between atoms: C_16  and  C_17
REMARK   16  A    between atoms: C_17  and  C_18
REMARK                            x       y       z     vdW  Elec       q    Type
REMARK                         _______ _______ _______ _____ _____    ______ ____
ROOT
ATOM      1  C   UNL     1       5.791  -0.364  24.911  0.00  0.00    +0.027 C 
ENDROOT
BRANCH   1   3
ATOM      2  C   UNL     1       6.621   1.864  24.137  0.00  0.00    -0.031 C 
ATOM      3  C   UNL     1       6.397   0.564  23.902  0.00  0.00    -0.031 C 
BRANCH   2   4
ATOM      4  C   UNL     1       7.235   2.787  23.129  0.00  0.00    +0.027 C 
BRANCH   4   5
ATOM      5  C   UNL     1       7.474   2.070  21.801  0.00  0.00    +0.004 C 
BRANCH   5   6
ATOM      6  C   UNL     1       8.954   1.746  21.620  0.00  0.00    +0.000 C 
BRANCH   6   7
ATOM      7  C   UNL     1       9.160   0.256  21.360  0.00  0.00    +0.000 C 
BRANCH   7   8
ATOM      8  C   UNL     1       9.972  -0.387  22.481  0.00  0.00    -0.000 C 
BRANCH   8   9
ATOM      9  C   UNL     1      10.314   0.634  23.563  0.00  0.00    -0.000 C 
BRANCH   9  11
ATOM     10  C   UNL     1       9.432  -1.309  24.888  0.00  0.00    +0.004 C 
ATOM     11  C   UNL     1       9.907   0.133  24.945  0.00  0.00    -0.003 C 
ENDBRANCH   9  11
ENDBRANCH   8   9
ENDBRANCH   7   8
ENDBRANCH   6   7
ENDBRANCH   5   6
ENDBRANCH   4   5
ENDBRANCH   2   4
ENDBRANCH   1   3
BRANCH   1  12
ATOM     12  C   UNL     1       5.688  -1.778  24.347  0.00  0.00    +0.004 C 
BRANCH  12  13
ATOM     13  C   UNL     1       6.386  -1.878  22.993  0.00  0.00    +0.000 C 
BRANCH  13  14
ATOM     14  C   UNL     1       6.133  -3.240  22.352  0.00  0.00    +0.000 C 
BRANCH  14  15
ATOM     15  C   UNL     1       5.791  -4.294  23.402  0.00  0.00    +0.000 C 
BRANCH  15  16
ATOM     16  C   UNL     1       7.003  -5.180  23.687  0.00  0.00    +0.009 C 
BRANCH  16  17
ATOM     17  C   UNL     1       7.356  -5.197  25.170  0.00  0.00    +0.095 C 
BRANCH  17  18
ATOM     18  C   UNL     1       8.841  -5.005  25.394  0.00  0.00    +0.210 C 
ATOM     19  O   UNL     1       9.664  -4.799  24.511  0.00  0.00    -0.276 OA
ATOM     20  N   UNL     1       9.221  -5.079  26.702  0.00  0.00    -0.329 N 
ATOM     21  H   UNL     1      10.202  -4.957  26.912  0.00  0.00    +0.145 HD
ATOM     22  H   UNL     1       8.573  -5.247  27.458  0.00  0.00    +0.145 HD
ENDBRANCH  17  18
ENDBRANCH  16  17
ENDBRANCH  15  16
ENDBRANCH  14  15
ENDBRANCH  13  14
ENDBRANCH  12  13
ENDBRANCH   1  12
TORSDOF 15
ENDMDL
MODEL 9
REMARK VINA RESULT:      -4.5      2.439      3.800
REMARK  Name = 
REMARK  16 active torsions:
REMARK  status: ('A' for Active; 'I' for Inactive)
REMARK    1  A    between atoms: C_1  and  C_2
REMARK    2  A    between atoms: C_2  and  C_3
REMARK    3  A    between atoms: C_3  and  C_4
REMARK    4  A    between atoms: C_4  and  C_5
REMARK    5  A    between atoms: C_5  and  C_6
REMARK    6  A    between atoms: C_6  and  C_7
REMARK    7  A    between atoms: C_7  and  C_8
REMARK    8  A    between atoms: C_8  and  C_9
REMARK    9  A    between atoms: C_10  and  C_11
REMARK   10  A    between atoms: C_11  and  C_12
REMARK   11  A    between atoms: C_12  and  C_13
REMARK   12  A    between atoms: C_13  and  C_14
REMARK   13  A    between atoms: C_14  and  C_15
REMARK   14  A    between atoms: C_15  and  C_16
REMARK   15  A    between atoms: C_16  and  C_17
REMARK   16  A    between atoms: C_17  and  C_18
REMARK                            x       y       z     vdW  Elec       q    Type
REMARK                         _______ _______ _______ _____ _____    ______ ____
ROOT
ATOM      1  C   UNL     1       6.059  -2.167  23.103  0.00  0.00    +0.027 C 
ENDROOT
BRANCH   1   3
ATOM      2  C   UNL     1       8.317  -1.821  24.120  0.00  0.00    -0.031 C 
ATOM      3  C   UNL     1       7.553  -2.065  23.045  0.00  0.00    -0.031 C 
BRANCH   2   4
ATOM      4  C   UNL     1       9.811  -1.728  24.060  0.00  0.00    +0.027 C 
BRANCH   4   5
ATOM      5  C   UNL     1      10.276  -1.190  22.708  0.00  0.00    +0.004 C 
BRANCH   5   6
ATOM      6  C   UNL     1      10.134   0.329  22.652  0.00  0.00    +0.000 C 
BRANCH   6   7
ATOM      7  C   UNL     1       9.352   0.759  21.413  0.00  0.00    +0.000 C 
BRANCH   7   8
ATOM      8  C   UNL     1       8.119   1.572  21.800  0.00  0.00    -0.000 C 
BRANCH   8   9
ATOM      9  C   UNL     1       8.105   1.863  23.299  0.00  0.00    -0.000 C 
BRANCH   9  11
ATOM     10  C   UNL     1       6.858   1.318  25.410  0.00  0.00    +0.004 C 
ATOM     11  C   UNL     1       6.746   1.539  23.912  0.00  0.00    -0.003 C 
ENDBRANCH   9  11
ENDBRANCH   8   9
ENDBRANCH   7   8
ENDBRANCH   6   7
ENDBRANCH   5   6
ENDBRANCH   4   5
ENDBRANCH   2   4
ENDBRANCH   1   3
BRANCH   1  12
ATOM     12  C   UNL     1       5.574  -3.384  22.319  0.00  0.00    +0.004 C 
BRANCH  12  13
ATOM     13  C   UNL     1       4.990  -4.439  23.254  0.00  0.00    +0.000 C 
BRANCH  13  14
ATOM     14  C   UNL     1       4.547  -3.809  24.573  0.00  0.00    +0.000 C 
BRANCH  14  15
ATOM     15  C   UNL     1       5.134  -4.553  25.770  0.00  0.00    +0.000 C 
BRANCH  15  16
ATOM     16  C   UNL     1       6.284  -5.456  25.327  0.00  0.00    +0.009 C 
BRANCH  16  17
ATOM     17  C   UNL     1       7.607  -5.040  25.961  0.00  0.00    +0.095 C 
BRANCH  17  18
ATOM     18  C   UNL     1       8.779  -5.319  25.044  0.00  0.00    +0.210 C 
ATOM     19  O   UNL     1       8.719  -5.375  23.822  0.00  0.00    -0.276 OA
ATOM     20  N   UNL     1       9.962  -5.514  25.695  0.00  0.00    -0.329 N 
ATOM     21  H   UNL     1      10.780  -5.703  25.133  0.00  0.00    +0.145 HD
ATOM     22  H   UNL     1      10.053  -5.476  26.701  0.00  0.00    +0.145 HD
ENDBRANCH  17  18
ENDBRANCH  16  17
ENDBRANCH  15  16
ENDBRANCH  14  15
ENDBRANCH  13  14
ENDBRANCH  12  13
ENDBRANCH   1  12
TORSDOF 15
ENDMDL
