MODEL 1
REMARK VINA RESULT:      -6.8      0.000      0.000
REMARK  Name = 
REMARK  7 active torsions:
REMARK  status: ('A' for Active; 'I' for Inactive)
REMARK    1  A    between atoms: C_2  and  O_3
REMARK    2  A    between atoms: C_2  and  C_4
REMARK    3  A    between atoms: C_2  and  C_12
REMARK    4  A    between atoms: C_4  and  N_5
REMARK    5  A    between atoms: N_5  and  C_6
REMARK    6  A    between atoms: C_12  and  N_13
REMARK    7  A    between atoms: C_24  and  C_25
REMARK                            x       y       z     vdW  Elec       q    Type
REMARK                         _______ _______ _______ _____ _____    ______ ____
ROOT
ATOM      1  N   UNL     1       7.141  -3.995  25.837  0.00  0.00    -0.341 N 
ATOM      2  C   UNL     1       7.045  -4.319  24.491  0.00  0.00    +0.050 A 
ATOM      3  C   UNL     1       7.681  -3.791  23.353  0.00  0.00    +0.026 A 
ATOM      4  C   UNL     1       7.367  -4.339  22.101  0.00  0.00    +0.005 A 
ATOM      5  C   UNL     1       6.445  -5.379  21.968  0.00  0.00    -0.050 A 
ATOM      6  C   UNL     1       5.820  -5.894  23.113  0.00  0.00    +0.013 A 
ATOM      7  C   UNL     1       6.101  -5.958  20.625  0.00  0.00    +0.044 C 
ATOM      8  C   UNL     1       6.121  -5.366  24.385  0.00  0.00    +0.004 A 
ATOM      9  C   UNL     1       5.680  -5.680  25.694  0.00  0.00    -0.019 A 
ATOM     10  C   UNL     1       4.692  -6.706  26.136  0.00  0.00    +0.037 C 
ATOM     11  C   UNL     1       4.780  -6.950  27.652  0.00  0.00    +0.005 C 
ATOM     12  C   UNL     1       4.900  -5.632  28.436  0.00  0.00    +0.006 C 
ATOM     13  C   UNL     1       6.167  -4.848  28.052  0.00  0.00    +0.054 C 
ATOM     14  C   UNL     1       6.325  -4.826  26.569  0.00  0.00    +0.023 A 
ENDROOT
BRANCH   1  15
ATOM     15  C   UNL     1       8.049  -2.997  26.396  0.00  0.00    +0.154 C 
BRANCH  15  16
ATOM     16  C   UNL     1       7.557  -1.545  26.240  0.00  0.00    +0.148 C 
BRANCH  16  17
ATOM     17  O   UNL     1       6.466  -1.258  27.132  0.00  0.00    -0.389 OA
ATOM     18  H   UNL     1       6.417  -1.966  27.797  0.00  0.00    +0.210 HD
ENDBRANCH  16  17
BRANCH  16  19
ATOM     19  C   UNL     1       8.679  -0.533  26.568  0.00  0.00    +0.114 C 
BRANCH  19  20
ATOM     20  N   UNL     1       9.014   0.371  25.467  0.00  0.00    -0.311 NA
ATOM     21  H   UNL     1       9.087   1.324  25.828  0.00  0.00    +0.122 HD
BRANCH  20  22
ATOM     22  C   UNL     1      10.284   0.020  24.798  0.00  0.00    +0.054 C 
ATOM     23  C   UNL     1      10.913   1.295  24.205  0.00  0.00    +0.019 C 
ATOM     24  C   UNL     1      10.106   1.874  23.038  0.00  0.00    +0.002 C 
ATOM     25  C   UNL     1       9.765   0.831  21.971  0.00  0.00    +0.000 C 
ATOM     26  C   UNL     1       9.196  -0.456  22.562  0.00  0.00    +0.002 C 
ATOM     27  C   UNL     1      10.115  -0.998  23.655  0.00  0.00    +0.019 C 
ENDBRANCH  20  22
ENDBRANCH  19  20
ENDBRANCH  16  19
ENDBRANCH  15  16
ENDBRANCH   1  15
TORSDOF 6
ENDMDL
MODEL 2
REMARK VINA RESULT:      -6.7      2.448      7.247
REMARK  Name = 
REMARK  7 active torsions:
REMARK  status: ('A' for Active; 'I' for Inactive)
REMARK    1  A    between atoms: C_2  and  O_3
REMARK    2  A    between atoms: C_2  and  C_4
REMARK    3  A    between atoms: C_2  and  C_12
REMARK    4  A    between atoms: C_4  and  N_5
REMARK    5  A    between atoms: N_5  and  C_6
REMARK    6  A    between atoms: C_12  and  N_13
REMARK    7  A    between atoms: C_24  and  C_25
REMARK                            x       y       z     vdW  Elec       q    Type
REMARK                         _______ _______ _______ _____ _____    ______ ____
ROOT
ATOM      1  N   UNL     1       9.251   0.426  24.594  0.00  0.00    -0.341 N 
ATOM      2  C   UNL     1       9.603   1.725  24.255  0.00  0.00    +0.050 A 
ATOM      3  C   UNL     1      10.648   2.236  23.464  0.00  0.00    +0.026 A 
ATOM      4  C   UNL     1      10.745   3.626  23.308  0.00  0.00    +0.005 A 
ATOM      5  C   UNL     1       9.841   4.497  23.920  0.00  0.00    -0.050 A 
ATOM      6  C   UNL     1       8.806   3.971  24.706  0.00  0.00    +0.013 A 
ATOM      7  C   UNL     1       9.953   5.986  23.761  0.00  0.00    +0.044 C 
ATOM      8  C   UNL     1       8.680   2.577  24.875  0.00  0.00    +0.004 A 
ATOM      9  C   UNL     1       7.754   1.764  25.575  0.00  0.00    -0.019 A 
ATOM     10  C   UNL     1       6.584   2.169  26.405  0.00  0.00    +0.037 C 
ATOM     11  C   UNL     1       5.652   0.976  26.679  0.00  0.00    +0.005 C 
ATOM     12  C   UNL     1       6.441  -0.290  27.053  0.00  0.00    +0.006 C 
ATOM     13  C   UNL     1       7.388  -0.733  25.923  0.00  0.00    +0.054 C 
ATOM     14  C   UNL     1       8.124   0.447  25.382  0.00  0.00    +0.023 A 
ENDROOT
BRANCH   1  15
ATOM     15  C   UNL     1       9.914  -0.778  24.100  0.00  0.00    +0.154 C 
BRANCH  15  16
ATOM     16  C   UNL     1       9.357  -1.295  22.759  0.00  0.00    +0.148 C 
BRANCH  16  17
ATOM     17  O   UNL     1      10.409  -1.551  21.813  0.00  0.00    -0.389 OA
ATOM     18  H   UNL     1      10.368  -0.873  21.117  0.00  0.00    +0.210 HD
ENDBRANCH  16  17
BRANCH  16  19
ATOM     19  C   UNL     1       8.591  -2.625  22.945  0.00  0.00    +0.114 C 
BRANCH  19  20
ATOM     20  N   UNL     1       8.897  -3.327  24.192  0.00  0.00    -0.311 NA
ATOM     21  H   UNL     1       8.452  -2.836  24.969  0.00  0.00    +0.122 HD
BRANCH  20  22
ATOM     22  C   UNL     1       8.436  -4.730  24.193  0.00  0.00    +0.054 C 
ATOM     23  C   UNL     1       6.896  -4.758  24.130  0.00  0.00    +0.019 C 
ATOM     24  C   UNL     1       6.235  -4.221  25.403  0.00  0.00    +0.002 C 
ATOM     25  C   UNL     1       6.786  -4.861  26.679  0.00  0.00    +0.000 C 
ATOM     26  C   UNL     1       8.311  -4.888  26.718  0.00  0.00    +0.002 C 
ATOM     27  C   UNL     1       8.870  -5.518  25.443  0.00  0.00    +0.019 C 
ENDBRANCH  20  22
ENDBRANCH  19  20
ENDBRANCH  16  19
ENDBRANCH  15  16
ENDBRANCH   1  15
TORSDOF 6
ENDMDL
MODEL 3
REMARK VINA RESULT:      -6.6      1.167      3.888
REMARK  Name = 
REMARK  7 active torsions:
REMARK  status: ('A' for Active; 'I' for Inactive)
REMARK    1  A    between atoms: C_2  and  O_3
REMARK    2  A    between atoms: C_2  and  C_4
REMARK    3  A    between atoms: C_2  and  C_12
REMARK    4  A    between atoms: C_4  and  N_5
REMARK    5  A    between atoms: N_5  and  C_6
REMARK    6  A    between atoms: C_12  and  N_13
REMARK    7  A    between atoms: C_24  and  C_25
REMARK                            x       y       z     vdW  Elec       q    Type
REMARK                         _______ _______ _______ _____ _____    ______ ____
ROOT
ATOM      1  N   UNL     1       7.466  -4.687  25.468  0.00  0.00    -0.341 N 
ATOM      2  C   UNL     1       6.570  -5.118  26.436  0.00  0.00    +0.050 A 
ATOM      3  C   UNL     1       6.562  -4.973  27.835  0.00  0.00    +0.026 A 
ATOM      4  C   UNL     1       5.498  -5.535  28.555  0.00  0.00    +0.005 A 
ATOM      5  C   UNL     1       4.468  -6.229  27.918  0.00  0.00    -0.050 A 
ATOM      6  C   UNL     1       4.492  -6.364  26.523  0.00  0.00    +0.013 A 
ATOM      7  C   UNL     1       3.336  -6.840  28.692  0.00  0.00    +0.044 C 
ATOM      8  C   UNL     1       5.545  -5.804  25.772  0.00  0.00    +0.004 A 
ATOM      9  C   UNL     1       5.831  -5.759  24.385  0.00  0.00    -0.019 A 
ATOM     10  C   UNL     1       5.067  -6.343  23.245  0.00  0.00    +0.037 C 
ATOM     11  C   UNL     1       5.531  -5.756  21.901  0.00  0.00    +0.005 C 
ATOM     12  C   UNL     1       7.063  -5.669  21.816  0.00  0.00    +0.006 C 
ATOM     13  C   UNL     1       7.650  -4.757  22.909  0.00  0.00    +0.054 C 
ATOM     14  C   UNL     1       7.013  -5.062  24.224  0.00  0.00    +0.023 A 
ENDROOT
BRANCH   1  15
ATOM     15  C   UNL     1       8.648  -3.869  25.724  0.00  0.00    +0.154 C 
BRANCH  15  16
ATOM     16  C   UNL     1       8.452  -2.371  25.422  0.00  0.00    +0.148 C 
BRANCH  16  17
ATOM     17  O   UNL     1       8.646  -1.565  26.597  0.00  0.00    -0.389 OA
ATOM     18  H   UNL     1       7.776  -1.391  26.998  0.00  0.00    +0.210 HD
ENDBRANCH  16  17
BRANCH  16  19
ATOM     19  C   UNL     1       9.466  -1.872  24.367  0.00  0.00    +0.114 C 
BRANCH  19  20
ATOM     20  N   UNL     1       9.035  -0.681  23.634  0.00  0.00    -0.311 NA
ATOM     21  H   UNL     1       8.423  -0.124  24.234  0.00  0.00    +0.122 HD
BRANCH  20  22
ATOM     22  C   UNL     1      10.162   0.165  23.193  0.00  0.00    +0.054 C 
ATOM     23  C   UNL     1      10.467   1.212  24.282  0.00  0.00    +0.019 C 
ATOM     24  C   UNL     1       9.354   2.252  24.442  0.00  0.00    +0.002 C 
ATOM     25  C   UNL     1       8.931   2.885  23.115  0.00  0.00    +0.000 C 
ATOM     26  C   UNL     1       8.685   1.853  22.018  0.00  0.00    +0.002 C 
ATOM     27  C   UNL     1       9.886   0.920  21.879  0.00  0.00    +0.019 C 
ENDBRANCH  20  22
ENDBRANCH  19  20
ENDBRANCH  16  19
ENDBRANCH  15  16
ENDBRANCH   1  15
TORSDOF 6
ENDMDL
MODEL 4
REMARK VINA RESULT:      -6.5      2.515      7.317
REMARK  Name = 
REMARK  7 active torsions:
REMARK  status: ('A' for Active; 'I' for Inactive)
REMARK    1  A    between atoms: C_2  and  O_3
REMARK    2  A    between atoms: C_2  and  C_4
REMARK    3  A    between atoms: C_2  and  C_12
REMARK    4  A    between atoms: C_4  and  N_5
REMARK    5  A    between atoms: N_5  and  C_6
REMARK    6  A    between atoms: C_12  and  N_13
REMARK    7  A    between atoms: C_24  and  C_25
REMARK                            x       y       z     vdW  Elec       q    Type
REMARK                         _______ _______ _______ _____ _____    ______ ____
ROOT
ATOM      1  N   UNL     1       9.402   0.497  24.674  0.00  0.00    -0.341 N 
ATOM      2  C   UNL     1       9.702   1.802  24.308  0.00  0.00    +0.050 A 
ATOM      3  C   UNL     1      10.743   2.340  23.530  0.00  0.00    +0.026 A 
ATOM      4  C   UNL     1      10.780   3.729  23.338  0.00  0.00    +0.005 A 
ATOM      5  C   UNL     1       9.820   4.572  23.902  0.00  0.00    -0.050 A 
ATOM      6  C   UNL     1       8.790   4.018  24.675  0.00  0.00    +0.013 A 
ATOM      7  C   UNL     1       9.867   6.059  23.705  0.00  0.00    +0.044 C 
ATOM      8  C   UNL     1       8.724   2.625  24.879  0.00  0.00    +0.004 A 
ATOM      9  C   UNL     1       7.818   1.789  25.578  0.00  0.00    -0.019 A 
ATOM     10  C   UNL     1       6.608   2.160  26.366  0.00  0.00    +0.037 C 
ATOM     11  C   UNL     1       5.725   0.932  26.648  0.00  0.00    +0.005 C 
ATOM     12  C   UNL     1       6.562  -0.284  27.078  0.00  0.00    +0.006 C 
ATOM     13  C   UNL     1       7.559  -0.712  25.986  0.00  0.00    +0.054 C 
ATOM     14  C   UNL     1       8.254   0.486  25.432  0.00  0.00    +0.023 A 
ENDROOT
BRANCH   1  15
ATOM     15  C   UNL     1      10.133  -0.687  24.231  0.00  0.00    +0.154 C 
BRANCH  15  16
ATOM     16  C   UNL     1       9.521  -1.377  22.996  0.00  0.00    +0.148 C 
BRANCH  16  17
ATOM     17  O   UNL     1      10.475  -1.487  21.925  0.00  0.00    -0.389 OA
ATOM     18  H   UNL     1      11.286  -1.017  22.186  0.00  0.00    +0.210 HD
ENDBRANCH  16  17
BRANCH  16  19
ATOM     19  C   UNL     1       9.055  -2.813  23.328  0.00  0.00    +0.114 C 
BRANCH  19  20
ATOM     20  N   UNL     1       7.603  -2.996  23.294  0.00  0.00    -0.311 NA
ATOM     21  H   UNL     1       7.304  -3.108  22.324  0.00  0.00    +0.122 HD
BRANCH  20  22
ATOM     22  C   UNL     1       7.151  -4.171  24.067  0.00  0.00    +0.054 C 
ATOM     23  C   UNL     1       7.745  -5.448  23.442  0.00  0.00    +0.019 C 
ATOM     24  C   UNL     1       7.171  -5.760  22.056  0.00  0.00    +0.002 C 
ATOM     25  C   UNL     1       5.642  -5.742  22.025  0.00  0.00    +0.000 C 
ATOM     26  C   UNL     1       5.049  -4.505  22.695  0.00  0.00    +0.002 C 
ATOM     27  C   UNL     1       5.620  -4.331  24.101  0.00  0.00    +0.019 C 
ENDBRANCH  20  22
ENDBRANCH  19  20
ENDBRANCH  16  19
ENDBRANCH  15  16
ENDBRANCH   1  15
TORSDOF 6
ENDMDL
MODEL 5
REMARK VINA RESULT:      -6.4      2.709      5.414
REMARK  Name = 
REMARK  7 active torsions:
REMARK  status: ('A' for Active; 'I' for Inactive)
REMARK    1  A    between atoms: C_2  and  O_3
REMARK    2  A    between atoms: C_2  and  C_4
REMARK    3  A    between atoms: C_2  and  C_12
REMARK    4  A    between atoms: C_4  and  N_5
REMARK    5  A    between atoms: N_5  and  C_6
REMARK    6  A    between atoms: C_12  and  N_13
REMARK    7  A    between atoms: C_24  and  C_25
REMARK                            x       y       z     vdW  Elec       q    Type
REMARK                         _______ _______ _______ _____ _____    ______ ____
ROOT
ATOM      1  N   UNL     1       7.515  -3.735  26.554  0.00  0.00    -0.341 N 
ATOM      2  C   UNL     1       6.332  -4.460  26.582  0.00  0.00    +0.050 A 
ATOM      3  C   UNL     1       6.080  -5.842  26.526  0.00  0.00    +0.026 A 
ATOM      4  C   UNL     1       4.747  -6.277  26.575  0.00  0.00    +0.005 A 
ATOM      5  C   UNL     1       3.686  -5.376  26.672  0.00  0.00    -0.050 A 
ATOM      6  C   UNL     1       3.955  -4.001  26.726  0.00  0.00    +0.013 A 
ATOM      7  C   UNL     1       2.259  -5.843  26.713  0.00  0.00    +0.044 C 
ATOM      8  C   UNL     1       5.285  -3.535  26.686  0.00  0.00    +0.004 A 
ATOM      9  C   UNL     1       5.862  -2.242  26.740  0.00  0.00    -0.019 A 
ATOM     10  C   UNL     1       5.192  -0.914  26.840  0.00  0.00    +0.037 C 
ATOM     11  C   UNL     1       6.191   0.188  27.230  0.00  0.00    +0.005 C 
ATOM     12  C   UNL     1       7.509   0.066  26.448  0.00  0.00    +0.006 C 
ATOM     13  C   UNL     1       8.218  -1.273  26.720  0.00  0.00    +0.054 C 
ATOM     14  C   UNL     1       7.234  -2.393  26.662  0.00  0.00    +0.023 A 
ENDROOT
BRANCH   1  15
ATOM     15  C   UNL     1       8.854  -4.317  26.521  0.00  0.00    +0.154 C 
BRANCH  15  16
ATOM     16  C   UNL     1       9.486  -4.357  25.116  0.00  0.00    +0.148 C 
BRANCH  16  17
ATOM     17  O   UNL     1      10.014  -5.660  24.811  0.00  0.00    -0.389 OA
ATOM     18  H   UNL     1      10.801  -5.550  24.250  0.00  0.00    +0.210 HD
ENDBRANCH  16  17
BRANCH  16  19
ATOM     19  C   UNL     1       8.445  -4.030  24.021  0.00  0.00    +0.114 C 
BRANCH  19  20
ATOM     20  N   UNL     1       7.804  -5.205  23.430  0.00  0.00    -0.311 NA
ATOM     21  H   UNL     1       7.121  -5.580  24.089  0.00  0.00    +0.122 HD
BRANCH  20  22
ATOM     22  C   UNL     1       7.118  -4.909  22.155  0.00  0.00    +0.054 C 
ATOM     23  C   UNL     1       6.486  -3.506  22.234  0.00  0.00    +0.019 C 
ATOM     24  C   UNL     1       5.322  -3.429  23.228  0.00  0.00    +0.002 C 
ATOM     25  C   UNL     1       4.285  -4.535  23.022  0.00  0.00    +0.000 C 
ATOM     26  C   UNL     1       4.914  -5.919  22.885  0.00  0.00    +0.002 C 
ATOM     27  C   UNL     1       6.001  -5.911  21.812  0.00  0.00    +0.019 C 
ENDBRANCH  20  22
ENDBRANCH  19  20
ENDBRANCH  16  19
ENDBRANCH  15  16
ENDBRANCH   1  15
TORSDOF 6
ENDMDL
MODEL 6
REMARK VINA RESULT:      -6.4      2.415      6.795
REMARK  Name = 
REMARK  7 active torsions:
REMARK  status: ('A' for Active; 'I' for Inactive)
REMARK    1  A    between atoms: C_2  and  O_3
REMARK    2  A    between atoms: C_2  and  C_4
REMARK    3  A    between atoms: C_2  and  C_12
REMARK    4  A    between atoms: C_4  and  N_5
REMARK    5  A    between atoms: N_5  and  C_6
REMARK    6  A    between atoms: C_12  and  N_13
REMARK    7  A    between atoms: C_24  and  C_25
REMARK                            x       y       z     vdW  Elec       q    Type
REMARK                         _______ _______ _______ _____ _____    ______ ____
ROOT
ATOM      1  N   UNL     1       8.444  -2.137  24.857  0.00  0.00    -0.341 N 
ATOM      2  C   UNL     1       7.369  -1.533  25.495  0.00  0.00    +0.050 A 
ATOM      3  C   UNL     1       6.680  -1.857  26.677  0.00  0.00    +0.026 A 
ATOM      4  C   UNL     1       5.612  -1.038  27.070  0.00  0.00    +0.005 A 
ATOM      5  C   UNL     1       5.224   0.071  26.316  0.00  0.00    -0.050 A 
ATOM      6  C   UNL     1       5.922   0.380  25.140  0.00  0.00    +0.013 A 
ATOM      7  C   UNL     1       4.073   0.940  26.732  0.00  0.00    +0.044 C 
ATOM      8  C   UNL     1       7.005  -0.422  24.724  0.00  0.00    +0.004 A 
ATOM      9  C   UNL     1       7.893  -0.357  23.622  0.00  0.00    -0.019 A 
ATOM     10  C   UNL     1       7.933   0.624  22.500  0.00  0.00    +0.037 C 
ATOM     11  C   UNL     1       9.262   0.539  21.730  0.00  0.00    +0.005 C 
ATOM     12  C   UNL     1       9.680  -0.918  21.473  0.00  0.00    +0.006 C 
ATOM     13  C   UNL     1       9.892  -1.695  22.785  0.00  0.00    +0.054 C 
ATOM     14  C   UNL     1       8.770  -1.419  23.729  0.00  0.00    +0.023 A 
ENDROOT
BRANCH   1  15
ATOM     15  C   UNL     1       9.178  -3.293  25.363  0.00  0.00    +0.154 C 
BRANCH  15  16
ATOM     16  C   UNL     1       8.681  -4.643  24.811  0.00  0.00    +0.148 C 
BRANCH  16  17
ATOM     17  O   UNL     1       9.765  -5.567  24.618  0.00  0.00    -0.389 OA
ATOM     18  H   UNL     1       9.870  -5.724  23.664  0.00  0.00    +0.210 HD
ENDBRANCH  16  17
BRANCH  16  19
ATOM     19  C   UNL     1       7.687  -5.317  25.785  0.00  0.00    +0.114 C 
BRANCH  19  20
ATOM     20  N   UNL     1       6.286  -5.226  25.374  0.00  0.00    -0.311 NA
ATOM     21  H   UNL     1       5.829  -4.486  25.909  0.00  0.00    +0.122 HD
BRANCH  20  22
ATOM     22  C   UNL     1       6.124  -4.938  23.934  0.00  0.00    +0.054 C 
ATOM     23  C   UNL     1       5.264  -3.671  23.764  0.00  0.00    +0.019 C 
ATOM     24  C   UNL     1       3.808  -3.874  24.197  0.00  0.00    +0.002 C 
ATOM     25  C   UNL     1       3.165  -5.114  23.573  0.00  0.00    +0.000 C 
ATOM     26  C   UNL     1       4.042  -6.358  23.687  0.00  0.00    +0.002 C 
ATOM     27  C   UNL     1       5.445  -6.078  23.152  0.00  0.00    +0.019 C 
ENDBRANCH  20  22
ENDBRANCH  19  20
ENDBRANCH  16  19
ENDBRANCH  15  16
ENDBRANCH   1  15
TORSDOF 6
ENDMDL
MODEL 7
REMARK VINA RESULT:      -6.3      1.958      2.256
REMARK  Name = 
REMARK  7 active torsions:
REMARK  status: ('A' for Active; 'I' for Inactive)
REMARK    1  A    between atoms: C_2  and  O_3
REMARK    2  A    between atoms: C_2  and  C_4
REMARK    3  A    between atoms: C_2  and  C_12
REMARK    4  A    between atoms: C_4  and  N_5
REMARK    5  A    between atoms: N_5  and  C_6
REMARK    6  A    between atoms: C_12  and  N_13
REMARK    7  A    between atoms: C_24  and  C_25
REMARK                            x       y       z     vdW  Elec       q    Type
REMARK                         _______ _______ _______ _____ _____    ______ ____
ROOT
ATOM      1  N   UNL     1       6.814  -2.943  25.650  0.00  0.00    -0.341 N 
ATOM      2  C   UNL     1       6.858  -3.695  24.484  0.00  0.00    +0.050 A 
ATOM      3  C   UNL     1       7.936  -4.166  23.714  0.00  0.00    +0.026 A 
ATOM      4  C   UNL     1       7.653  -4.914  22.562  0.00  0.00    +0.005 A 
ATOM      5  C   UNL     1       6.341  -5.189  22.171  0.00  0.00    -0.050 A 
ATOM      6  C   UNL     1       5.278  -4.711  22.951  0.00  0.00    +0.013 A 
ATOM      7  C   UNL     1       6.040  -5.980  20.931  0.00  0.00    +0.044 C 
ATOM      8  C   UNL     1       5.533  -3.962  24.118  0.00  0.00    +0.004 A 
ATOM      9  C   UNL     1       4.693  -3.374  25.096  0.00  0.00    -0.019 A 
ATOM     10  C   UNL     1       3.204  -3.356  25.172  0.00  0.00    +0.037 C 
ATOM     11  C   UNL     1       2.720  -2.928  26.567  0.00  0.00    +0.005 C 
ATOM     12  C   UNL     1       3.518  -1.727  27.104  0.00  0.00    +0.006 C 
ATOM     13  C   UNL     1       5.016  -2.050  27.248  0.00  0.00    +0.054 C 
ATOM     14  C   UNL     1       5.505  -2.759  26.029  0.00  0.00    +0.023 A 
ENDROOT
BRANCH   1  15
ATOM     15  C   UNL     1       7.983  -2.508  26.411  0.00  0.00    +0.154 C 
BRANCH  15  16
ATOM     16  C   UNL     1       8.467  -1.088  26.059  0.00  0.00    +0.148 C 
BRANCH  16  17
ATOM     17  O   UNL     1       9.061  -0.435  27.195  0.00  0.00    -0.389 OA
ATOM     18  H   UNL     1       9.476  -1.112  27.757  0.00  0.00    +0.210 HD
ENDBRANCH  16  17
BRANCH  16  19
ATOM     19  C   UNL     1       9.543  -1.119  24.949  0.00  0.00    +0.114 C 
BRANCH  19  20
ATOM     20  N   UNL     1       9.134  -0.482  23.697  0.00  0.00    -0.311 NA
ATOM     21  H   UNL     1       8.280   0.055  23.859  0.00  0.00    +0.122 HD
BRANCH  20  22
ATOM     22  C   UNL     1      10.164   0.423  23.147  0.00  0.00    +0.054 C 
ATOM     23  C   UNL     1      10.452   1.543  24.165  0.00  0.00    +0.019 C 
ATOM     24  C   UNL     1       9.273   2.503  24.349  0.00  0.00    +0.002 C 
ATOM     25  C   UNL     1       8.723   3.036  23.024  0.00  0.00    +0.000 C 
ATOM     26  C   UNL     1       8.492   1.936  21.993  0.00  0.00    +0.002 C 
ATOM     27  C   UNL     1       9.751   1.088  21.820  0.00  0.00    +0.019 C 
ENDBRANCH  20  22
ENDBRANCH  19  20
ENDBRANCH  16  19
ENDBRANCH  15  16
ENDBRANCH   1  15
TORSDOF 6
ENDMDL
MODEL 8
REMARK VINA RESULT:      -6.2      2.139      3.782
REMARK  Name = 
REMARK  7 active torsions:
REMARK  status: ('A' for Active; 'I' for Inactive)
REMARK    1  A    between atoms: C_2  and  O_3
REMARK    2  A    between atoms: C_2  and  C_4
REMARK    3  A    between atoms: C_2  and  C_12
REMARK    4  A    between atoms: C_4  and  N_5
REMARK    5  A    between atoms: N_5  and  C_6
REMARK    6  A    between atoms: C_12  and  N_13
REMARK    7  A    between atoms: C_24  and  C_25
REMARK                            x       y       z     vdW  Elec       q    Type
REMARK                         _______ _______ _______ _____ _____    ______ ____
ROOT
ATOM      1  N   UNL     1       6.075  -2.914  24.435  0.00  0.00    -0.341 N 
ATOM      2  C   UNL     1       4.814  -2.998  25.006  0.00  0.00    +0.050 A 
ATOM      3  C   UNL     1       4.174  -2.214  25.983  0.00  0.00    +0.026 A 
ATOM      4  C   UNL     1       2.869  -2.559  26.363  0.00  0.00    +0.005 A 
ATOM      5  C   UNL     1       2.209  -3.654  25.802  0.00  0.00    -0.050 A 
ATOM      6  C   UNL     1       2.861  -4.425  24.830  0.00  0.00    +0.013 A 
ATOM      7  C   UNL     1       0.816  -4.029  26.219  0.00  0.00    +0.044 C 
ATOM      8  C   UNL     1       4.171  -4.097  24.423  0.00  0.00    +0.004 A 
ATOM      9  C   UNL     1       5.062  -4.659  23.476  0.00  0.00    -0.019 A 
ATOM     10  C   UNL     1       4.873  -5.846  22.592  0.00  0.00    +0.037 C 
ATOM     11  C   UNL     1       5.932  -5.887  21.478  0.00  0.00    +0.005 C 
ATOM     12  C   UNL     1       7.336  -5.561  22.013  0.00  0.00    +0.006 C 
ATOM     13  C   UNL     1       7.406  -4.148  22.621  0.00  0.00    +0.054 C 
ATOM     14  C   UNL     1       6.223  -3.911  23.498  0.00  0.00    +0.023 A 
ENDROOT
BRANCH   1  15
ATOM     15  C   UNL     1       7.052  -1.863  24.710  0.00  0.00    +0.154 C 
BRANCH  15  16
ATOM     16  C   UNL     1       7.747  -1.997  26.079  0.00  0.00    +0.148 C 
BRANCH  16  17
ATOM     17  O   UNL     1       8.337  -3.297  26.249  0.00  0.00    -0.389 OA
ATOM     18  H   UNL     1       8.877  -3.495  25.463  0.00  0.00    +0.210 HD
ENDBRANCH  16  17
BRANCH  16  19
ATOM     19  C   UNL     1       8.888  -0.965  26.234  0.00  0.00    +0.114 C 
BRANCH  19  20
ATOM     20  N   UNL     1       9.031  -0.052  25.100  0.00  0.00    -0.311 NA
ATOM     21  H   UNL     1       8.911   0.908  25.426  0.00  0.00    +0.122 HD
BRANCH  20  22
ATOM     22  C   UNL     1      10.344  -0.164  24.431  0.00  0.00    +0.054 C 
ATOM     23  C   UNL     1      10.944   1.244  24.254  0.00  0.00    +0.019 C 
ATOM     24  C   UNL     1      10.167   2.106  23.253  0.00  0.00    +0.002 C 
ATOM     25  C   UNL     1       9.919   1.397  21.920  0.00  0.00    +0.000 C 
ATOM     26  C   UNL     1       9.380  -0.020  22.093  0.00  0.00    +0.002 C 
ATOM     27  C   UNL     1      10.270  -0.822  23.041  0.00  0.00    +0.019 C 
ENDBRANCH  20  22
ENDBRANCH  19  20
ENDBRANCH  16  19
ENDBRANCH  15  16
ENDBRANCH   1  15
TORSDOF 6
ENDMDL
MODEL 9
REMARK VINA RESULT:      -6.2      2.305      7.414
REMARK  Name = 
REMARK  7 active torsions:
REMARK  status: ('A' for Active; 'I' for Inactive)
REMARK    1  A    between atoms: C_2  and  O_3
REMARK    2  A    between atoms: C_2  and  C_4
REMARK    3  A    between atoms: C_2  and  C_12
REMARK    4  A    between atoms: C_4  and  N_5
REMARK    5  A    between atoms: N_5  and  C_6
REMARK    6  A    between atoms: C_12  and  N_13
REMARK    7  A    between atoms: C_24  and  C_25
REMARK                            x       y       z     vdW  Elec       q    Type
REMARK                         _______ _______ _______ _____ _____    ______ ____
ROOT
ATOM      1  N   UNL     1       7.881   0.739  25.118  0.00  0.00    -0.341 N 
ATOM      2  C   UNL     1       8.236   2.072  24.960  0.00  0.00    +0.050 A 
ATOM      3  C   UNL     1       7.895   3.224  25.689  0.00  0.00    +0.026 A 
ATOM      4  C   UNL     1       8.422   4.455  25.272  0.00  0.00    +0.005 A 
ATOM      5  C   UNL     1       9.260   4.554  24.160  0.00  0.00    -0.050 A 
ATOM      6  C   UNL     1       9.589   3.394  23.443  0.00  0.00    +0.013 A 
ATOM      7  C   UNL     1       9.814   5.874  23.708  0.00  0.00    +0.044 C 
ATOM      8  C   UNL     1       9.079   2.142  23.844  0.00  0.00    +0.004 A 
ATOM      9  C   UNL     1       9.242   0.825  23.348  0.00  0.00    -0.019 A 
ATOM     10  C   UNL     1      10.029   0.350  22.174  0.00  0.00    +0.037 C 
ATOM     11  C   UNL     1      10.220  -1.176  22.209  0.00  0.00    +0.005 C 
ATOM     12  C   UNL     1       8.921  -1.905  22.592  0.00  0.00    +0.006 C 
ATOM     13  C   UNL     1       8.425  -1.501  23.991  0.00  0.00    +0.054 C 
ATOM     14  C   UNL     1       8.499  -0.019  24.151  0.00  0.00    +0.023 A 
ENDROOT
BRANCH   1  15
ATOM     15  C   UNL     1       7.063   0.214  26.208  0.00  0.00    +0.154 C 
BRANCH  15  16
ATOM     16  C   UNL     1       5.577   0.029  25.844  0.00  0.00    +0.148 C 
BRANCH  16  17
ATOM     17  O   UNL     1       5.295   0.503  24.516  0.00  0.00    -0.389 OA
ATOM     18  H   UNL     1       4.371   0.286  24.302  0.00  0.00    +0.210 HD
ENDBRANCH  16  17
BRANCH  16  19
ATOM     19  C   UNL     1       5.170  -1.462  25.882  0.00  0.00    +0.114 C 
BRANCH  19  20
ATOM     20  N   UNL     1       5.076  -2.093  24.565  0.00  0.00    -0.311 NA
ATOM     21  H   UNL     1       6.009  -2.141  24.151  0.00  0.00    +0.122 HD
BRANCH  20  22
ATOM     22  C   UNL     1       4.512  -3.458  24.617  0.00  0.00    +0.054 C 
ATOM     23  C   UNL     1       5.363  -4.322  25.568  0.00  0.00    +0.019 C 
ATOM     24  C   UNL     1       6.770  -4.598  25.028  0.00  0.00    +0.002 C 
ATOM     25  C   UNL     1       6.767  -5.125  23.592  0.00  0.00    +0.000 C 
ATOM     26  C   UNL     1       5.879  -4.305  22.661  0.00  0.00    +0.002 C 
ATOM     27  C   UNL     1       4.476  -4.160  23.247  0.00  0.00    +0.019 C 
ENDBRANCH  20  22
ENDBRANCH  19  20
ENDBRANCH  16  19
ENDBRANCH  15  16
ENDBRANCH   1  15
TORSDOF 6
ENDMDL
