MODEL 1
REMARK VINA RESULT:      -6.0      0.000      0.000
REMARK  Name = 
REMARK  11 active torsions:
REMARK  status: ('A' for Active; 'I' for Inactive)
REMARK    1  A    between atoms: C_2  and  C_3
REMARK    2  A    between atoms: C_2  and  N_7
REMARK    3  A    between atoms: C_2  and  C_18
REMARK    4  A    between atoms: C_3  and  C_4
REMARK    5  A    between atoms: C_4  and  C_5
REMARK    6  A    between atoms: C_4  and  C_6
REMARK    7  A    between atoms: C_8  and  O_10
REMARK    8  A    between atoms: O_10  and  C_11
REMARK    9  A    between atoms: C_11  and  C_12
REMARK   10  A    between atoms: N_20  and  C_21
REMARK   11  A    between atoms: N_25  and  C_27
REMARK                            x       y       z     vdW  Elec       q    Type
REMARK                         _______ _______ _______ _____ _____    ______ ____
ROOT
ATOM      1  C   UNL     1       8.830  -2.967  23.159  0.00  0.00    +0.162 C 
ENDROOT
BRANCH   1   2
ATOM      2  C   UNL     1       9.700  -1.734  22.847  0.00  0.00    +0.234 C 
ATOM      3  N   UNL     1       9.058  -0.527  23.059  0.00  0.00    -0.309 N 
ATOM      4  H   UNL     1       8.098  -0.544  23.394  0.00  0.00    +0.149 HD
ATOM      5  O   UNL     1      10.840  -1.806  22.399  0.00  0.00    -0.274 OA
BRANCH   3   6
ATOM      6  C   UNL     1       9.769   0.740  22.920  0.00  0.00    +0.092 C 
ATOM      7  C   UNL     1       9.062   1.766  22.014  0.00  0.00    +0.138 C 
ATOM      8  N   UNL     1       8.267   2.644  22.930  0.00  0.00    -0.268 N 
ATOM      9  C   UNL     1       8.605   2.297  24.331  0.00  0.00    +0.118 C 
ATOM     10  C   UNL     1       9.886   1.479  24.246  0.00  0.00    +0.043 C 
BRANCH   8  11
ATOM     11  C   UNL     1       7.707   3.800  22.552  0.00  0.00    +0.169 C 
ATOM     12  N   UNL     1       7.199   4.788  22.225  0.00  0.00    -0.174 NA
ENDBRANCH   8  11
ENDBRANCH   3   6
ENDBRANCH   1   2
BRANCH   1  13
ATOM     13  N   UNL     1       8.750  -3.114  24.607  0.00  0.00    -0.270 N 
ATOM     14  H   UNL     1       8.458  -2.338  25.189  0.00  0.00    +0.153 HD
ATOM     15  C   UNL     1       9.180  -4.239  25.240  0.00  0.00    +0.401 C 
ATOM     16  O   UNL     1       9.722  -5.176  24.671  0.00  0.00    -0.226 OA
BRANCH  15  17
ATOM     17  O   UNL     1       8.861  -4.179  26.551  0.00  0.00    -0.446 OA
BRANCH  17  18
ATOM     18  C   UNL     1       7.974  -5.209  27.008  0.00  0.00    +0.269 C 
BRANCH  18  19
ATOM     19  C   UNL     1       6.544  -4.955  26.607  0.00  0.00    -0.010 A 
ATOM     20  C   UNL     1       5.942  -3.714  26.848  0.00  0.00    +0.007 A 
ATOM     21  C   UNL     1       4.596  -3.506  26.536  0.00  0.00    +0.000 A 
ATOM     22  C   UNL     1       3.839  -4.538  25.983  0.00  0.00    +0.000 A 
ATOM     23  C   UNL     1       4.425  -5.778  25.741  0.00  0.00    +0.000 A 
ATOM     24  C   UNL     1       5.769  -5.987  26.052  0.00  0.00    +0.007 A 
ENDBRANCH  18  19
ENDBRANCH  17  18
ENDBRANCH  15  17
ENDBRANCH   1  13
BRANCH   1  25
ATOM     25  C   UNL     1       7.421  -2.886  22.549  0.00  0.00    +0.035 C 
BRANCH  25  26
ATOM     26  C   UNL     1       6.459  -4.008  22.995  0.00  0.00    -0.015 C 
ATOM     27  C   UNL     1       6.875  -5.342  22.366  0.00  0.00    +0.007 C 
ATOM     28  C   UNL     1       5.000  -3.711  22.641  0.00  0.00    +0.007 C 
ENDBRANCH  25  26
ENDBRANCH   1  25
TORSDOF 9
ENDMDL
MODEL 2
REMARK VINA RESULT:      -5.7      2.425      7.403
REMARK  Name = 
REMARK  11 active torsions:
REMARK  status: ('A' for Active; 'I' for Inactive)
REMARK    1  A    between atoms: C_2  and  C_3
REMARK    2  A    between atoms: C_2  and  N_7
REMARK    3  A    between atoms: C_2  and  C_18
REMARK    4  A    between atoms: C_3  and  C_4
REMARK    5  A    between atoms: C_4  and  C_5
REMARK    6  A    between atoms: C_4  and  C_6
REMARK    7  A    between atoms: C_8  and  O_10
REMARK    8  A    between atoms: O_10  and  C_11
REMARK    9  A    between atoms: C_11  and  C_12
REMARK   10  A    between atoms: N_20  and  C_21
REMARK   11  A    between atoms: N_25  and  C_27
REMARK                            x       y       z     vdW  Elec       q    Type
REMARK                         _______ _______ _______ _____ _____    ______ ____
ROOT
ATOM      1  C   UNL     1       8.969  -1.051  24.813  0.00  0.00    +0.162 C 
ENDROOT
BRANCH   1   2
ATOM      2  C   UNL     1       8.961  -2.419  24.103  0.00  0.00    +0.234 C 
ATOM      3  N   UNL     1       7.699  -2.858  23.744  0.00  0.00    -0.309 N 
ATOM      4  H   UNL     1       6.903  -2.266  23.967  0.00  0.00    +0.149 HD
ATOM      5  O   UNL     1       9.972  -3.090  23.916  0.00  0.00    -0.274 OA
BRANCH   3   6
ATOM      6  C   UNL     1       7.518  -4.078  22.966  0.00  0.00    +0.092 C 
ATOM      7  C   UNL     1       7.108  -5.307  23.800  0.00  0.00    +0.138 C 
ATOM      8  N   UNL     1       5.614  -5.378  23.720  0.00  0.00    -0.268 N 
ATOM      9  C   UNL     1       5.143  -4.364  22.747  0.00  0.00    +0.118 C 
ATOM     10  C   UNL     1       6.380  -3.953  21.962  0.00  0.00    +0.043 C 
BRANCH   8  11
ATOM     11  C   UNL     1       4.898  -6.439  24.112  0.00  0.00    +0.169 C 
ATOM     12  N   UNL     1       4.299  -7.372  24.446  0.00  0.00    -0.174 NA
ENDBRANCH   8  11
ENDBRANCH   3   6
ENDBRANCH   1   2
BRANCH   1  13
ATOM     13  N   UNL     1       9.338  -0.033  23.838  0.00  0.00    -0.270 N 
ATOM     14  H   UNL     1       8.818   0.067  22.975  0.00  0.00    +0.153 HD
ATOM     15  C   UNL     1      10.457   0.728  23.984  0.00  0.00    +0.401 C 
ATOM     16  O   UNL     1      11.268   0.582  24.886  0.00  0.00    -0.226 OA
BRANCH  15  17
ATOM     17  O   UNL     1      10.488   1.684  23.030  0.00  0.00    -0.446 OA
BRANCH  17  18
ATOM     18  C   UNL     1      10.219   3.014  23.496  0.00  0.00    +0.269 C 
BRANCH  18  19
ATOM     19  C   UNL     1       8.784   3.419  23.280  0.00  0.00    -0.010 A 
ATOM     20  C   UNL     1       8.134   4.266  24.187  0.00  0.00    +0.007 A 
ATOM     21  C   UNL     1       6.784   4.582  24.019  0.00  0.00    +0.000 A 
ATOM     22  C   UNL     1       6.070   4.053  22.944  0.00  0.00    +0.000 A 
ATOM     23  C   UNL     1       6.704   3.208  22.037  0.00  0.00    +0.000 A 
ATOM     24  C   UNL     1       8.053   2.890  22.204  0.00  0.00    +0.007 A 
ENDBRANCH  18  19
ENDBRANCH  17  18
ENDBRANCH  15  17
ENDBRANCH   1  13
BRANCH   1  25
ATOM     25  C   UNL     1       7.624  -0.702  25.471  0.00  0.00    +0.035 C 
BRANCH  25  26
ATOM     26  C   UNL     1       7.129   0.737  25.206  0.00  0.00    -0.015 C 
ATOM     27  C   UNL     1       7.203   1.565  26.493  0.00  0.00    +0.007 C 
ATOM     28  C   UNL     1       5.704   0.779  24.653  0.00  0.00    +0.007 C 
ENDBRANCH  25  26
ENDBRANCH   1  25
TORSDOF 9
ENDMDL
MODEL 3
REMARK VINA RESULT:      -5.7      2.449      7.426
REMARK  Name = 
REMARK  11 active torsions:
REMARK  status: ('A' for Active; 'I' for Inactive)
REMARK    1  A    between atoms: C_2  and  C_3
REMARK    2  A    between atoms: C_2  and  N_7
REMARK    3  A    between atoms: C_2  and  C_18
REMARK    4  A    between atoms: C_3  and  C_4
REMARK    5  A    between atoms: C_4  and  C_5
REMARK    6  A    between atoms: C_4  and  C_6
REMARK    7  A    between atoms: C_8  and  O_10
REMARK    8  A    between atoms: O_10  and  C_11
REMARK    9  A    between atoms: C_11  and  C_12
REMARK   10  A    between atoms: N_20  and  C_21
REMARK   11  A    between atoms: N_25  and  C_27
REMARK                            x       y       z     vdW  Elec       q    Type
REMARK                         _______ _______ _______ _____ _____    ______ ____
ROOT
ATOM      1  C   UNL     1       8.940  -0.991  23.217  0.00  0.00    +0.162 C 
ENDROOT
BRANCH   1   2
ATOM      2  C   UNL     1       9.157  -2.481  23.547  0.00  0.00    +0.234 C 
ATOM      3  N   UNL     1       7.998  -3.236  23.521  0.00  0.00    -0.309 N 
ATOM      4  H   UNL     1       7.124  -2.768  23.293  0.00  0.00    +0.149 HD
ATOM      5  O   UNL     1      10.246  -2.953  23.859  0.00  0.00    -0.274 OA
BRANCH   3   6
ATOM      6  C   UNL     1       8.037  -4.683  23.700  0.00  0.00    +0.092 C 
ATOM      7  C   UNL     1       7.763  -5.150  25.143  0.00  0.00    +0.138 C 
ATOM      8  N   UNL     1       6.302  -5.472  25.201  0.00  0.00    -0.268 N 
ATOM      9  C   UNL     1       5.743  -5.384  23.831  0.00  0.00    +0.118 C 
ATOM     10  C   UNL     1       6.949  -5.388  22.902  0.00  0.00    +0.043 C 
BRANCH   8  11
ATOM     11  C   UNL     1       5.726  -6.136  26.211  0.00  0.00    +0.169 C 
ATOM     12  N   UNL     1       5.229  -6.731  27.071  0.00  0.00    -0.174 NA
ENDBRANCH   8  11
ENDBRANCH   3   6
ENDBRANCH   1   2
BRANCH   1  13
ATOM     13  N   UNL     1       8.498  -0.315  24.430  0.00  0.00    -0.270 N 
ATOM     14  H   UNL     1       9.160  -0.080  25.160  0.00  0.00    +0.153 HD
ATOM     15  C   UNL     1       7.181  -0.091  24.688  0.00  0.00    +0.401 C 
ATOM     16  O   UNL     1       6.269  -0.488  23.976  0.00  0.00    -0.226 OA
BRANCH  15  17
ATOM     17  O   UNL     1       7.054   0.675  25.793  0.00  0.00    -0.446 OA
BRANCH  17  18
ATOM     18  C   UNL     1       6.250   1.852  25.628  0.00  0.00    +0.269 C 
BRANCH  18  19
ATOM     19  C   UNL     1       6.984   2.950  24.903  0.00  0.00    -0.010 A 
ATOM     20  C   UNL     1       8.043   3.631  25.517  0.00  0.00    +0.007 A 
ATOM     21  C   UNL     1       8.674   4.694  24.868  0.00  0.00    +0.000 A 
ATOM     22  C   UNL     1       8.252   5.088  23.599  0.00  0.00    +0.000 A 
ATOM     23  C   UNL     1       7.198   4.422  22.979  0.00  0.00    +0.000 A 
ATOM     24  C   UNL     1       6.566   3.359  23.627  0.00  0.00    +0.007 A 
ENDBRANCH  18  19
ENDBRANCH  17  18
ENDBRANCH  15  17
ENDBRANCH   1  13
BRANCH   1  25
ATOM     25  C   UNL     1      10.193  -0.307  22.647  0.00  0.00    +0.035 C 
BRANCH  25  26
ATOM     26  C   UNL     1       9.917   0.987  21.851  0.00  0.00    -0.015 C 
ATOM     27  C   UNL     1      10.299   2.212  22.688  0.00  0.00    +0.007 C 
ATOM     28  C   UNL     1       8.458   1.108  21.407  0.00  0.00    +0.007 C 
ENDBRANCH  25  26
ENDBRANCH   1  25
TORSDOF 9
ENDMDL
MODEL 4
REMARK VINA RESULT:      -5.7      2.950      8.144
REMARK  Name = 
REMARK  11 active torsions:
REMARK  status: ('A' for Active; 'I' for Inactive)
REMARK    1  A    between atoms: C_2  and  C_3
REMARK    2  A    between atoms: C_2  and  N_7
REMARK    3  A    between atoms: C_2  and  C_18
REMARK    4  A    between atoms: C_3  and  C_4
REMARK    5  A    between atoms: C_4  and  C_5
REMARK    6  A    between atoms: C_4  and  C_6
REMARK    7  A    between atoms: C_8  and  O_10
REMARK    8  A    between atoms: O_10  and  C_11
REMARK    9  A    between atoms: C_11  and  C_12
REMARK   10  A    between atoms: N_20  and  C_21
REMARK   11  A    between atoms: N_25  and  C_27
REMARK                            x       y       z     vdW  Elec       q    Type
REMARK                         _______ _______ _______ _____ _____    ______ ____
ROOT
ATOM      1  C   UNL     1       9.218  -1.179  24.864  0.00  0.00    +0.162 C 
ENDROOT
BRANCH   1   2
ATOM      2  C   UNL     1       9.102  -2.529  24.130  0.00  0.00    +0.234 C 
ATOM      3  N   UNL     1       7.826  -2.813  23.677  0.00  0.00    -0.309 N 
ATOM      4  H   UNL     1       7.090  -2.134  23.855  0.00  0.00    +0.149 HD
ATOM      5  O   UNL     1      10.038  -3.312  24.001  0.00  0.00    -0.274 OA
BRANCH   3   6
ATOM      6  C   UNL     1       7.560  -3.995  22.865  0.00  0.00    +0.092 C 
ATOM      7  C   UNL     1       7.192  -5.252  23.678  0.00  0.00    +0.138 C 
ATOM      8  N   UNL     1       5.696  -5.295  23.714  0.00  0.00    -0.268 N 
ATOM      9  C   UNL     1       5.170  -4.233  22.825  0.00  0.00    +0.118 C 
ATOM     10  C   UNL     1       6.349  -3.808  21.961  0.00  0.00    +0.043 C 
BRANCH   8  11
ATOM     11  C   UNL     1       4.992  -6.360  24.118  0.00  0.00    +0.169 C 
ATOM     12  N   UNL     1       4.372  -7.281  24.445  0.00  0.00    -0.174 NA
ENDBRANCH   8  11
ENDBRANCH   3   6
ENDBRANCH   1   2
BRANCH   1  13
ATOM     13  N   UNL     1       9.401  -0.131  23.867  0.00  0.00    -0.270 N 
ATOM     14  H   UNL     1       8.757  -0.040  23.091  0.00  0.00    +0.153 HD
ATOM     15  C   UNL     1      10.499   0.672  23.863  0.00  0.00    +0.401 C 
ATOM     16  O   UNL     1      11.439   0.546  24.635  0.00  0.00    -0.226 OA
BRANCH  15  17
ATOM     17  O   UNL     1      10.353   1.643  22.936  0.00  0.00    -0.446 OA
BRANCH  17  18
ATOM     18  C   UNL     1       9.525   2.744  23.334  0.00  0.00    +0.269 C 
BRANCH  18  19
ATOM     19  C   UNL     1      10.328   3.975  23.669  0.00  0.00    -0.010 A 
ATOM     20  C   UNL     1       9.715   5.095  24.244  0.00  0.00    +0.007 A 
ATOM     21  C   UNL     1      10.450   6.258  24.489  0.00  0.00    +0.000 A 
ATOM     22  C   UNL     1      11.803   6.312  24.158  0.00  0.00    +0.000 A 
ATOM     23  C   UNL     1      12.423   5.206  23.582  0.00  0.00    +0.000 A 
ATOM     24  C   UNL     1      11.690   4.044  23.337  0.00  0.00    +0.007 A 
ENDBRANCH  18  19
ENDBRANCH  17  18
ENDBRANCH  15  17
ENDBRANCH   1  13
BRANCH   1  25
ATOM     25  C   UNL     1       8.005  -0.866  25.754  0.00  0.00    +0.035 C 
BRANCH  25  26
ATOM     26  C   UNL     1       7.162   0.344  25.296  0.00  0.00    -0.015 C 
ATOM     27  C   UNL     1       7.323   1.503  26.285  0.00  0.00    +0.007 C 
ATOM     28  C   UNL     1       5.678   0.006  25.143  0.00  0.00    +0.007 C 
ENDBRANCH  25  26
ENDBRANCH   1  25
TORSDOF 9
ENDMDL
MODEL 5
REMARK VINA RESULT:      -5.6      1.824      3.022
REMARK  Name = 
REMARK  11 active torsions:
REMARK  status: ('A' for Active; 'I' for Inactive)
REMARK    1  A    between atoms: C_2  and  C_3
REMARK    2  A    between atoms: C_2  and  N_7
REMARK    3  A    between atoms: C_2  and  C_18
REMARK    4  A    between atoms: C_3  and  C_4
REMARK    5  A    between atoms: C_4  and  C_5
REMARK    6  A    between atoms: C_4  and  C_6
REMARK    7  A    between atoms: C_8  and  O_10
REMARK    8  A    between atoms: O_10  and  C_11
REMARK    9  A    between atoms: C_11  and  C_12
REMARK   10  A    between atoms: N_20  and  C_21
REMARK   11  A    between atoms: N_25  and  C_27
REMARK                            x       y       z     vdW  Elec       q    Type
REMARK                         _______ _______ _______ _____ _____    ______ ____
ROOT
ATOM      1  C   UNL     1       8.381  -2.716  23.580  0.00  0.00    +0.162 C 
ENDROOT
BRANCH   1   2
ATOM      2  C   UNL     1       9.254  -1.638  22.909  0.00  0.00    +0.234 C 
ATOM      3  N   UNL     1       8.784  -0.348  23.082  0.00  0.00    -0.309 N 
ATOM      4  H   UNL     1       7.932  -0.215  23.620  0.00  0.00    +0.149 HD
ATOM      5  O   UNL     1      10.247  -1.894  22.234  0.00  0.00    -0.274 OA
BRANCH   3   6
ATOM      6  C   UNL     1       9.546   0.802  22.609  0.00  0.00    +0.092 C 
ATOM      7  C   UNL     1       8.705   1.854  21.861  0.00  0.00    +0.138 C 
ATOM      8  N   UNL     1       8.334   2.886  22.881  0.00  0.00    -0.268 N 
ATOM      9  C   UNL     1       9.053   2.585  24.141  0.00  0.00    +0.118 C 
ATOM     10  C   UNL     1      10.149   1.601  23.756  0.00  0.00    +0.043 C 
BRANCH   8  11
ATOM     11  C   UNL     1       7.810   4.079  22.576  0.00  0.00    +0.169 C 
ATOM     12  N   UNL     1       7.365   5.109  22.287  0.00  0.00    -0.174 NA
ENDBRANCH   8  11
ENDBRANCH   3   6
ENDBRANCH   1   2
BRANCH   1  13
ATOM     13  N   UNL     1       7.712  -3.478  22.533  0.00  0.00    -0.270 N 
ATOM     14  H   UNL     1       8.238  -4.102  21.933  0.00  0.00    +0.153 HD
ATOM     15  C   UNL     1       6.398  -3.290  22.237  0.00  0.00    +0.401 C 
ATOM     16  O   UNL     1       5.695  -2.438  22.762  0.00  0.00    -0.226 OA
BRANCH  15  17
ATOM     17  O   UNL     1       5.993  -4.215  21.339  0.00  0.00    -0.446 OA
BRANCH  17  18
ATOM     18  C   UNL     1       6.041  -5.572  21.802  0.00  0.00    +0.269 C 
BRANCH  18  19
ATOM     19  C   UNL     1       5.207  -5.786  23.039  0.00  0.00    -0.010 A 
ATOM     20  C   UNL     1       3.810  -5.710  22.983  0.00  0.00    +0.007 A 
ATOM     21  C   UNL     1       3.046  -5.840  24.145  0.00  0.00    +0.000 A 
ATOM     22  C   UNL     1       3.672  -6.046  25.374  0.00  0.00    +0.000 A 
ATOM     23  C   UNL     1       5.060  -6.120  25.443  0.00  0.00    +0.000 A 
ATOM     24  C   UNL     1       5.825  -5.989  24.283  0.00  0.00    +0.007 A 
ENDBRANCH  18  19
ENDBRANCH  17  18
ENDBRANCH  15  17
ENDBRANCH   1  13
BRANCH   1  25
ATOM     25  C   UNL     1       9.177  -3.654  24.502  0.00  0.00    +0.035 C 
BRANCH  25  26
ATOM     26  C   UNL     1       8.691  -3.685  25.968  0.00  0.00    -0.015 C 
ATOM     27  C   UNL     1       8.600  -5.132  26.463  0.00  0.00    +0.007 C 
ATOM     28  C   UNL     1       7.339  -2.995  26.156  0.00  0.00    +0.007 C 
ENDBRANCH  25  26
ENDBRANCH   1  25
TORSDOF 9
ENDMDL
MODEL 6
REMARK VINA RESULT:      -5.5      2.674      7.358
REMARK  Name = 
REMARK  11 active torsions:
REMARK  status: ('A' for Active; 'I' for Inactive)
REMARK    1  A    between atoms: C_2  and  C_3
REMARK    2  A    between atoms: C_2  and  N_7
REMARK    3  A    between atoms: C_2  and  C_18
REMARK    4  A    between atoms: C_3  and  C_4
REMARK    5  A    between atoms: C_4  and  C_5
REMARK    6  A    between atoms: C_4  and  C_6
REMARK    7  A    between atoms: C_8  and  O_10
REMARK    8  A    between atoms: O_10  and  C_11
REMARK    9  A    between atoms: C_11  and  C_12
REMARK   10  A    between atoms: N_20  and  C_21
REMARK   11  A    between atoms: N_25  and  C_27
REMARK                            x       y       z     vdW  Elec       q    Type
REMARK                         _______ _______ _______ _____ _____    ______ ____
ROOT
ATOM      1  C   UNL     1       8.305  -3.166  23.397  0.00  0.00    +0.162 C 
ENDROOT
BRANCH   1   2
ATOM      2  C   UNL     1       7.246  -4.177  22.915  0.00  0.00    +0.234 C 
ATOM      3  N   UNL     1       6.401  -4.624  23.916  0.00  0.00    -0.309 N 
ATOM      4  H   UNL     1       6.536  -4.263  24.857  0.00  0.00    +0.149 HD
ATOM      5  O   UNL     1       7.185  -4.596  21.763  0.00  0.00    -0.274 OA
BRANCH   3   6
ATOM      6  C   UNL     1       5.272  -5.497  23.615  0.00  0.00    +0.092 C 
ATOM      7  C   UNL     1       4.886  -6.449  24.764  0.00  0.00    +0.138 C 
ATOM      8  N   UNL     1       3.784  -5.765  25.513  0.00  0.00    -0.268 N 
ATOM      9  C   UNL     1       3.390  -4.548  24.765  0.00  0.00    +0.118 C 
ATOM     10  C   UNL     1       3.989  -4.714  23.376  0.00  0.00    +0.043 C 
BRANCH   8  11
ATOM     11  C   UNL     1       3.019  -6.371  26.428  0.00  0.00    +0.169 C 
ATOM     12  N   UNL     1       2.342  -6.875  27.221  0.00  0.00    -0.174 NA
ENDBRANCH   8  11
ENDBRANCH   3   6
ENDBRANCH   1   2
BRANCH   1  13
ATOM     13  N   UNL     1       8.359  -2.071  22.436  0.00  0.00    -0.270 N 
ATOM     14  H   UNL     1       7.524  -1.769  21.950  0.00  0.00    +0.153 HD
ATOM     15  C   UNL     1       9.538  -1.503  22.062  0.00  0.00    +0.401 C 
ATOM     16  O   UNL     1      10.634  -1.896  22.436  0.00  0.00    -0.226 OA
BRANCH  15  17
ATOM     17  O   UNL     1       9.301  -0.426  21.282  0.00  0.00    -0.446 OA
BRANCH  17  18
ATOM     18  C   UNL     1       9.839   0.810  21.774  0.00  0.00    +0.269 C 
BRANCH  18  19
ATOM     19  C   UNL     1       8.896   1.512  22.716  0.00  0.00    -0.010 A 
ATOM     20  C   UNL     1       7.532   1.619  22.416  0.00  0.00    +0.007 A 
ATOM     21  C   UNL     1       6.674   2.331  23.259  0.00  0.00    +0.000 A 
ATOM     22  C   UNL     1       7.173   2.944  24.408  0.00  0.00    +0.000 A 
ATOM     23  C   UNL     1       8.527   2.847  24.715  0.00  0.00    +0.000 A 
ATOM     24  C   UNL     1       9.385   2.137  23.874  0.00  0.00    +0.007 A 
ENDBRANCH  18  19
ENDBRANCH  17  18
ENDBRANCH  15  17
ENDBRANCH   1  13
BRANCH   1  25
ATOM     25  C   UNL     1       8.030  -2.627  24.810  0.00  0.00    +0.035 C 
BRANCH  25  26
ATOM     26  C   UNL     1       7.469  -1.188  24.855  0.00  0.00    -0.015 C 
ATOM     27  C   UNL     1       7.944  -0.477  26.126  0.00  0.00    +0.007 C 
ATOM     28  C   UNL     1       5.942  -1.147  24.788  0.00  0.00    +0.007 C 
ENDBRANCH  25  26
ENDBRANCH   1  25
TORSDOF 9
ENDMDL
MODEL 7
REMARK VINA RESULT:      -5.5      1.842      2.531
REMARK  Name = 
REMARK  11 active torsions:
REMARK  status: ('A' for Active; 'I' for Inactive)
REMARK    1  A    between atoms: C_2  and  C_3
REMARK    2  A    between atoms: C_2  and  N_7
REMARK    3  A    between atoms: C_2  and  C_18
REMARK    4  A    between atoms: C_3  and  C_4
REMARK    5  A    between atoms: C_4  and  C_5
REMARK    6  A    between atoms: C_4  and  C_6
REMARK    7  A    between atoms: C_8  and  O_10
REMARK    8  A    between atoms: O_10  and  C_11
REMARK    9  A    between atoms: C_11  and  C_12
REMARK   10  A    between atoms: N_20  and  C_21
REMARK   11  A    between atoms: N_25  and  C_27
REMARK                            x       y       z     vdW  Elec       q    Type
REMARK                         _______ _______ _______ _____ _____    ______ ____
ROOT
ATOM      1  C   UNL     1       8.353  -4.534  24.663  0.00  0.00    +0.162 C 
ENDROOT
BRANCH   1   2
ATOM      2  C   UNL     1       9.121  -3.219  24.428  0.00  0.00    +0.234 C 
ATOM      3  N   UNL     1       8.417  -2.085  24.794  0.00  0.00    -0.309 N 
ATOM      4  H   UNL     1       7.483  -2.202  25.178  0.00  0.00    +0.149 HD
ATOM      5  O   UNL     1      10.234  -3.167  23.913  0.00  0.00    -0.274 OA
BRANCH   3   6
ATOM      6  C   UNL     1       9.035  -0.765  24.745  0.00  0.00    +0.092 C 
ATOM      7  C   UNL     1       8.911  -0.059  23.381  0.00  0.00    +0.138 C 
ATOM      8  N   UNL     1       7.707   0.827  23.484  0.00  0.00    -0.268 N 
ATOM      9  C   UNL     1       7.225   0.807  24.885  0.00  0.00    +0.118 C 
ATOM     10  C   UNL     1       8.368   0.216  25.698  0.00  0.00    +0.043 C 
BRANCH   8  11
ATOM     11  C   UNL     1       7.407   1.781  22.595  0.00  0.00    +0.169 C 
ATOM     12  N   UNL     1       7.173   2.612  21.822  0.00  0.00    -0.174 NA
ENDBRANCH   8  11
ENDBRANCH   3   6
ENDBRANCH   1   2
BRANCH   1  13
ATOM     13  N   UNL     1       7.179  -4.238  25.474  0.00  0.00    -0.270 N 
ATOM     14  H   UNL     1       6.632  -3.402  25.305  0.00  0.00    +0.153 HD
ATOM     15  C   UNL     1       6.848  -4.990  26.559  0.00  0.00    +0.401 C 
ATOM     16  O   UNL     1       7.526  -5.916  26.980  0.00  0.00    -0.226 OA
BRANCH  15  17
ATOM     17  O   UNL     1       5.649  -4.596  27.041  0.00  0.00    -0.446 OA
BRANCH  17  18
ATOM     18  C   UNL     1       4.647  -5.622  27.088  0.00  0.00    +0.269 C 
BRANCH  18  19
ATOM     19  C   UNL     1       3.970  -5.826  25.757  0.00  0.00    -0.010 A 
ATOM     20  C   UNL     1       3.484  -4.734  25.027  0.00  0.00    +0.007 A 
ATOM     21  C   UNL     1       2.797  -4.934  23.827  0.00  0.00    +0.000 A 
ATOM     22  C   UNL     1       2.587  -6.226  23.348  0.00  0.00    +0.000 A 
ATOM     23  C   UNL     1       3.063  -7.319  24.066  0.00  0.00    +0.000 A 
ATOM     24  C   UNL     1       3.750  -7.122  25.266  0.00  0.00    +0.007 A 
ENDBRANCH  18  19
ENDBRANCH  17  18
ENDBRANCH  15  17
ENDBRANCH   1  13
BRANCH   1  25
ATOM     25  C   UNL     1       7.941  -5.236  23.359  0.00  0.00    +0.035 C 
BRANCH  25  26
ATOM     26  C   UNL     1       6.511  -4.912  22.874  0.00  0.00    -0.015 C 
ATOM     27  C   UNL     1       5.976  -6.055  22.004  0.00  0.00    +0.007 C 
ATOM     28  C   UNL     1       6.436  -3.599  22.093  0.00  0.00    +0.007 C 
ENDBRANCH  25  26
ENDBRANCH   1  25
TORSDOF 9
ENDMDL
MODEL 8
REMARK VINA RESULT:      -5.5      3.307      8.115
REMARK  Name = 
REMARK  11 active torsions:
REMARK  status: ('A' for Active; 'I' for Inactive)
REMARK    1  A    between atoms: C_2  and  C_3
REMARK    2  A    between atoms: C_2  and  N_7
REMARK    3  A    between atoms: C_2  and  C_18
REMARK    4  A    between atoms: C_3  and  C_4
REMARK    5  A    between atoms: C_4  and  C_5
REMARK    6  A    between atoms: C_4  and  C_6
REMARK    7  A    between atoms: C_8  and  O_10
REMARK    8  A    between atoms: O_10  and  C_11
REMARK    9  A    between atoms: C_11  and  C_12
REMARK   10  A    between atoms: N_20  and  C_21
REMARK   11  A    between atoms: N_25  and  C_27
REMARK                            x       y       z     vdW  Elec       q    Type
REMARK                         _______ _______ _______ _____ _____    ______ ____
ROOT
ATOM      1  C   UNL     1       6.240  -3.317  24.136  0.00  0.00    +0.162 C 
ENDROOT
BRANCH   1   2
ATOM      2  C   UNL     1       5.045  -3.973  23.416  0.00  0.00    +0.234 C 
ATOM      3  N   UNL     1       4.126  -4.556  24.271  0.00  0.00    -0.309 N 
ATOM      4  H   UNL     1       4.302  -4.507  25.272  0.00  0.00    +0.149 HD
ATOM      5  O   UNL     1       4.937  -4.027  22.195  0.00  0.00    -0.274 OA
BRANCH   3   6
ATOM      6  C   UNL     1       2.880  -5.123  23.767  0.00  0.00    +0.092 C 
ATOM      7  C   UNL     1       2.943  -6.636  23.485  0.00  0.00    +0.138 C 
ATOM      8  N   UNL     1       2.412  -7.306  24.714  0.00  0.00    -0.268 N 
ATOM      9  C   UNL     1       1.884  -6.266  25.629  0.00  0.00    +0.118 C 
ATOM     10  C   UNL     1       1.749  -5.011  24.779  0.00  0.00    +0.043 C 
BRANCH   8  11
ATOM     11  C   UNL     1       2.081  -8.602  24.771  0.00  0.00    +0.169 C 
ATOM     12  N   UNL     1       1.781  -9.718  24.843  0.00  0.00    -0.174 NA
ENDBRANCH   8  11
ENDBRANCH   3   6
ENDBRANCH   1   2
BRANCH   1  13
ATOM     13  N   UNL     1       7.115  -2.733  23.128  0.00  0.00    -0.270 N 
ATOM     14  H   UNL     1       6.729  -2.210  22.351  0.00  0.00    +0.153 HD
ATOM     15  C   UNL     1       8.455  -2.969  23.116  0.00  0.00    +0.401 C 
ATOM     16  O   UNL     1       9.020  -3.729  23.890  0.00  0.00    -0.226 OA
BRANCH  15  17
ATOM     17  O   UNL     1       9.048  -2.199  22.178  0.00  0.00    -0.446 OA
BRANCH  17  18
ATOM     18  C   UNL     1      10.312  -1.640  22.562  0.00  0.00    +0.269 C 
BRANCH  18  19
ATOM     19  C   UNL     1      10.242  -0.149  22.764  0.00  0.00    -0.010 A 
ATOM     20  C   UNL     1      10.682   0.433  23.960  0.00  0.00    +0.007 A 
ATOM     21  C   UNL     1      10.551   1.808  24.170  0.00  0.00    +0.000 A 
ATOM     22  C   UNL     1       9.977   2.614  23.186  0.00  0.00    +0.000 A 
ATOM     23  C   UNL     1       9.534   2.047  21.995  0.00  0.00    +0.000 A 
ATOM     24  C   UNL     1       9.663   0.673  21.784  0.00  0.00    +0.007 A 
ENDBRANCH  18  19
ENDBRANCH  17  18
ENDBRANCH  15  17
ENDBRANCH   1  13
BRANCH   1  25
ATOM     25  C   UNL     1       5.819  -2.254  25.164  0.00  0.00    +0.035 C 
BRANCH  25  26
ATOM     26  C   UNL     1       6.552  -2.342  26.521  0.00  0.00    -0.015 C 
ATOM     27  C   UNL     1       7.800  -1.453  26.505  0.00  0.00    +0.007 C 
ATOM     28  C   UNL     1       6.950  -3.773  26.886  0.00  0.00    +0.007 C 
ENDBRANCH  25  26
ENDBRANCH   1  25
TORSDOF 9
ENDMDL
MODEL 9
REMARK VINA RESULT:      -5.4      2.821      7.578
REMARK  Name = 
REMARK  11 active torsions:
REMARK  status: ('A' for Active; 'I' for Inactive)
REMARK    1  A    between atoms: C_2  and  C_3
REMARK    2  A    between atoms: C_2  and  N_7
REMARK    3  A    between atoms: C_2  and  C_18
REMARK    4  A    between atoms: C_3  and  C_4
REMARK    5  A    between atoms: C_4  and  C_5
REMARK    6  A    between atoms: C_4  and  C_6
REMARK    7  A    between atoms: C_8  and  O_10
REMARK    8  A    between atoms: O_10  and  C_11
REMARK    9  A    between atoms: C_11  and  C_12
REMARK   10  A    between atoms: N_20  and  C_21
REMARK   11  A    between atoms: N_25  and  C_27
REMARK                            x       y       z     vdW  Elec       q    Type
REMARK                         _______ _______ _______ _____ _____    ______ ____
ROOT
ATOM      1  C   UNL     1       7.166  -4.764  24.150  0.00  0.00    +0.162 C 
ENDROOT
BRANCH   1   2
ATOM      2  C   UNL     1       7.168  -5.232  25.619  0.00  0.00    +0.234 C 
ATOM      3  N   UNL     1       5.987  -4.975  26.291  0.00  0.00    -0.309 N 
ATOM      4  H   UNL     1       5.234  -4.517  25.783  0.00  0.00    +0.149 HD
ATOM      5  O   UNL     1       8.144  -5.737  26.167  0.00  0.00    -0.274 OA
BRANCH   3   6
ATOM      6  C   UNL     1       5.775  -5.451  27.654  0.00  0.00    +0.092 C 
ATOM      7  C   UNL     1       4.936  -4.503  28.532  0.00  0.00    +0.138 C 
ATOM      8  N   UNL     1       3.527  -5.003  28.447  0.00  0.00    -0.268 N 
ATOM      9  C   UNL     1       3.525  -6.288  27.710  0.00  0.00    +0.118 C 
ATOM     10  C   UNL     1       4.977  -6.746  27.691  0.00  0.00    +0.043 C 
BRANCH   8  11
ATOM     11  C   UNL     1       2.543  -4.595  29.258  0.00  0.00    +0.169 C 
ATOM     12  N   UNL     1       1.699  -4.217  29.956  0.00  0.00    -0.174 NA
ENDBRANCH   8  11
ENDBRANCH   3   6
ENDBRANCH   1   2
BRANCH   1  13
ATOM     13  N   UNL     1       8.317  -3.893  23.948  0.00  0.00    -0.270 N 
ATOM     14  H   UNL     1       9.108  -3.927  24.579  0.00  0.00    +0.153 HD
ATOM     15  C   UNL     1       8.323  -2.921  22.995  0.00  0.00    +0.401 C 
ATOM     16  O   UNL     1       7.362  -2.654  22.287  0.00  0.00    -0.226 OA
BRANCH  15  17
ATOM     17  O   UNL     1       9.550  -2.361  22.918  0.00  0.00    -0.446 OA
BRANCH  17  18
ATOM     18  C   UNL     1       9.689  -1.339  21.922  0.00  0.00    +0.269 C 
BRANCH  18  19
ATOM     19  C   UNL     1      10.043  -0.001  22.519  0.00  0.00    -0.010 A 
ATOM     20  C   UNL     1      10.530   0.093  23.829  0.00  0.00    +0.007 A 
ATOM     21  C   UNL     1      10.790   1.341  24.400  0.00  0.00    +0.000 A 
ATOM     22  C   UNL     1      10.564   2.506  23.669  0.00  0.00    +0.000 A 
ATOM     23  C   UNL     1      10.077   2.426  22.367  0.00  0.00    +0.000 A 
ATOM     24  C   UNL     1       9.816   1.181  21.794  0.00  0.00    +0.007 A 
ENDBRANCH  18  19
ENDBRANCH  17  18
ENDBRANCH  15  17
ENDBRANCH   1  13
BRANCH   1  25
ATOM     25  C   UNL     1       7.188  -5.925  23.144  0.00  0.00    +0.035 C 
BRANCH  25  26
ATOM     26  C   UNL     1       5.897  -6.082  22.311  0.00  0.00    -0.015 C 
ATOM     27  C   UNL     1       6.175  -5.753  20.840  0.00  0.00    +0.007 C 
ATOM     28  C   UNL     1       4.753  -5.205  22.822  0.00  0.00    +0.007 C 
ENDBRANCH  25  26
ENDBRANCH   1  25
TORSDOF 9
ENDMDL
