MODEL 1
REMARK VINA RESULT:      -5.2      0.000      0.000
REMARK  Name = 
REMARK  4 active torsions:
REMARK  status: ('A' for Active; 'I' for Inactive)
REMARK    1  A    between atoms: C_1  and  C_2
REMARK    2  A    between atoms: C_2  and  O_4
REMARK    3  A    between atoms: C_2  and  C_5
REMARK    4  A    between atoms: C_5  and  N_6
REMARK                            x       y       z     vdW  Elec       q    Type
REMARK                         _______ _______ _______ _____ _____    ______ ____
ROOT
ATOM      1  N   UNL     1       9.345  -2.012  23.272  0.00  0.00    -0.312 N 
ATOM      2  C   UNL     1       9.819  -0.779  23.628  0.00  0.00    +0.165 A 
ATOM      3  N   UNL     1      10.299  -0.394  24.822  0.00  0.00    -0.216 NA
ATOM      4  C   UNL     1      10.661   0.906  24.794  0.00  0.00    +0.225 A 
ATOM      5  N   UNL     1      10.584   1.778  23.765  0.00  0.00    -0.219 NA
ATOM      6  C   UNL     1      10.074   1.341  22.590  0.00  0.00    +0.147 A 
ATOM      7  N   UNL     1       9.984   2.244  21.538  0.00  0.00    -0.341 N 
ATOM      8  H   UNL     1       9.940   1.794  20.630  0.00  0.00    +0.144 HD
ATOM      9  H   UNL     1      10.624   3.019  21.649  0.00  0.00    +0.144 HD
ATOM     10  C   UNL     1       9.679  -0.003  22.490  0.00  0.00    +0.147 A 
ATOM     11  N   UNL     1       9.163  -0.750  21.447  0.00  0.00    -0.231 NA
ATOM     12  C   UNL     1       8.980  -1.951  21.954  0.00  0.00    +0.201 A 
ENDROOT
BRANCH   1  13
ATOM     13  C   UNL     1       9.260  -3.174  24.123  0.00  0.00    +0.155 C 
BRANCH  13  15
ATOM     14  C   UNL     1       7.540  -4.556  25.402  0.00  0.00    +0.039 C 
ATOM     15  C   UNL     1       8.083  -3.162  25.106  0.00  0.00    +0.131 C 
BRANCH  15  16
ATOM     16  O   UNL     1       8.540  -2.588  26.335  0.00  0.00    -0.390 OA
ATOM     17  H   UNL     1       8.614  -3.312  26.982  0.00  0.00    +0.210 HD
ENDBRANCH  15  16
ENDBRANCH  13  15
ENDBRANCH   1  13
TORSDOF 3
ENDMDL
MODEL 2
REMARK VINA RESULT:      -5.1      5.271      6.847
REMARK  Name = 
REMARK  4 active torsions:
REMARK  status: ('A' for Active; 'I' for Inactive)
REMARK    1  A    between atoms: C_1  and  C_2
REMARK    2  A    between atoms: C_2  and  O_4
REMARK    3  A    between atoms: C_2  and  C_5
REMARK    4  A    between atoms: C_5  and  N_6
REMARK                            x       y       z     vdW  Elec       q    Type
REMARK                         _______ _______ _______ _____ _____    ______ ____
ROOT
ATOM      1  N   UNL     1       5.574  -5.707  26.209  0.00  0.00    -0.312 N 
ATOM      2  C   UNL     1       6.594  -5.473  25.328  0.00  0.00    +0.165 A 
ATOM      3  N   UNL     1       6.512  -5.303  23.998  0.00  0.00    -0.216 NA
ATOM      4  C   UNL     1       7.736  -5.106  23.466  0.00  0.00    +0.225 A 
ATOM      5  N   UNL     1       8.931  -5.074  24.095  0.00  0.00    -0.219 NA
ATOM      6  C   UNL     1       8.957  -5.269  25.433  0.00  0.00    +0.147 A 
ATOM      7  N   UNL     1      10.189  -5.248  26.076  0.00  0.00    -0.341 N 
ATOM      8  H   UNL     1      10.118  -5.047  27.067  0.00  0.00    +0.144 HD
ATOM      9  H   UNL     1      10.885  -4.746  25.541  0.00  0.00    +0.144 HD
ATOM     10  C   UNL     1       7.740  -5.467  26.106  0.00  0.00    +0.147 A 
ATOM     11  N   UNL     1       7.429  -5.658  27.439  0.00  0.00    -0.231 NA
ATOM     12  C   UNL     1       6.119  -5.793  27.461  0.00  0.00    +0.201 A 
ENDROOT
BRANCH   1  13
ATOM     13  C   UNL     1       4.172  -5.823  25.883  0.00  0.00    +0.155 C 
BRANCH  13  15
ATOM     14  C   UNL     1       2.201  -7.403  25.533  0.00  0.00    +0.039 C 
ATOM     15  C   UNL     1       3.717  -7.242  25.519  0.00  0.00    +0.131 C 
BRANCH  15  16
ATOM     16  O   UNL     1       4.187  -7.531  24.198  0.00  0.00    -0.390 OA
ATOM     17  H   UNL     1       4.467  -8.464  24.189  0.00  0.00    +0.210 HD
ENDBRANCH  15  16
ENDBRANCH  13  15
ENDBRANCH   1  13
TORSDOF 3
ENDMDL
MODEL 3
REMARK VINA RESULT:      -5.1      2.622      4.868
REMARK  Name = 
REMARK  4 active torsions:
REMARK  status: ('A' for Active; 'I' for Inactive)
REMARK    1  A    between atoms: C_1  and  C_2
REMARK    2  A    between atoms: C_2  and  O_4
REMARK    3  A    between atoms: C_2  and  C_5
REMARK    4  A    between atoms: C_5  and  N_6
REMARK                            x       y       z     vdW  Elec       q    Type
REMARK                         _______ _______ _______ _____ _____    ______ ____
ROOT
ATOM      1  N   UNL     1       9.704  -0.596  23.506  0.00  0.00    -0.312 N 
ATOM      2  C   UNL     1       9.175  -1.312  24.545  0.00  0.00    +0.165 A 
ATOM      3  N   UNL     1       8.486  -0.848  25.600  0.00  0.00    -0.216 NA
ATOM      4  C   UNL     1       8.137  -1.858  26.424  0.00  0.00    +0.225 A 
ATOM      5  N   UNL     1       8.402  -3.177  26.297  0.00  0.00    -0.219 NA
ATOM      6  C   UNL     1       9.116  -3.587  25.223  0.00  0.00    +0.147 A 
ATOM      7  N   UNL     1       9.398  -4.942  25.101  0.00  0.00    -0.341 N 
ATOM      8  H   UNL     1       9.606  -5.221  24.149  0.00  0.00    +0.144 HD
ATOM      9  H   UNL     1       8.750  -5.512  25.629  0.00  0.00    +0.144 HD
ATOM     10  C   UNL     1       9.521  -2.627  24.281  0.00  0.00    +0.147 A 
ATOM     11  N   UNL     1      10.217  -2.722  23.090  0.00  0.00    -0.231 NA
ATOM     12  C   UNL     1      10.303  -1.483  22.653  0.00  0.00    +0.201 A 
ENDROOT
BRANCH   1  13
ATOM     13  C   UNL     1       9.630   0.835  23.329  0.00  0.00    +0.155 C 
BRANCH  13  15
ATOM     14  C   UNL     1       8.067   1.806  21.564  0.00  0.00    +0.039 C 
ATOM     15  C   UNL     1       9.467   1.291  21.874  0.00  0.00    +0.131 C 
BRANCH  15  16
ATOM     16  O   UNL     1      10.399   2.352  21.637  0.00  0.00    -0.390 OA
ATOM     17  H   UNL     1      10.627   2.329  20.690  0.00  0.00    +0.210 HD
ENDBRANCH  15  16
ENDBRANCH  13  15
ENDBRANCH   1  13
TORSDOF 3
ENDMDL
MODEL 4
REMARK VINA RESULT:      -5.0      2.822      5.209
REMARK  Name = 
REMARK  4 active torsions:
REMARK  status: ('A' for Active; 'I' for Inactive)
REMARK    1  A    between atoms: C_1  and  C_2
REMARK    2  A    between atoms: C_2  and  O_4
REMARK    3  A    between atoms: C_2  and  C_5
REMARK    4  A    between atoms: C_5  and  N_6
REMARK                            x       y       z     vdW  Elec       q    Type
REMARK                         _______ _______ _______ _____ _____    ______ ____
ROOT
ATOM      1  N   UNL     1       8.232  -2.000  23.421  0.00  0.00    -0.312 N 
ATOM      2  C   UNL     1       7.889  -3.095  24.165  0.00  0.00    +0.165 A 
ATOM      3  N   UNL     1       6.659  -3.490  24.532  0.00  0.00    -0.216 NA
ATOM      4  C   UNL     1       6.720  -4.615  25.275  0.00  0.00    +0.225 A 
ATOM      5  N   UNL     1       7.813  -5.314  25.655  0.00  0.00    -0.219 NA
ATOM      6  C   UNL     1       9.029  -4.860  25.272  0.00  0.00    +0.147 A 
ATOM      7  N   UNL     1      10.152  -5.573  25.674  0.00  0.00    -0.341 N 
ATOM      8  H   UNL     1      10.961  -5.404  25.088  0.00  0.00    +0.144 HD
ATOM      9  H   UNL     1       9.928  -6.532  25.905  0.00  0.00    +0.144 HD
ATOM     10  C   UNL     1       9.094  -3.704  24.477  0.00  0.00    +0.147 A 
ATOM     11  N   UNL     1      10.151  -3.019  23.908  0.00  0.00    -0.231 NA
ATOM     12  C   UNL     1       9.593  -2.005  23.280  0.00  0.00    +0.201 A 
ENDROOT
BRANCH   1  13
ATOM     13  C   UNL     1       7.324  -1.024  22.868  0.00  0.00    +0.155 C 
BRANCH  13  15
ATOM     14  C   UNL     1       6.583   1.385  23.258  0.00  0.00    +0.039 C 
ATOM     15  C   UNL     1       6.805   0.009  23.876  0.00  0.00    +0.131 C 
BRANCH  15  16
ATOM     16  O   UNL     1       5.552  -0.462  24.384  0.00  0.00    -0.390 OA
ATOM     17  H   UNL     1       5.696  -0.721  25.312  0.00  0.00    +0.210 HD
ENDBRANCH  15  16
ENDBRANCH  13  15
ENDBRANCH   1  13
TORSDOF 3
ENDMDL
MODEL 5
REMARK VINA RESULT:      -5.0      2.317      2.700
REMARK  Name = 
REMARK  4 active torsions:
REMARK  status: ('A' for Active; 'I' for Inactive)
REMARK    1  A    between atoms: C_1  and  C_2
REMARK    2  A    between atoms: C_2  and  O_4
REMARK    3  A    between atoms: C_2  and  C_5
REMARK    4  A    between atoms: C_5  and  N_6
REMARK                            x       y       z     vdW  Elec       q    Type
REMARK                         _______ _______ _______ _____ _____    ______ ____
ROOT
ATOM      1  N   UNL     1       8.616  -1.840  22.972  0.00  0.00    -0.312 N 
ATOM      2  C   UNL     1       8.186  -0.560  22.751  0.00  0.00    +0.165 A 
ATOM      3  N   UNL     1       6.934  -0.084  22.851  0.00  0.00    -0.216 NA
ATOM      4  C   UNL     1       6.897   1.230  22.544  0.00  0.00    +0.225 A 
ATOM      5  N   UNL     1       7.917   2.035  22.172  0.00  0.00    -0.219 NA
ATOM      6  C   UNL     1       9.154   1.498  22.070  0.00  0.00    +0.147 A 
ATOM      7  N   UNL     1      10.198   2.325  21.675  0.00  0.00    -0.341 N 
ATOM      8  H   UNL     1      11.109   1.978  21.954  0.00  0.00    +0.144 HD
ATOM      9  H   UNL     1       9.993   3.301  21.847  0.00  0.00    +0.144 HD
ATOM     10  C   UNL     1       9.323   0.139  22.384  0.00  0.00    +0.147 A 
ATOM     11  N   UNL     1      10.434  -0.683  22.410  0.00  0.00    -0.231 NA
ATOM     12  C   UNL     1       9.971  -1.861  22.772  0.00  0.00    +0.201 A 
ENDROOT
BRANCH   1  13
ATOM     13  C   UNL     1       7.798  -2.963  23.362  0.00  0.00    +0.155 C 
BRANCH  13  15
ATOM     14  C   UNL     1       6.785  -5.110  22.433  0.00  0.00    +0.039 C 
ATOM     15  C   UNL     1       7.027  -3.622  22.211  0.00  0.00    +0.131 C 
BRANCH  15  16
ATOM     16  O   UNL     1       5.757  -2.971  22.102  0.00  0.00    -0.390 OA
ATOM     17  H   UNL     1       5.187  -3.332  22.804  0.00  0.00    +0.210 HD
ENDBRANCH  15  16
ENDBRANCH  13  15
ENDBRANCH   1  13
TORSDOF 3
ENDMDL
MODEL 6
REMARK VINA RESULT:      -4.9      1.743      2.339
REMARK  Name = 
REMARK  4 active torsions:
REMARK  status: ('A' for Active; 'I' for Inactive)
REMARK    1  A    between atoms: C_1  and  C_2
REMARK    2  A    between atoms: C_2  and  O_4
REMARK    3  A    between atoms: C_2  and  C_5
REMARK    4  A    between atoms: C_5  and  N_6
REMARK                            x       y       z     vdW  Elec       q    Type
REMARK                         _______ _______ _______ _____ _____    ______ ____
ROOT
ATOM      1  N   UNL     1       7.925  -3.294  24.441  0.00  0.00    -0.312 N 
ATOM      2  C   UNL     1       8.698  -2.182  24.246  0.00  0.00    +0.165 A 
ATOM      3  N   UNL     1       9.319  -1.436  25.175  0.00  0.00    -0.216 NA
ATOM      4  C   UNL     1       9.979  -0.410  24.601  0.00  0.00    +0.225 A 
ATOM      5  N   UNL     1      10.058  -0.089  23.290  0.00  0.00    -0.219 NA
ATOM      6  C   UNL     1       9.398  -0.865  22.399  0.00  0.00    +0.147 A 
ATOM      7  N   UNL     1       9.471  -0.526  21.054  0.00  0.00    -0.341 N 
ATOM      8  H   UNL     1       9.273  -1.304  20.436  0.00  0.00    +0.144 HD
ATOM      9  H   UNL     1      10.283   0.043  20.851  0.00  0.00    +0.144 HD
ATOM     10  C   UNL     1       8.688  -1.979  22.876  0.00  0.00    +0.147 A 
ATOM     11  N   UNL     1       7.955  -2.962  22.240  0.00  0.00    -0.231 NA
ATOM     12  C   UNL     1       7.516  -3.735  23.212  0.00  0.00    +0.201 A 
ENDROOT
BRANCH   1  13
ATOM     13  C   UNL     1       7.610  -3.905  25.710  0.00  0.00    +0.155 C 
BRANCH  13  15
ATOM     14  C   UNL     1       9.795  -5.218  25.744  0.00  0.00    +0.039 C 
ATOM     15  C   UNL     1       8.285  -5.260  25.952  0.00  0.00    +0.131 C 
BRANCH  15  16
ATOM     16  O   UNL     1       8.029  -5.645  27.307  0.00  0.00    -0.390 OA
ATOM     17  H   UNL     1       8.107  -6.615  27.351  0.00  0.00    +0.210 HD
ENDBRANCH  15  16
ENDBRANCH  13  15
ENDBRANCH   1  13
TORSDOF 3
ENDMDL
MODEL 7
REMARK VINA RESULT:      -4.9      2.121      3.288
REMARK  Name = 
REMARK  4 active torsions:
REMARK  status: ('A' for Active; 'I' for Inactive)
REMARK    1  A    between atoms: C_1  and  C_2
REMARK    2  A    between atoms: C_2  and  O_4
REMARK    3  A    between atoms: C_2  and  C_5
REMARK    4  A    between atoms: C_5  and  N_6
REMARK                            x       y       z     vdW  Elec       q    Type
REMARK                         _______ _______ _______ _____ _____    ______ ____
ROOT
ATOM      1  N   UNL     1       8.577  -3.593  24.723  0.00  0.00    -0.312 N 
ATOM      2  C   UNL     1       9.242  -2.597  24.062  0.00  0.00    +0.165 A 
ATOM      3  N   UNL     1       9.771  -2.638  22.828  0.00  0.00    -0.216 NA
ATOM      4  C   UNL     1      10.360  -1.463  22.522  0.00  0.00    +0.225 A 
ATOM      5  N   UNL     1      10.462  -0.351  23.283  0.00  0.00    -0.219 NA
ATOM      6  C   UNL     1       9.927  -0.371  24.525  0.00  0.00    +0.147 A 
ATOM      7  N   UNL     1      10.044   0.769  25.310  0.00  0.00    -0.341 N 
ATOM      8  H   UNL     1       9.348   0.820  26.045  0.00  0.00    +0.144 HD
ATOM      9  H   UNL     1      10.201   1.598  24.751  0.00  0.00    +0.144 HD
ATOM     10  C   UNL     1       9.268  -1.536  24.952  0.00  0.00    +0.147 A 
ATOM     11  N   UNL     1       8.604  -1.860  26.121  0.00  0.00    -0.231 NA
ATOM     12  C   UNL     1       8.201  -3.100  25.944  0.00  0.00    +0.201 A 
ENDROOT
BRANCH   1  13
ATOM     13  C   UNL     1       8.304  -4.919  24.223  0.00  0.00    +0.155 C 
BRANCH  13  15
ATOM     14  C   UNL     1       7.230  -5.897  22.127  0.00  0.00    +0.039 C 
ATOM     15  C   UNL     1       7.037  -5.030  23.366  0.00  0.00    +0.131 C 
BRANCH  15  16
ATOM     16  O   UNL     1       6.010  -5.619  24.170  0.00  0.00    -0.390 OA
ATOM     17  H   UNL     1       5.643  -4.913  24.731  0.00  0.00    +0.210 HD
ENDBRANCH  15  16
ENDBRANCH  13  15
ENDBRANCH   1  13
TORSDOF 3
ENDMDL
MODEL 8
REMARK VINA RESULT:      -4.9      2.935      5.404
REMARK  Name = 
REMARK  4 active torsions:
REMARK  status: ('A' for Active; 'I' for Inactive)
REMARK    1  A    between atoms: C_1  and  C_2
REMARK    2  A    between atoms: C_2  and  O_4
REMARK    3  A    between atoms: C_2  and  C_5
REMARK    4  A    between atoms: C_5  and  N_6
REMARK                            x       y       z     vdW  Elec       q    Type
REMARK                         _______ _______ _______ _____ _____    ______ ____
ROOT
ATOM      1  N   UNL     1       8.299  -2.824  24.304  0.00  0.00    -0.312 N 
ATOM      2  C   UNL     1       7.325  -3.159  23.404  0.00  0.00    +0.165 A 
ATOM      3  N   UNL     1       6.406  -2.354  22.846  0.00  0.00    -0.216 NA
ATOM      4  C   UNL     1       5.605  -3.049  22.012  0.00  0.00    +0.225 A 
ATOM      5  N   UNL     1       5.638  -4.368  21.720  0.00  0.00    -0.219 NA
ATOM      6  C   UNL     1       6.573  -5.136  22.325  0.00  0.00    +0.147 A 
ATOM      7  N   UNL     1       6.597  -6.494  22.033  0.00  0.00    -0.341 N 
ATOM      8  H   UNL     1       7.494  -6.926  22.220  0.00  0.00    +0.144 HD
ATOM      9  H   UNL     1       6.151  -6.698  21.147  0.00  0.00    +0.144 HD
ATOM     10  C   UNL     1       7.481  -4.520  23.203  0.00  0.00    +0.147 A 
ATOM     11  N   UNL     1       8.547  -5.006  23.936  0.00  0.00    -0.231 NA
ATOM     12  C   UNL     1       9.015  -3.958  24.581  0.00  0.00    +0.201 A 
ENDROOT
BRANCH   1  13
ATOM     13  C   UNL     1       8.543  -1.511  24.852  0.00  0.00    +0.155 C 
BRANCH  13  15
ATOM     14  C   UNL     1      10.043  -0.424  23.101  0.00  0.00    +0.039 C 
ATOM     15  C   UNL     1       9.926  -0.933  24.533  0.00  0.00    +0.131 C 
BRANCH  15  16
ATOM     16  O   UNL     1      10.161   0.166  25.421  0.00  0.00    -0.390 OA
ATOM     17  H   UNL     1      10.557  -0.198  26.232  0.00  0.00    +0.210 HD
ENDBRANCH  15  16
ENDBRANCH  13  15
ENDBRANCH   1  13
TORSDOF 3
ENDMDL
MODEL 9
REMARK VINA RESULT:      -4.9      1.904      2.245
REMARK  Name = 
REMARK  4 active torsions:
REMARK  status: ('A' for Active; 'I' for Inactive)
REMARK    1  A    between atoms: C_1  and  C_2
REMARK    2  A    between atoms: C_2  and  O_4
REMARK    3  A    between atoms: C_2  and  C_5
REMARK    4  A    between atoms: C_5  and  N_6
REMARK                            x       y       z     vdW  Elec       q    Type
REMARK                         _______ _______ _______ _____ _____    ______ ____
ROOT
ATOM      1  N   UNL     1       8.843  -2.070  23.540  0.00  0.00    -0.312 N 
ATOM      2  C   UNL     1       8.253  -0.877  23.224  0.00  0.00    +0.165 A 
ATOM      3  N   UNL     1       6.987  -0.495  23.460  0.00  0.00    -0.216 NA
ATOM      4  C   UNL     1       6.769   0.751  22.992  0.00  0.00    +0.225 A 
ATOM      5  N   UNL     1       7.632   1.574  22.356  0.00  0.00    -0.219 NA
ATOM      6  C   UNL     1       8.890   1.131  22.128  0.00  0.00    +0.147 A 
ATOM      7  N   UNL     1       9.772   1.974  21.463  0.00  0.00    -0.341 N 
ATOM      8  H   UNL     1      10.745   1.748  21.635  0.00  0.00    +0.144 HD
ATOM      9  H   UNL     1       9.494   2.944  21.534  0.00  0.00    +0.144 HD
ATOM     10  C   UNL     1       9.245  -0.148  22.588  0.00  0.00    +0.147 A 
ATOM     11  N   UNL     1      10.427  -0.863  22.543  0.00  0.00    -0.231 NA
ATOM     12  C   UNL     1      10.147  -2.009  23.128  0.00  0.00    +0.201 A 
ENDROOT
BRANCH   1  13
ATOM     13  C   UNL     1       8.214  -3.187  24.203  0.00  0.00    +0.155 C 
BRANCH  13  15
ATOM     14  C   UNL     1       8.783  -4.278  26.435  0.00  0.00    +0.039 C 
ATOM     15  C   UNL     1       9.177  -4.097  24.974  0.00  0.00    +0.131 C 
BRANCH  15  16
ATOM     16  O   UNL     1       9.168  -5.383  24.344  0.00  0.00    -0.390 OA
ATOM     17  H   UNL     1      10.006  -5.823  24.575  0.00  0.00    +0.210 HD
ENDBRANCH  15  16
ENDBRANCH  13  15
ENDBRANCH   1  13
TORSDOF 3
ENDMDL
