MODEL 1
REMARK VINA RESULT:      -5.6      0.000      0.000
REMARK  Name = 
REMARK  20 active torsions:
REMARK  status: ('A' for Active; 'I' for Inactive)
REMARK    1  A    between atoms: C_1  and  C_2
REMARK    2  A    between atoms: C_2  and  C_3
REMARK    3  A    between atoms: C_3  and  C_4
REMARK    4  A    between atoms: C_4  and  C_5
REMARK    5  A    between atoms: C_5  and  C_6
REMARK    6  A    between atoms: C_6  and  C_7
REMARK    7  A    between atoms: C_7  and  C_8
REMARK    8  A    between atoms: C_8  and  C_9
REMARK    9  A    between atoms: C_9  and  C_10
REMARK   10  A    between atoms: C_10  and  C_12
REMARK   11  A    between atoms: C_12  and  N_13
REMARK   12  A    between atoms: C_14  and  C_15
REMARK   13  A    between atoms: C_16  and  C_17
REMARK   14  A    between atoms: C_17  and  O_18
REMARK   15  A    between atoms: O_18  and  P_19
REMARK   16  A    between atoms: P_19  and  O_20
REMARK   17  A    between atoms: P_19  and  O_21
REMARK   18  A    between atoms: P_19  and  O_22
REMARK   19  A    between atoms: C_25  and  C_26
REMARK   20  A    between atoms: C_27  and  O_28
REMARK                            x       y       z     vdW  Elec       q    Type
REMARK                         _______ _______ _______ _____ _____    ______ ____
ROOT
ATOM      1  C   UNL     1       6.394  -4.722  25.536  0.00  0.00    +0.043 A 
ATOM      2  C   UNL     1       6.369  -5.551  26.669  0.00  0.00    +0.147 A 
ATOM      3  C   UNL     1       5.178  -6.200  27.001  0.00  0.00    +0.080 A 
ATOM      4  C   UNL     1       5.065  -7.076  28.213  0.00  0.00    +0.069 C 
ATOM      5  N   UNL     1       4.057  -6.083  26.251  0.00  0.00    -0.256 NA
ATOM      6  C   UNL     1       4.126  -5.317  25.138  0.00  0.00    +0.117 A 
ATOM      7  C   UNL     1       5.258  -4.620  24.716  0.00  0.00    +0.009 A 
ENDROOT
BRANCH   2   8
ATOM      8  O   UNL     1       7.514  -5.759  27.390  0.00  0.00    -0.504 OA
ATOM      9  H   UNL     1       7.845  -6.659  27.254  0.00  0.00    +0.292 HD
ENDBRANCH   2   8
BRANCH   1  11
ATOM     10  N   UNL     1       8.622  -4.368  24.613  0.00  0.00    -0.283 NA
ATOM     11  C   UNL     1       7.594  -3.903  25.235  0.00  0.00    +0.117 C 
BRANCH  10  12
ATOM     12  C   UNL     1       9.772  -3.470  24.478  0.00  0.00    +0.215 C 
BRANCH  12  13
ATOM     13  C   UNL     1       9.432  -2.182  23.744  0.00  0.00    +0.154 C 
ATOM     14  O   UNL     1       8.933  -2.192  22.614  0.00  0.00    -0.295 OA
BRANCH  13  15
ATOM     15  C   UNL     1       9.690  -0.886  24.489  0.00  0.00    +0.076 C 
BRANCH  15  16
ATOM     16  C   UNL     1      10.635   0.012  23.699  0.00  0.00    +0.008 C 
BRANCH  16  17
ATOM     17  C   UNL     1      10.052   1.401  23.466  0.00  0.00    +0.000 C 
BRANCH  17  18
ATOM     18  C   UNL     1       9.751   1.601  21.980  0.00  0.00    +0.000 C 
BRANCH  18  19
ATOM     19  C   UNL     1       8.317   2.071  21.761  0.00  0.00    +0.000 C 
BRANCH  19  20
ATOM     20  C   UNL     1       7.318   1.069  22.336  0.00  0.00    -0.000 C 
BRANCH  20  21
ATOM     21  C   UNL     1       6.345   1.754  23.293  0.00  0.00    -0.000 C 
BRANCH  21  23
ATOM     22  C   UNL     1       6.060  -0.392  24.575  0.00  0.00    +0.004 C 
ATOM     23  C   UNL     1       6.363   1.097  24.671  0.00  0.00    -0.003 C 
ENDBRANCH  21  23
ENDBRANCH  20  21
ENDBRANCH  19  20
ENDBRANCH  18  19
ENDBRANCH  17  18
ENDBRANCH  16  17
ENDBRANCH  15  16
ENDBRANCH  13  15
ENDBRANCH  12  13
ENDBRANCH  10  12
ENDBRANCH   1  11
BRANCH   7  24
ATOM     24  C   UNL     1       5.176  -3.854  23.426  0.00  0.00    +0.208 C 
BRANCH  24  25
ATOM     25  O   UNL     1       4.880  -4.736  22.352  0.00  0.00    -0.293 OA
BRANCH  25  26
ATOM     26  P   UNL     1       6.117  -5.449  21.673  0.00  0.00    +0.376 P 
BRANCH  26  27
ATOM     27  O   UNL     1       7.462  -4.659  21.888  0.00  0.00    -0.314 OA
ATOM     28  H   UNL     1       8.060  -4.590  21.121  0.00  0.00    +0.221 HD
ENDBRANCH  26  27
BRANCH  26  29
ATOM     29  O   UNL     1       6.316  -6.930  22.172  0.00  0.00    -0.314 OA
ATOM     30  H   UNL     1       7.098  -7.132  22.716  0.00  0.00    +0.221 HD
ENDBRANCH  26  29
BRANCH  26  31
ATOM     31  O   UNL     1       5.900  -5.505  20.108  0.00  0.00    -0.314 OA
ATOM     32  H   UNL     1       6.430  -4.856  19.610  0.00  0.00    +0.221 HD
ENDBRANCH  26  31
ENDBRANCH  25  26
ENDBRANCH  24  25
ENDBRANCH   7  24
TORSDOF 18
ENDMDL
MODEL 2
REMARK VINA RESULT:      -5.5      2.645      4.134
REMARK  Name = 
REMARK  20 active torsions:
REMARK  status: ('A' for Active; 'I' for Inactive)
REMARK    1  A    between atoms: C_1  and  C_2
REMARK    2  A    between atoms: C_2  and  C_3
REMARK    3  A    between atoms: C_3  and  C_4
REMARK    4  A    between atoms: C_4  and  C_5
REMARK    5  A    between atoms: C_5  and  C_6
REMARK    6  A    between atoms: C_6  and  C_7
REMARK    7  A    between atoms: C_7  and  C_8
REMARK    8  A    between atoms: C_8  and  C_9
REMARK    9  A    between atoms: C_9  and  C_10
REMARK   10  A    between atoms: C_10  and  C_12
REMARK   11  A    between atoms: C_12  and  N_13
REMARK   12  A    between atoms: C_14  and  C_15
REMARK   13  A    between atoms: C_16  and  C_17
REMARK   14  A    between atoms: C_17  and  O_18
REMARK   15  A    between atoms: O_18  and  P_19
REMARK   16  A    between atoms: P_19  and  O_20
REMARK   17  A    between atoms: P_19  and  O_21
REMARK   18  A    between atoms: P_19  and  O_22
REMARK   19  A    between atoms: C_25  and  C_26
REMARK   20  A    between atoms: C_27  and  O_28
REMARK                            x       y       z     vdW  Elec       q    Type
REMARK                         _______ _______ _______ _____ _____    ______ ____
ROOT
ATOM      1  C   UNL     1       5.407  -3.521  24.031  0.00  0.00    +0.043 A 
ATOM      2  C   UNL     1       4.039  -3.817  24.132  0.00  0.00    +0.147 A 
ATOM      3  C   UNL     1       3.533  -4.906  23.421  0.00  0.00    +0.080 A 
ATOM      4  C   UNL     1       2.077  -5.266  23.453  0.00  0.00    +0.069 C 
ATOM      5  N   UNL     1       4.321  -5.707  22.665  0.00  0.00    -0.256 NA
ATOM      6  C   UNL     1       5.644  -5.426  22.627  0.00  0.00    +0.117 A 
ATOM      7  C   UNL     1       6.254  -4.362  23.290  0.00  0.00    +0.009 A 
ENDROOT
BRANCH   2   8
ATOM      8  O   UNL     1       3.238  -3.080  24.963  0.00  0.00    -0.504 OA
ATOM      9  H   UNL     1       3.135  -2.178  24.629  0.00  0.00    +0.292 HD
ENDBRANCH   2   8
BRANCH   1  11
ATOM     10  N   UNL     1       6.007  -2.111  25.927  0.00  0.00    -0.283 NA
ATOM     11  C   UNL     1       5.954  -2.289  24.652  0.00  0.00    +0.117 C 
BRANCH  10  12
ATOM     12  C   UNL     1       6.478  -0.802  26.389  0.00  0.00    +0.215 C 
BRANCH  12  13
ATOM     13  C   UNL     1       5.733   0.356  25.742  0.00  0.00    +0.154 C 
ATOM     14  O   UNL     1       4.501   0.429  25.768  0.00  0.00    -0.295 OA
BRANCH  13  15
ATOM     15  C   UNL     1       6.583   1.440  25.107  0.00  0.00    +0.076 C 
BRANCH  15  16
ATOM     16  C   UNL     1       6.776   1.172  23.618  0.00  0.00    +0.008 C 
BRANCH  16  17
ATOM     17  C   UNL     1       7.513   2.307  22.918  0.00  0.00    +0.000 C 
BRANCH  17  18
ATOM     18  C   UNL     1       8.071   1.824  21.580  0.00  0.00    +0.000 C 
BRANCH  18  19
ATOM     19  C   UNL     1       9.513   1.345  21.718  0.00  0.00    +0.000 C 
BRANCH  19  20
ATOM     20  C   UNL     1       9.603  -0.171  21.556  0.00  0.00    -0.000 C 
BRANCH  20  21
ATOM     21  C   UNL     1      10.114  -0.829  22.837  0.00  0.00    -0.000 C 
BRANCH  21  23
ATOM     22  C   UNL     1      10.002   0.029  25.199  0.00  0.00    +0.004 C 
ATOM     23  C   UNL     1      10.635   0.210  23.826  0.00  0.00    -0.003 C 
ENDBRANCH  21  23
ENDBRANCH  20  21
ENDBRANCH  19  20
ENDBRANCH  18  19
ENDBRANCH  17  18
ENDBRANCH  16  17
ENDBRANCH  15  16
ENDBRANCH  13  15
ENDBRANCH  12  13
ENDBRANCH  10  12
ENDBRANCH   1  11
BRANCH   7  24
ATOM     24  C   UNL     1       7.747  -4.223  23.180  0.00  0.00    +0.208 C 
BRANCH  24  25
ATOM     25  O   UNL     1       8.388  -5.312  23.829  0.00  0.00    -0.293 OA
BRANCH  25  26
ATOM     26  P   UNL     1       9.065  -4.996  25.222  0.00  0.00    +0.376 P 
BRANCH  26  27
ATOM     27  O   UNL     1      10.591  -5.383  25.253  0.00  0.00    -0.314 OA
ATOM     28  H   UNL     1      11.184  -4.796  25.758  0.00  0.00    +0.221 HD
ENDBRANCH  26  27
BRANCH  26  29
ATOM     29  O   UNL     1       8.919  -3.483  25.640  0.00  0.00    -0.314 OA
ATOM     30  H   UNL     1       8.542  -3.281  26.516  0.00  0.00    +0.221 HD
ENDBRANCH  26  29
BRANCH  26  31
ATOM     31  O   UNL     1       8.381  -5.864  26.352  0.00  0.00    -0.314 OA
ATOM     32  H   UNL     1       8.453  -6.826  26.213  0.00  0.00    +0.221 HD
ENDBRANCH  26  31
ENDBRANCH  25  26
ENDBRANCH  24  25
ENDBRANCH   7  24
TORSDOF 18
ENDMDL
MODEL 3
REMARK VINA RESULT:      -5.5      2.687      3.698
REMARK  Name = 
REMARK  20 active torsions:
REMARK  status: ('A' for Active; 'I' for Inactive)
REMARK    1  A    between atoms: C_1  and  C_2
REMARK    2  A    between atoms: C_2  and  C_3
REMARK    3  A    between atoms: C_3  and  C_4
REMARK    4  A    between atoms: C_4  and  C_5
REMARK    5  A    between atoms: C_5  and  C_6
REMARK    6  A    between atoms: C_6  and  C_7
REMARK    7  A    between atoms: C_7  and  C_8
REMARK    8  A    between atoms: C_8  and  C_9
REMARK    9  A    between atoms: C_9  and  C_10
REMARK   10  A    between atoms: C_10  and  C_12
REMARK   11  A    between atoms: C_12  and  N_13
REMARK   12  A    between atoms: C_14  and  C_15
REMARK   13  A    between atoms: C_16  and  C_17
REMARK   14  A    between atoms: C_17  and  O_18
REMARK   15  A    between atoms: O_18  and  P_19
REMARK   16  A    between atoms: P_19  and  O_20
REMARK   17  A    between atoms: P_19  and  O_21
REMARK   18  A    between atoms: P_19  and  O_22
REMARK   19  A    between atoms: C_25  and  C_26
REMARK   20  A    between atoms: C_27  and  O_28
REMARK                            x       y       z     vdW  Elec       q    Type
REMARK                         _______ _______ _______ _____ _____    ______ ____
ROOT
ATOM      1  C   UNL     1       5.166  -3.585  24.031  0.00  0.00    +0.043 A 
ATOM      2  C   UNL     1       3.795  -3.805  24.237  0.00  0.00    +0.147 A 
ATOM      3  C   UNL     1       3.177  -4.864  23.570  0.00  0.00    +0.080 A 
ATOM      4  C   UNL     1       1.710  -5.143  23.713  0.00  0.00    +0.069 C 
ATOM      5  N   UNL     1       3.860  -5.705  22.757  0.00  0.00    -0.256 NA
ATOM      6  C   UNL     1       5.189  -5.497  22.618  0.00  0.00    +0.117 A 
ATOM      7  C   UNL     1       5.906  -4.470  23.230  0.00  0.00    +0.009 A 
ENDROOT
BRANCH   2   8
ATOM      8  O   UNL     1       3.102  -3.027  25.125  0.00  0.00    -0.504 OA
ATOM      9  H   UNL     1       3.270  -3.313  26.035  0.00  0.00    +0.292 HD
ENDBRANCH   2   8
BRANCH   1  11
ATOM     10  N   UNL     1       6.034  -2.237  25.868  0.00  0.00    -0.283 NA
ATOM     11  C   UNL     1       5.825  -2.385  24.605  0.00  0.00    +0.117 C 
BRANCH  10  12
ATOM     12  C   UNL     1       6.602  -0.956  26.295  0.00  0.00    +0.215 C 
BRANCH  12  13
ATOM     13  C   UNL     1       8.115  -0.900  26.140  0.00  0.00    +0.154 C 
ATOM     14  O   UNL     1       8.848  -1.764  26.630  0.00  0.00    -0.295 OA
BRANCH  13  15
ATOM     15  C   UNL     1       8.672   0.243  25.312  0.00  0.00    +0.076 C 
BRANCH  15  16
ATOM     16  C   UNL     1       9.680  -0.272  24.291  0.00  0.00    +0.008 C 
BRANCH  16  17
ATOM     17  C   UNL     1       9.015  -0.711  22.993  0.00  0.00    +0.000 C 
BRANCH  17  18
ATOM     18  C   UNL     1       9.715  -0.062  21.799  0.00  0.00    +0.000 C 
BRANCH  18  19
ATOM     19  C   UNL     1       9.666   1.460  21.884  0.00  0.00    +0.000 C 
BRANCH  19  20
ATOM     20  C   UNL     1       8.234   1.971  21.740  0.00  0.00    -0.000 C 
BRANCH  20  21
ATOM     21  C   UNL     1       8.043   3.285  22.495  0.00  0.00    -0.000 C 
BRANCH  21  23
ATOM     22  C   UNL     1       8.590   3.878  24.878  0.00  0.00    +0.004 C 
ATOM     23  C   UNL     1       9.157   3.508  23.514  0.00  0.00    -0.003 C 
ENDBRANCH  21  23
ENDBRANCH  20  21
ENDBRANCH  19  20
ENDBRANCH  18  19
ENDBRANCH  17  18
ENDBRANCH  16  17
ENDBRANCH  15  16
ENDBRANCH  13  15
ENDBRANCH  12  13
ENDBRANCH  10  12
ENDBRANCH   1  11
BRANCH   7  24
ATOM     24  C   UNL     1       7.391  -4.413  23.006  0.00  0.00    +0.208 C 
BRANCH  24  25
ATOM     25  O   UNL     1       8.036  -5.439  23.746  0.00  0.00    -0.293 OA
BRANCH  25  26
ATOM     26  P   UNL     1       8.983  -4.965  24.919  0.00  0.00    +0.376 P 
BRANCH  26  27
ATOM     27  O   UNL     1       9.890  -6.128  25.472  0.00  0.00    -0.314 OA
ATOM     28  H   UNL     1       9.967  -6.927  24.919  0.00  0.00    +0.221 HD
ENDBRANCH  26  27
BRANCH  26  29
ATOM     29  O   UNL     1       9.909  -3.757  24.505  0.00  0.00    -0.314 OA
ATOM     30  H   UNL     1      10.775  -3.670  24.942  0.00  0.00    +0.221 HD
ENDBRANCH  26  29
BRANCH  26  31
ATOM     31  O   UNL     1       8.107  -4.487  26.145  0.00  0.00    -0.314 OA
ATOM     32  H   UNL     1       7.230  -4.144  25.897  0.00  0.00    +0.221 HD
ENDBRANCH  26  31
ENDBRANCH  25  26
ENDBRANCH  24  25
ENDBRANCH   7  24
TORSDOF 18
ENDMDL
MODEL 4
REMARK VINA RESULT:      -5.5      1.772      2.634
REMARK  Name = 
REMARK  20 active torsions:
REMARK  status: ('A' for Active; 'I' for Inactive)
REMARK    1  A    between atoms: C_1  and  C_2
REMARK    2  A    between atoms: C_2  and  C_3
REMARK    3  A    between atoms: C_3  and  C_4
REMARK    4  A    between atoms: C_4  and  C_5
REMARK    5  A    between atoms: C_5  and  C_6
REMARK    6  A    between atoms: C_6  and  C_7
REMARK    7  A    between atoms: C_7  and  C_8
REMARK    8  A    between atoms: C_8  and  C_9
REMARK    9  A    between atoms: C_9  and  C_10
REMARK   10  A    between atoms: C_10  and  C_12
REMARK   11  A    between atoms: C_12  and  N_13
REMARK   12  A    between atoms: C_14  and  C_15
REMARK   13  A    between atoms: C_16  and  C_17
REMARK   14  A    between atoms: C_17  and  O_18
REMARK   15  A    between atoms: O_18  and  P_19
REMARK   16  A    between atoms: P_19  and  O_20
REMARK   17  A    between atoms: P_19  and  O_21
REMARK   18  A    between atoms: P_19  and  O_22
REMARK   19  A    between atoms: C_25  and  C_26
REMARK   20  A    between atoms: C_27  and  O_28
REMARK                            x       y       z     vdW  Elec       q    Type
REMARK                         _______ _______ _______ _____ _____    ______ ____
ROOT
ATOM      1  C   UNL     1       5.720  -4.979  26.514  0.00  0.00    +0.043 A 
ATOM      2  C   UNL     1       6.388  -5.574  27.596  0.00  0.00    +0.147 A 
ATOM      3  C   UNL     1       5.635  -6.048  28.671  0.00  0.00    +0.080 A 
ATOM      4  C   UNL     1       6.278  -6.667  29.877  0.00  0.00    +0.069 C 
ATOM      5  N   UNL     1       4.282  -5.984  28.693  0.00  0.00    -0.256 NA
ATOM      6  C   UNL     1       3.665  -5.450  27.614  0.00  0.00    +0.117 A 
ATOM      7  C   UNL     1       4.316  -4.941  26.492  0.00  0.00    +0.009 A 
ENDROOT
BRANCH   2   8
ATOM      8  O   UNL     1       7.747  -5.736  27.556  0.00  0.00    -0.504 OA
ATOM      9  H   UNL     1       8.068  -5.709  26.643  0.00  0.00    +0.292 HD
ENDBRANCH   2   8
BRANCH   1  11
ATOM     10  N   UNL     1       7.085  -5.000  24.495  0.00  0.00    -0.283 NA
ATOM     11  C   UNL     1       6.491  -4.333  25.423  0.00  0.00    +0.117 C 
BRANCH  10  12
ATOM     12  C   UNL     1       7.892  -4.230  23.544  0.00  0.00    +0.215 C 
BRANCH  12  13
ATOM     13  C   UNL     1       9.170  -3.683  24.162  0.00  0.00    +0.154 C 
ATOM     14  O   UNL     1       9.953  -4.411  24.781  0.00  0.00    -0.295 OA
BRANCH  13  15
ATOM     15  C   UNL     1       9.459  -2.211  23.938  0.00  0.00    +0.076 C 
BRANCH  15  16
ATOM     16  C   UNL     1       8.791  -1.360  25.013  0.00  0.00    +0.008 C 
BRANCH  16  17
ATOM     17  C   UNL     1       9.614  -0.127  25.366  0.00  0.00    +0.000 C 
BRANCH  17  18
ATOM     18  C   UNL     1      10.531   0.244  24.200  0.00  0.00    +0.000 C 
BRANCH  18  19
ATOM     19  C   UNL     1      10.616   1.755  24.017  0.00  0.00    +0.000 C 
BRANCH  19  20
ATOM     20  C   UNL     1      10.388   2.143  22.557  0.00  0.00    -0.000 C 
BRANCH  20  21
ATOM     21  C   UNL     1       9.593   1.066  21.822  0.00  0.00    -0.000 C 
BRANCH  21  23
ATOM     22  C   UNL     1       7.194   1.176  22.571  0.00  0.00    +0.004 C 
ATOM     23  C   UNL     1       8.186   1.549  21.479  0.00  0.00    -0.003 C 
ENDBRANCH  21  23
ENDBRANCH  20  21
ENDBRANCH  19  20
ENDBRANCH  18  19
ENDBRANCH  17  18
ENDBRANCH  16  17
ENDBRANCH  15  16
ENDBRANCH  13  15
ENDBRANCH  12  13
ENDBRANCH  10  12
ENDBRANCH   1  11
BRANCH   7  24
ATOM     24  C   UNL     1       3.473  -4.427  25.357  0.00  0.00    +0.208 C 
BRANCH  24  25
ATOM     25  O   UNL     1       2.852  -5.511  24.681  0.00  0.00    -0.293 OA
BRANCH  25  26
ATOM     26  P   UNL     1       3.598  -6.051  23.396  0.00  0.00    +0.376 P 
BRANCH  26  27
ATOM     27  O   UNL     1       4.700  -7.122  23.743  0.00  0.00    -0.314 OA
ATOM     28  H   UNL     1       5.135  -7.566  22.992  0.00  0.00    +0.221 HD
ENDBRANCH  26  27
BRANCH  26  29
ATOM     29  O   UNL     1       2.612  -6.668  22.332  0.00  0.00    -0.314 OA
ATOM     30  H   UNL     1       2.608  -7.635  22.215  0.00  0.00    +0.221 HD
ENDBRANCH  26  29
BRANCH  26  31
ATOM     31  O   UNL     1       4.366  -4.862  22.691  0.00  0.00    -0.314 OA
ATOM     32  H   UNL     1       4.737  -5.090  21.819  0.00  0.00    +0.221 HD
ENDBRANCH  26  31
ENDBRANCH  25  26
ENDBRANCH  24  25
ENDBRANCH   7  24
TORSDOF 18
ENDMDL
MODEL 5
REMARK VINA RESULT:      -5.5      1.649      2.527
REMARK  Name = 
REMARK  20 active torsions:
REMARK  status: ('A' for Active; 'I' for Inactive)
REMARK    1  A    between atoms: C_1  and  C_2
REMARK    2  A    between atoms: C_2  and  C_3
REMARK    3  A    between atoms: C_3  and  C_4
REMARK    4  A    between atoms: C_4  and  C_5
REMARK    5  A    between atoms: C_5  and  C_6
REMARK    6  A    between atoms: C_6  and  C_7
REMARK    7  A    between atoms: C_7  and  C_8
REMARK    8  A    between atoms: C_8  and  C_9
REMARK    9  A    between atoms: C_9  and  C_10
REMARK   10  A    between atoms: C_10  and  C_12
REMARK   11  A    between atoms: C_12  and  N_13
REMARK   12  A    between atoms: C_14  and  C_15
REMARK   13  A    between atoms: C_16  and  C_17
REMARK   14  A    between atoms: C_17  and  O_18
REMARK   15  A    between atoms: O_18  and  P_19
REMARK   16  A    between atoms: P_19  and  O_20
REMARK   17  A    between atoms: P_19  and  O_21
REMARK   18  A    between atoms: P_19  and  O_22
REMARK   19  A    between atoms: C_25  and  C_26
REMARK   20  A    between atoms: C_27  and  O_28
REMARK                            x       y       z     vdW  Elec       q    Type
REMARK                         _______ _______ _______ _____ _____    ______ ____
ROOT
ATOM      1  C   UNL     1       6.525  -4.402  25.404  0.00  0.00    +0.043 A 
ATOM      2  C   UNL     1       6.590  -5.173  26.575  0.00  0.00    +0.147 A 
ATOM      3  C   UNL     1       5.474  -5.923  26.949  0.00  0.00    +0.080 A 
ATOM      4  C   UNL     1       5.456  -6.746  28.203  0.00  0.00    +0.069 C 
ATOM      5  N   UNL     1       4.342  -5.958  26.205  0.00  0.00    -0.256 NA
ATOM      6  C   UNL     1       4.328  -5.244  25.057  0.00  0.00    +0.117 A 
ATOM      7  C   UNL     1       5.380  -4.456  24.591  0.00  0.00    +0.009 A 
ENDROOT
BRANCH   2   8
ATOM      8  O   UNL     1       7.754  -5.229  27.294  0.00  0.00    -0.504 OA
ATOM      9  H   UNL     1       8.337  -5.921  26.949  0.00  0.00    +0.292 HD
ENDBRANCH   2   8
BRANCH   1  11
ATOM     10  N   UNL     1       8.664  -3.851  24.373  0.00  0.00    -0.283 NA
ATOM     11  C   UNL     1       7.633  -3.480  25.052  0.00  0.00    +0.117 C 
BRANCH  10  12
ATOM     12  C   UNL     1       9.724  -2.856  24.191  0.00  0.00    +0.215 C 
BRANCH  12  13
ATOM     13  C   UNL     1       9.463  -1.923  23.019  0.00  0.00    +0.154 C 
ATOM     14  O   UNL     1       8.673  -2.219  22.118  0.00  0.00    -0.295 OA
BRANCH  13  15
ATOM     15  C   UNL     1      10.186  -0.588  23.038  0.00  0.00    +0.076 C 
BRANCH  15  16
ATOM     16  C   UNL     1       9.825   0.239  21.809  0.00  0.00    +0.008 C 
BRANCH  16  17
ATOM     17  C   UNL     1       9.885   1.736  22.083  0.00  0.00    +0.000 C 
BRANCH  17  18
ATOM     18  C   UNL     1      10.380   1.990  23.507  0.00  0.00    +0.000 C 
BRANCH  18  19
ATOM     19  C   UNL     1       9.361   2.784  24.318  0.00  0.00    +0.000 C 
BRANCH  19  20
ATOM     20  C   UNL     1       8.790   3.939  23.499  0.00  0.00    -0.000 C 
BRANCH  20  21
ATOM     21  C   UNL     1       8.909   5.260  24.257  0.00  0.00    -0.000 C 
BRANCH  21  23
ATOM     22  C   UNL     1      11.328   5.670  23.701  0.00  0.00    +0.004 C 
ATOM     23  C   UNL     1       9.906   6.200  23.584  0.00  0.00    -0.003 C 
ENDBRANCH  21  23
ENDBRANCH  20  21
ENDBRANCH  19  20
ENDBRANCH  18  19
ENDBRANCH  17  18
ENDBRANCH  16  17
ENDBRANCH  15  16
ENDBRANCH  13  15
ENDBRANCH  12  13
ENDBRANCH  10  12
ENDBRANCH   1  11
BRANCH   7  24
ATOM     24  C   UNL     1       5.214  -3.766  23.266  0.00  0.00    +0.208 C 
BRANCH  24  25
ATOM     25  O   UNL     1       4.887  -4.713  22.259  0.00  0.00    -0.293 OA
BRANCH  25  26
ATOM     26  P   UNL     1       6.103  -5.464  21.585  0.00  0.00    +0.376 P 
BRANCH  26  27
ATOM     27  O   UNL     1       5.935  -5.608  20.026  0.00  0.00    -0.314 OA
ATOM     28  H   UNL     1       6.590  -6.159  19.561  0.00  0.00    +0.221 HD
ENDBRANCH  26  27
BRANCH  26  29
ATOM     29  O   UNL     1       7.488  -4.771  21.881  0.00  0.00    -0.314 OA
ATOM     30  H   UNL     1       8.214  -4.902  21.246  0.00  0.00    +0.221 HD
ENDBRANCH  26  29
BRANCH  26  31
ATOM     31  O   UNL     1       6.188  -6.941  22.143  0.00  0.00    -0.314 OA
ATOM     32  H   UNL     1       7.043  -7.162  22.553  0.00  0.00    +0.221 HD
ENDBRANCH  26  31
ENDBRANCH  25  26
ENDBRANCH  24  25
ENDBRANCH   7  24
TORSDOF 18
ENDMDL
MODEL 6
REMARK VINA RESULT:      -5.5      2.702      3.832
REMARK  Name = 
REMARK  20 active torsions:
REMARK  status: ('A' for Active; 'I' for Inactive)
REMARK    1  A    between atoms: C_1  and  C_2
REMARK    2  A    between atoms: C_2  and  C_3
REMARK    3  A    between atoms: C_3  and  C_4
REMARK    4  A    between atoms: C_4  and  C_5
REMARK    5  A    between atoms: C_5  and  C_6
REMARK    6  A    between atoms: C_6  and  C_7
REMARK    7  A    between atoms: C_7  and  C_8
REMARK    8  A    between atoms: C_8  and  C_9
REMARK    9  A    between atoms: C_9  and  C_10
REMARK   10  A    between atoms: C_10  and  C_12
REMARK   11  A    between atoms: C_12  and  N_13
REMARK   12  A    between atoms: C_14  and  C_15
REMARK   13  A    between atoms: C_16  and  C_17
REMARK   14  A    between atoms: C_17  and  O_18
REMARK   15  A    between atoms: O_18  and  P_19
REMARK   16  A    between atoms: P_19  and  O_20
REMARK   17  A    between atoms: P_19  and  O_21
REMARK   18  A    between atoms: P_19  and  O_22
REMARK   19  A    between atoms: C_25  and  C_26
REMARK   20  A    between atoms: C_27  and  O_28
REMARK                            x       y       z     vdW  Elec       q    Type
REMARK                         _______ _______ _______ _____ _____    ______ ____
ROOT
ATOM      1  C   UNL     1       5.378  -3.565  24.091  0.00  0.00    +0.043 A 
ATOM      2  C   UNL     1       4.012  -3.881  24.162  0.00  0.00    +0.147 A 
ATOM      3  C   UNL     1       3.517  -4.909  23.359  0.00  0.00    +0.080 A 
ATOM      4  C   UNL     1       2.065  -5.284  23.357  0.00  0.00    +0.069 C 
ATOM      5  N   UNL     1       4.314  -5.635  22.539  0.00  0.00    -0.256 NA
ATOM      6  C   UNL     1       5.634  -5.340  22.528  0.00  0.00    +0.117 A 
ATOM      7  C   UNL     1       6.234  -4.331  23.282  0.00  0.00    +0.009 A 
ENDROOT
BRANCH   2   8
ATOM      8  O   UNL     1       3.204  -3.226  25.052  0.00  0.00    -0.504 OA
ATOM      9  H   UNL     1       2.459  -3.785  25.315  0.00  0.00    +0.292 HD
ENDBRANCH   2   8
BRANCH   1  11
ATOM     10  N   UNL     1       6.296  -2.434  26.045  0.00  0.00    -0.283 NA
ATOM     11  C   UNL     1       5.913  -2.386  24.816  0.00  0.00    +0.117 C 
BRANCH  10  12
ATOM     12  C   UNL     1       6.704  -1.167  26.657  0.00  0.00    +0.215 C 
BRANCH  12  13
ATOM     13  C   UNL     1       7.749  -0.425  25.838  0.00  0.00    +0.154 C 
ATOM     14  O   UNL     1       8.921  -0.808  25.782  0.00  0.00    -0.295 OA
BRANCH  13  15
ATOM     15  C   UNL     1       7.267   0.781  25.053  0.00  0.00    +0.076 C 
BRANCH  15  16
ATOM     16  C   UNL     1       8.039   2.032  25.457  0.00  0.00    +0.008 C 
BRANCH  16  17
ATOM     17  C   UNL     1       8.618   2.766  24.254  0.00  0.00    +0.000 C 
BRANCH  17  18
ATOM     18  C   UNL     1      10.042   2.283  23.980  0.00  0.00    +0.000 C 
BRANCH  18  19
ATOM     19  C   UNL     1      10.290   2.100  22.486  0.00  0.00    +0.000 C 
BRANCH  19  20
ATOM     20  C   UNL     1       9.037   1.583  21.783  0.00  0.00    -0.000 C 
BRANCH  20  21
ATOM     21  C   UNL     1       9.265   0.182  21.217  0.00  0.00    -0.000 C 
BRANCH  21  23
ATOM     22  C   UNL     1      10.333  -1.600  22.635  0.00  0.00    +0.004 C 
ATOM     23  C   UNL     1       9.035  -0.891  22.278  0.00  0.00    -0.003 C 
ENDBRANCH  21  23
ENDBRANCH  20  21
ENDBRANCH  19  20
ENDBRANCH  18  19
ENDBRANCH  17  18
ENDBRANCH  16  17
ENDBRANCH  15  16
ENDBRANCH  13  15
ENDBRANCH  12  13
ENDBRANCH  10  12
ENDBRANCH   1  11
BRANCH   7  24
ATOM     24  C   UNL     1       7.726  -4.170  23.187  0.00  0.00    +0.208 C 
BRANCH  24  25
ATOM     25  O   UNL     1       8.376  -5.280  23.790  0.00  0.00    -0.293 OA
BRANCH  25  26
ATOM     26  P   UNL     1       8.762  -5.120  25.314  0.00  0.00    +0.376 P 
BRANCH  26  27
ATOM     27  O   UNL     1       9.117  -3.633  25.694  0.00  0.00    -0.314 OA
ATOM     28  H   UNL     1       8.939  -3.359  26.613  0.00  0.00    +0.221 HD
ENDBRANCH  26  27
BRANCH  26  29
ATOM     29  O   UNL     1       7.633  -5.634  26.287  0.00  0.00    -0.314 OA
ATOM     30  H   UNL     1       7.901  -6.133  27.080  0.00  0.00    +0.221 HD
ENDBRANCH  26  29
BRANCH  26  31
ATOM     31  O   UNL     1      10.066  -5.961  25.620  0.00  0.00    -0.314 OA
ATOM     32  H   UNL     1      10.657  -5.552  26.278  0.00  0.00    +0.221 HD
ENDBRANCH  26  31
ENDBRANCH  25  26
ENDBRANCH  24  25
ENDBRANCH   7  24
TORSDOF 18
ENDMDL
MODEL 7
REMARK VINA RESULT:      -5.2      2.209      3.952
REMARK  Name = 
REMARK  20 active torsions:
REMARK  status: ('A' for Active; 'I' for Inactive)
REMARK    1  A    between atoms: C_1  and  C_2
REMARK    2  A    between atoms: C_2  and  C_3
REMARK    3  A    between atoms: C_3  and  C_4
REMARK    4  A    between atoms: C_4  and  C_5
REMARK    5  A    between atoms: C_5  and  C_6
REMARK    6  A    between atoms: C_6  and  C_7
REMARK    7  A    between atoms: C_7  and  C_8
REMARK    8  A    between atoms: C_8  and  C_9
REMARK    9  A    between atoms: C_9  and  C_10
REMARK   10  A    between atoms: C_10  and  C_12
REMARK   11  A    between atoms: C_12  and  N_13
REMARK   12  A    between atoms: C_14  and  C_15
REMARK   13  A    between atoms: C_16  and  C_17
REMARK   14  A    between atoms: C_17  and  O_18
REMARK   15  A    between atoms: O_18  and  P_19
REMARK   16  A    between atoms: P_19  and  O_20
REMARK   17  A    between atoms: P_19  and  O_21
REMARK   18  A    between atoms: P_19  and  O_22
REMARK   19  A    between atoms: C_25  and  C_26
REMARK   20  A    between atoms: C_27  and  O_28
REMARK                            x       y       z     vdW  Elec       q    Type
REMARK                         _______ _______ _______ _____ _____    ______ ____
ROOT
ATOM      1  C   UNL     1       6.751  -4.077  24.375  0.00  0.00    +0.043 A 
ATOM      2  C   UNL     1       6.824  -4.446  23.023  0.00  0.00    +0.147 A 
ATOM      3  C   UNL     1       5.984  -5.459  22.557  0.00  0.00    +0.080 A 
ATOM      4  C   UNL     1       6.026  -5.930  21.134  0.00  0.00    +0.069 C 
ATOM      5  N   UNL     1       5.079  -6.074  23.356  0.00  0.00    -0.256 NA
ATOM      6  C   UNL     1       4.999  -5.662  24.642  0.00  0.00    +0.117 A 
ATOM      7  C   UNL     1       5.791  -4.667  25.213  0.00  0.00    +0.009 A 
ENDROOT
BRANCH   2   8
ATOM      8  O   UNL     1       7.663  -3.775  22.175  0.00  0.00    -0.504 OA
ATOM      9  H   UNL     1       7.896  -2.908  22.538  0.00  0.00    +0.292 HD
ENDBRANCH   2   8
BRANCH   1  11
ATOM     10  N   UNL     1       7.829  -1.895  24.525  0.00  0.00    -0.283 NA
ATOM     11  C   UNL     1       7.726  -3.111  24.941  0.00  0.00    +0.117 C 
BRANCH  10  12
ATOM     12  C   UNL     1       8.906  -1.090  25.108  0.00  0.00    +0.215 C 
BRANCH  12  13
ATOM     13  C   UNL     1      10.054  -0.850  24.140  0.00  0.00    +0.154 C 
ATOM     14  O   UNL     1      10.329  -1.658  23.248  0.00  0.00    -0.295 OA
BRANCH  13  15
ATOM     15  C   UNL     1      10.812   0.456  24.294  0.00  0.00    +0.076 C 
BRANCH  15  16
ATOM     16  C   UNL     1       9.851   1.609  24.559  0.00  0.00    +0.008 C 
BRANCH  16  17
ATOM     17  C   UNL     1       9.820   2.610  23.411  0.00  0.00    +0.000 C 
BRANCH  17  18
ATOM     18  C   UNL     1      10.140   1.906  22.092  0.00  0.00    +0.000 C 
BRANCH  18  19
ATOM     19  C   UNL     1       8.875   1.389  21.416  0.00  0.00    +0.000 C 
BRANCH  19  20
ATOM     20  C   UNL     1       7.648   2.174  21.875  0.00  0.00    -0.000 C 
BRANCH  20  21
ATOM     21  C   UNL     1       6.634   1.257  22.556  0.00  0.00    -0.000 C 
BRANCH  21  23
ATOM     22  C   UNL     1       6.217   3.366  23.863  0.00  0.00    +0.004 C 
ATOM     23  C   UNL     1       6.153   1.845  23.880  0.00  0.00    -0.003 C 
ENDBRANCH  21  23
ENDBRANCH  20  21
ENDBRANCH  19  20
ENDBRANCH  18  19
ENDBRANCH  17  18
ENDBRANCH  16  17
ENDBRANCH  15  16
ENDBRANCH  13  15
ENDBRANCH  12  13
ENDBRANCH  10  12
ENDBRANCH   1  11
BRANCH   7  24
ATOM     24  C   UNL     1       5.535  -4.298  26.648  0.00  0.00    +0.208 C 
BRANCH  24  25
ATOM     25  O   UNL     1       5.021  -5.416  27.357  0.00  0.00    -0.293 OA
BRANCH  25  26
ATOM     26  P   UNL     1       5.995  -6.086  28.406  0.00  0.00    +0.376 P 
BRANCH  26  27
ATOM     27  O   UNL     1       7.495  -6.083  27.926  0.00  0.00    -0.314 OA
ATOM     28  H   UNL     1       7.671  -5.733  27.033  0.00  0.00    +0.221 HD
ENDBRANCH  26  27
BRANCH  26  29
ATOM     29  O   UNL     1       5.919  -5.408  29.828  0.00  0.00    -0.314 OA
ATOM     30  H   UNL     1       5.857  -5.984  30.610  0.00  0.00    +0.221 HD
ENDBRANCH  26  29
BRANCH  26  31
ATOM     31  O   UNL     1       5.609  -7.608  28.590  0.00  0.00    -0.314 OA
ATOM     32  H   UNL     1       6.254  -8.230  28.209  0.00  0.00    +0.221 HD
ENDBRANCH  26  31
ENDBRANCH  25  26
ENDBRANCH  24  25
ENDBRANCH   7  24
TORSDOF 18
ENDMDL
MODEL 8
REMARK VINA RESULT:      -5.2      1.984      2.813
REMARK  Name = 
REMARK  20 active torsions:
REMARK  status: ('A' for Active; 'I' for Inactive)
REMARK    1  A    between atoms: C_1  and  C_2
REMARK    2  A    between atoms: C_2  and  C_3
REMARK    3  A    between atoms: C_3  and  C_4
REMARK    4  A    between atoms: C_4  and  C_5
REMARK    5  A    between atoms: C_5  and  C_6
REMARK    6  A    between atoms: C_6  and  C_7
REMARK    7  A    between atoms: C_7  and  C_8
REMARK    8  A    between atoms: C_8  and  C_9
REMARK    9  A    between atoms: C_9  and  C_10
REMARK   10  A    between atoms: C_10  and  C_12
REMARK   11  A    between atoms: C_12  and  N_13
REMARK   12  A    between atoms: C_14  and  C_15
REMARK   13  A    between atoms: C_16  and  C_17
REMARK   14  A    between atoms: C_17  and  O_18
REMARK   15  A    between atoms: O_18  and  P_19
REMARK   16  A    between atoms: P_19  and  O_20
REMARK   17  A    between atoms: P_19  and  O_21
REMARK   18  A    between atoms: P_19  and  O_22
REMARK   19  A    between atoms: C_25  and  C_26
REMARK   20  A    between atoms: C_27  and  O_28
REMARK                            x       y       z     vdW  Elec       q    Type
REMARK                         _______ _______ _______ _____ _____    ______ ____
ROOT
ATOM      1  C   UNL     1       5.556  -5.676  27.144  0.00  0.00    +0.043 A 
ATOM      2  C   UNL     1       5.188  -6.445  28.259  0.00  0.00    +0.147 A 
ATOM      3  C   UNL     1       3.853  -6.445  28.665  0.00  0.00    +0.080 A 
ATOM      4  C   UNL     1       3.389  -7.216  29.865  0.00  0.00    +0.069 C 
ATOM      5  N   UNL     1       2.895  -5.755  28.001  0.00  0.00    -0.256 NA
ATOM      6  C   UNL     1       3.271  -5.063  26.902  0.00  0.00    +0.117 A 
ATOM      7  C   UNL     1       4.574  -4.988  26.412  0.00  0.00    +0.009 A 
ENDROOT
BRANCH   2   8
ATOM      8  O   UNL     1       6.120  -7.226  28.889  0.00  0.00    -0.504 OA
ATOM      9  H   UNL     1       5.707  -7.760  29.583  0.00  0.00    +0.292 HD
ENDBRANCH   2   8
BRANCH   1  11
ATOM     10  N   UNL     1       7.681  -4.487  27.048  0.00  0.00    -0.283 NA
ATOM     11  C   UNL     1       6.985  -5.535  26.771  0.00  0.00    +0.117 C 
BRANCH  10  12
ATOM     12  C   UNL     1       9.050  -4.449  26.526  0.00  0.00    +0.215 C 
BRANCH  12  13
ATOM     13  C   UNL     1       9.110  -4.602  25.014  0.00  0.00    +0.154 C 
ATOM     14  O   UNL     1       9.464  -5.660  24.484  0.00  0.00    -0.295 OA
BRANCH  13  15
ATOM     15  C   UNL     1       8.665  -3.408  24.191  0.00  0.00    +0.076 C 
BRANCH  15  16
ATOM     16  C   UNL     1       9.710  -2.298  24.242  0.00  0.00    +0.008 C 
BRANCH  16  17
ATOM     17  C   UNL     1      10.171  -1.876  22.853  0.00  0.00    +0.000 C 
BRANCH  17  18
ATOM     18  C   UNL     1       8.991  -1.322  22.054  0.00  0.00    +0.000 C 
BRANCH  18  19
ATOM     19  C   UNL     1       9.393  -0.091  21.248  0.00  0.00    +0.000 C 
BRANCH  19  20
ATOM     20  C   UNL     1       8.962   1.192  21.957  0.00  0.00    -0.000 C 
BRANCH  20  21
ATOM     21  C   UNL     1      10.172   2.050  22.322  0.00  0.00    -0.000 C 
BRANCH  21  23
ATOM     22  C   UNL     1       9.296   1.441  24.600  0.00  0.00    +0.004 C 
ATOM     23  C   UNL     1      10.491   1.959  23.812  0.00  0.00    -0.003 C 
ENDBRANCH  21  23
ENDBRANCH  20  21
ENDBRANCH  19  20
ENDBRANCH  18  19
ENDBRANCH  17  18
ENDBRANCH  16  17
ENDBRANCH  15  16
ENDBRANCH  13  15
ENDBRANCH  12  13
ENDBRANCH  10  12
ENDBRANCH   1  11
BRANCH   7  24
ATOM     24  C   UNL     1       4.810  -4.213  25.145  0.00  0.00    +0.208 C 
BRANCH  24  25
ATOM     25  O   UNL     1       5.426  -5.043  24.171  0.00  0.00    -0.293 OA
BRANCH  25  26
ATOM     26  P   UNL     1       4.451  -5.844  23.218  0.00  0.00    +0.376 P 
BRANCH  26  27
ATOM     27  O   UNL     1       4.170  -7.306  23.732  0.00  0.00    -0.314 OA
ATOM     28  H   UNL     1       4.891  -7.954  23.633  0.00  0.00    +0.221 HD
ENDBRANCH  26  27
BRANCH  26  29
ATOM     29  O   UNL     1       3.072  -5.111  23.002  0.00  0.00    -0.314 OA
ATOM     30  H   UNL     1       2.499  -4.970  23.777  0.00  0.00    +0.221 HD
ENDBRANCH  26  29
BRANCH  26  31
ATOM     31  O   UNL     1       5.122  -6.012  21.797  0.00  0.00    -0.314 OA
ATOM     32  H   UNL     1       6.086  -6.153  21.826  0.00  0.00    +0.221 HD
ENDBRANCH  26  31
ENDBRANCH  25  26
ENDBRANCH  24  25
ENDBRANCH   7  24
TORSDOF 18
ENDMDL
MODEL 9
REMARK VINA RESULT:      -5.1      2.928      4.983
REMARK  Name = 
REMARK  20 active torsions:
REMARK  status: ('A' for Active; 'I' for Inactive)
REMARK    1  A    between atoms: C_1  and  C_2
REMARK    2  A    between atoms: C_2  and  C_3
REMARK    3  A    between atoms: C_3  and  C_4
REMARK    4  A    between atoms: C_4  and  C_5
REMARK    5  A    between atoms: C_5  and  C_6
REMARK    6  A    between atoms: C_6  and  C_7
REMARK    7  A    between atoms: C_7  and  C_8
REMARK    8  A    between atoms: C_8  and  C_9
REMARK    9  A    between atoms: C_9  and  C_10
REMARK   10  A    between atoms: C_10  and  C_12
REMARK   11  A    between atoms: C_12  and  N_13
REMARK   12  A    between atoms: C_14  and  C_15
REMARK   13  A    between atoms: C_16  and  C_17
REMARK   14  A    between atoms: C_17  and  O_18
REMARK   15  A    between atoms: O_18  and  P_19
REMARK   16  A    between atoms: P_19  and  O_20
REMARK   17  A    between atoms: P_19  and  O_21
REMARK   18  A    between atoms: P_19  and  O_22
REMARK   19  A    between atoms: C_25  and  C_26
REMARK   20  A    between atoms: C_27  and  O_28
REMARK                            x       y       z     vdW  Elec       q    Type
REMARK                         _______ _______ _______ _____ _____    ______ ____
ROOT
ATOM      1  C   UNL     1       7.272  -3.769  24.503  0.00  0.00    +0.043 A 
ATOM      2  C   UNL     1       7.257  -4.091  23.137  0.00  0.00    +0.147 A 
ATOM      3  C   UNL     1       6.490  -5.176  22.710  0.00  0.00    +0.080 A 
ATOM      4  C   UNL     1       6.448  -5.600  21.272  0.00  0.00    +0.069 C 
ATOM      5  N   UNL     1       5.734  -5.908  23.563  0.00  0.00    -0.256 NA
ATOM      6  C   UNL     1       5.730  -5.543  24.866  0.00  0.00    +0.117 A 
ATOM      7  C   UNL     1       6.462  -4.484  25.401  0.00  0.00    +0.009 A 
ENDROOT
BRANCH   2   8
ATOM      8  O   UNL     1       7.937  -3.309  22.242  0.00  0.00    -0.504 OA
ATOM      9  H   UNL     1       8.320  -3.849  21.536  0.00  0.00    +0.292 HD
ENDBRANCH   2   8
BRANCH   1  11
ATOM     10  N   UNL     1       8.228  -1.527  24.526  0.00  0.00    -0.283 NA
ATOM     11  C   UNL     1       8.187  -2.718  25.015  0.00  0.00    +0.117 C 
BRANCH  10  12
ATOM     12  C   UNL     1       9.254  -0.630  25.066  0.00  0.00    +0.215 C 
BRANCH  12  13
ATOM     13  C   UNL     1      10.173  -0.069  23.991  0.00  0.00    +0.154 C 
ATOM     14  O   UNL     1      10.513  -0.743  23.014  0.00  0.00    -0.295 OA
BRANCH  13  15
ATOM     15  C   UNL     1      10.610   1.374  24.155  0.00  0.00    +0.076 C 
BRANCH  15  16
ATOM     16  C   UNL     1       9.409   2.275  24.420  0.00  0.00    +0.008 C 
BRANCH  16  17
ATOM     17  C   UNL     1       8.695   2.678  23.135  0.00  0.00    +0.000 C 
BRANCH  17  18
ATOM     18  C   UNL     1       8.173   4.110  23.251  0.00  0.00    +0.000 C 
BRANCH  18  19
ATOM     19  C   UNL     1       8.937   4.897  24.310  0.00  0.00    +0.000 C 
BRANCH  19  20
ATOM     20  C   UNL     1       9.901   5.890  23.664  0.00  0.00    -0.000 C 
BRANCH  20  21
ATOM     21  C   UNL     1      10.922   6.402  24.678  0.00  0.00    -0.000 C 
BRANCH  21  23
ATOM     22  C   UNL     1      12.357   5.022  23.142  0.00  0.00    +0.004 C 
ATOM     23  C   UNL     1      12.347   6.059  24.256  0.00  0.00    -0.003 C 
ENDBRANCH  21  23
ENDBRANCH  20  21
ENDBRANCH  19  20
ENDBRANCH  18  19
ENDBRANCH  17  18
ENDBRANCH  16  17
ENDBRANCH  15  16
ENDBRANCH  13  15
ENDBRANCH  12  13
ENDBRANCH  10  12
ENDBRANCH   1  11
BRANCH   7  24
ATOM     24  C   UNL     1       6.303  -4.184  26.866  0.00  0.00    +0.208 C 
BRANCH  24  25
ATOM     25  O   UNL     1       5.403  -5.109  27.459  0.00  0.00    -0.293 OA
BRANCH  25  26
ATOM     26  P   UNL     1       6.031  -6.143  28.475  0.00  0.00    +0.376 P 
BRANCH  26  27
ATOM     27  O   UNL     1       5.278  -7.526  28.473  0.00  0.00    -0.314 OA
ATOM     28  H   UNL     1       5.734  -8.276  28.050  0.00  0.00    +0.221 HD
ENDBRANCH  26  27
BRANCH  26  29
ATOM     29  O   UNL     1       7.564  -6.403  28.211  0.00  0.00    -0.314 OA
ATOM     30  H   UNL     1       7.985  -5.947  27.460  0.00  0.00    +0.221 HD
ENDBRANCH  26  29
BRANCH  26  31
ATOM     31  O   UNL     1       5.896  -5.586  29.948  0.00  0.00    -0.314 OA
ATOM     32  H   UNL     1       6.733  -5.576  30.448  0.00  0.00    +0.221 HD
ENDBRANCH  26  31
ENDBRANCH  25  26
ENDBRANCH  24  25
ENDBRANCH   7  24
TORSDOF 18
ENDMDL
