MODEL 1
REMARK VINA RESULT:      -6.8      0.000      0.000
REMARK  Name = 
REMARK  2 active torsions:
REMARK  status: ('A' for Active; 'I' for Inactive)
REMARK    1  A    between atoms: O_1  and  C_2
REMARK    2  A    between atoms: C_2  and  C_14
REMARK                            x       y       z     vdW  Elec       q    Type
REMARK                         _______ _______ _______ _____ _____    ______ ____
ROOT
ATOM      1  C   UNL     1       7.301  -3.030  24.172  0.00  0.00    +0.256 C 
ATOM      2  C   UNL     1       6.718  -4.038  23.180  0.00  0.00    +0.045 A 
ATOM      3  C   UNL     1       6.090  -5.057  23.895  0.00  0.00    +0.075 A 
ATOM      4  C   UNL     1       5.440  -6.139  23.354  0.00  0.00    +0.016 A 
ATOM      5  C   UNL     1       5.632  -6.326  21.988  0.00  0.00    +0.001 A 
ATOM      6  C   UNL     1       6.480  -5.464  21.264  0.00  0.00    +0.001 A 
ATOM      7  C   UNL     1       6.803  -5.016  25.172  0.00  0.00    +0.318 C 
ATOM      8  N   UNL     1       6.694  -5.771  26.221  0.00  0.00    -0.079 NA
ATOM      9  C   UNL     1       7.848  -5.280  27.050  0.00  0.00    +0.334 C 
ATOM     10  C   UNL     1       8.315  -3.915  26.449  0.00  0.00    +0.279 C 
ATOM     11  C   UNL     1       7.014  -4.301  21.850  0.00  0.00    +0.011 A 
ATOM     12  N   UNL     1       7.762  -4.013  25.140  0.00  0.00    -0.180 N 
ENDROOT
BRANCH   1  13
ATOM     13  C   UNL     1       8.125  -1.930  23.565  0.00  0.00    +0.031 A 
ATOM     14  C   UNL     1       7.408  -0.768  23.149  0.00  0.00    +0.012 A 
ATOM     15  C   UNL     1       8.029   0.376  22.657  0.00  0.00    +0.020 A 
ATOM     16  C   UNL     1       9.413   0.370  22.549  0.00  0.00    +0.041 A 
ATOM     17 CL   UNL     1      10.213   1.803  21.989  0.00  0.00    -0.084 Cl
ATOM     18  C   UNL     1      10.158  -0.749  22.929  0.00  0.00    +0.020 A 
ATOM     19  C   UNL     1       9.520  -1.899  23.412  0.00  0.00    +0.012 A 
ENDBRANCH   1  13
BRANCH   1  20
ATOM     20  O   UNL     1       6.204  -2.340  24.783  0.00  0.00    -0.346 OA
ATOM     21  H   UNL     1       6.401  -1.413  24.638  0.00  0.00    +0.215 HD
ENDBRANCH   1  20
TORSDOF 2
ENDMDL
MODEL 2
REMARK VINA RESULT:      -6.6      5.273      8.995
REMARK  Name = 
REMARK  2 active torsions:
REMARK  status: ('A' for Active; 'I' for Inactive)
REMARK    1  A    between atoms: O_1  and  C_2
REMARK    2  A    between atoms: C_2  and  C_14
REMARK                            x       y       z     vdW  Elec       q    Type
REMARK                         _______ _______ _______ _____ _____    ______ ____
ROOT
ATOM      1  C   UNL     1       8.906   3.534  23.603  0.00  0.00    +0.256 C 
ATOM      2  C   UNL     1      10.267   4.210  23.782  0.00  0.00    +0.045 A 
ATOM      3  C   UNL     1      10.062   5.552  24.102  0.00  0.00    +0.075 A 
ATOM      4  C   UNL     1      11.043   6.481  24.348  0.00  0.00    +0.016 A 
ATOM      5  C   UNL     1      12.336   6.079  24.025  0.00  0.00    +0.001 A 
ATOM      6  C   UNL     1      12.566   4.815  23.447  0.00  0.00    +0.001 A 
ATOM      7  C   UNL     1       8.746   5.805  23.516  0.00  0.00    +0.318 C 
ATOM      8  N   UNL     1       8.053   6.900  23.446  0.00  0.00    -0.079 NA
ATOM      9  C   UNL     1       6.922   6.468  22.555  0.00  0.00    +0.334 C 
ATOM     10  C   UNL     1       6.931   4.906  22.502  0.00  0.00    +0.279 C 
ATOM     11  C   UNL     1      11.535   3.862  23.340  0.00  0.00    +0.011 A 
ATOM     12  N   UNL     1       8.268   4.647  22.918  0.00  0.00    -0.180 N 
ENDROOT
BRANCH   1  13
ATOM     13  C   UNL     1       8.951   2.110  23.130  0.00  0.00    +0.031 A 
ATOM     14  C   UNL     1       8.594   1.118  24.093  0.00  0.00    +0.012 A 
ATOM     15  C   UNL     1       8.491  -0.237  23.791  0.00  0.00    +0.020 A 
ATOM     16  C   UNL     1       8.772  -0.637  22.491  0.00  0.00    +0.041 A 
ATOM     17 CL   UNL     1       8.599  -2.312  22.079  0.00  0.00    -0.084 Cl
ATOM     18  C   UNL     1       9.140   0.294  21.518  0.00  0.00    +0.020 A 
ATOM     19  C   UNL     1       9.251   1.653  21.837  0.00  0.00    +0.012 A 
ENDBRANCH   1  13
BRANCH   1  20
ATOM     20  O   UNL     1       8.293   3.448  24.896  0.00  0.00    -0.346 OA
ATOM     21  H   UNL     1       9.034   3.360  25.500  0.00  0.00    +0.215 HD
ENDBRANCH   1  20
TORSDOF 2
ENDMDL
MODEL 3
REMARK VINA RESULT:      -6.4      1.959      3.731
REMARK  Name = 
REMARK  2 active torsions:
REMARK  status: ('A' for Active; 'I' for Inactive)
REMARK    1  A    between atoms: O_1  and  C_2
REMARK    2  A    between atoms: C_2  and  C_14
REMARK                            x       y       z     vdW  Elec       q    Type
REMARK                         _______ _______ _______ _____ _____    ______ ____
ROOT
ATOM      1  C   UNL     1       8.049  -2.318  22.876  0.00  0.00    +0.256 C 
ATOM      2  C   UNL     1       8.478  -2.873  24.236  0.00  0.00    +0.045 A 
ATOM      3  C   UNL     1       8.513  -4.265  24.160  0.00  0.00    +0.075 A 
ATOM      4  C   UNL     1       8.864  -5.120  25.177  0.00  0.00    +0.016 A 
ATOM      5  C   UNL     1       8.970  -4.534  26.435  0.00  0.00    +0.001 A 
ATOM      6  C   UNL     1       8.684  -3.165  26.609  0.00  0.00    +0.001 A 
ATOM      7  C   UNL     1       7.562  -4.534  23.082  0.00  0.00    +0.318 C 
ATOM      8  N   UNL     1       7.135  -5.660  22.599  0.00  0.00    -0.079 NA
ATOM      9  C   UNL     1       6.052  -5.183  21.671  0.00  0.00    +0.334 C 
ATOM     10  C   UNL     1       6.253  -3.647  21.461  0.00  0.00    +0.279 C 
ATOM     11  C   UNL     1       8.455  -2.319  25.507  0.00  0.00    +0.011 A 
ATOM     12  N   UNL     1       7.049  -3.338  22.600  0.00  0.00    -0.180 N 
ENDROOT
BRANCH   1  13
ATOM     13  C   UNL     1       7.838  -0.833  22.824  0.00  0.00    +0.031 A 
ATOM     14  C   UNL     1       8.813  -0.087  22.095  0.00  0.00    +0.012 A 
ATOM     15  C   UNL     1       8.713   1.284  21.870  0.00  0.00    +0.020 A 
ATOM     16  C   UNL     1       7.619   1.953  22.401  0.00  0.00    +0.041 A 
ATOM     17 CL   UNL     1       7.446   3.649  22.088  0.00  0.00    -0.084 Cl
ATOM     18  C   UNL     1       6.646   1.269  23.135  0.00  0.00    +0.020 A 
ATOM     19  C   UNL     1       6.764  -0.107  23.364  0.00  0.00    +0.012 A 
ENDBRANCH   1  13
BRANCH   1  20
ATOM     20  O   UNL     1       9.125  -2.545  21.957  0.00  0.00    -0.346 OA
ATOM     21  H   UNL     1       8.805  -3.253  21.393  0.00  0.00    +0.215 HD
ENDBRANCH   1  20
TORSDOF 2
ENDMDL
MODEL 4
REMARK VINA RESULT:      -6.3      3.117      5.772
REMARK  Name = 
REMARK  2 active torsions:
REMARK  status: ('A' for Active; 'I' for Inactive)
REMARK    1  A    between atoms: O_1  and  C_2
REMARK    2  A    between atoms: C_2  and  C_14
REMARK                            x       y       z     vdW  Elec       q    Type
REMARK                         _______ _______ _______ _____ _____    ______ ____
ROOT
ATOM      1  C   UNL     1       7.905  -1.131  24.399  0.00  0.00    +0.256 C 
ATOM      2  C   UNL     1       8.815  -0.183  23.615  0.00  0.00    +0.045 A 
ATOM      3  C   UNL     1       9.009   0.975  24.369  0.00  0.00    +0.075 A 
ATOM      4  C   UNL     1       9.776   2.055  24.003  0.00  0.00    +0.016 A 
ATOM      5  C   UNL     1      10.197   2.063  22.677  0.00  0.00    +0.001 A 
ATOM      6  C   UNL     1       9.802   1.035  21.798  0.00  0.00    +0.001 A 
ATOM      7  C   UNL     1       7.809   0.998  25.204  0.00  0.00    +0.318 C 
ATOM      8  N   UNL     1       7.405   1.875  26.071  0.00  0.00    -0.079 NA
ATOM      9  C   UNL     1       6.030   1.355  26.386  0.00  0.00    +0.334 C 
ATOM     10  C   UNL     1       5.946  -0.113  25.855  0.00  0.00    +0.279 C 
ATOM     11  C   UNL     1       9.124  -0.107  22.265  0.00  0.00    +0.011 A 
ATOM     12  N   UNL     1       7.015  -0.102  24.915  0.00  0.00    -0.180 N 
ENDROOT
BRANCH   1  13
ATOM     13  C   UNL     1       7.492  -2.377  23.670  0.00  0.00    +0.031 A 
ATOM     14  C   UNL     1       6.361  -2.252  22.808  0.00  0.00    +0.012 A 
ATOM     15  C   UNL     1       5.908  -3.283  21.990  0.00  0.00    +0.020 A 
ATOM     16  C   UNL     1       6.583  -4.495  22.036  0.00  0.00    +0.041 A 
ATOM     17 CL   UNL     1       6.070  -5.777  20.986  0.00  0.00    -0.084 Cl
ATOM     18  C   UNL     1       7.686  -4.671  22.875  0.00  0.00    +0.020 A 
ATOM     19  C   UNL     1       8.125  -3.630  23.702  0.00  0.00    +0.012 A 
ENDBRANCH   1  13
BRANCH   1  20
ATOM     20  O   UNL     1       8.654  -1.619  25.520  0.00  0.00    -0.346 OA
ATOM     21  H   UNL     1       8.030  -2.173  25.993  0.00  0.00    +0.215 HD
ENDBRANCH   1  20
TORSDOF 2
ENDMDL
MODEL 5
REMARK VINA RESULT:      -6.3      4.411      6.194
REMARK  Name = 
REMARK  2 active torsions:
REMARK  status: ('A' for Active; 'I' for Inactive)
REMARK    1  A    between atoms: O_1  and  C_2
REMARK    2  A    between atoms: C_2  and  C_14
REMARK                            x       y       z     vdW  Elec       q    Type
REMARK                         _______ _______ _______ _____ _____    ______ ____
ROOT
ATOM      1  C   UNL     1       9.400   1.803  23.842  0.00  0.00    +0.256 C 
ATOM      2  C   UNL     1       8.772   1.256  25.126  0.00  0.00    +0.045 A 
ATOM      3  C   UNL     1       9.202  -0.058  25.309  0.00  0.00    +0.075 A 
ATOM      4  C   UNL     1       8.860  -0.879  26.357  0.00  0.00    +0.016 A 
ATOM      5  C   UNL     1       7.827  -0.414  27.164  0.00  0.00    +0.001 A 
ATOM      6  C   UNL     1       7.178   0.800  26.861  0.00  0.00    +0.001 A 
ATOM      7  C   UNL     1       9.507  -0.471  23.940  0.00  0.00    +0.318 C 
ATOM      8  N   UNL     1       9.897  -1.617  23.474  0.00  0.00    -0.079 NA
ATOM      9  C   UNL     1       9.822  -1.367  21.994  0.00  0.00    +0.334 C 
ATOM     10  C   UNL     1       9.716   0.177  21.780  0.00  0.00    +0.279 C 
ATOM     11  C   UNL     1       7.659   1.655  25.851  0.00  0.00    +0.011 A 
ATOM     12  N   UNL     1       9.260   0.580  23.067  0.00  0.00    -0.180 N 
ENDROOT
BRANCH   1  13
ATOM     13  C   UNL     1       8.937   3.171  23.431  0.00  0.00    +0.031 A 
ATOM     14  C   UNL     1       7.816   3.213  22.548  0.00  0.00    +0.012 A 
ATOM     15  C   UNL     1       7.204   4.398  22.148  0.00  0.00    +0.020 A 
ATOM     16  C   UNL     1       7.730   5.594  22.619  0.00  0.00    +0.041 A 
ATOM     17 CL   UNL     1       6.953   7.079  22.177  0.00  0.00    -0.084 Cl
ATOM     18  C   UNL     1       8.836   5.604  23.472  0.00  0.00    +0.020 A 
ATOM     19  C   UNL     1       9.450   4.406  23.858  0.00  0.00    +0.012 A 
ENDBRANCH   1  13
BRANCH   1  20
ATOM     20  O   UNL     1      10.802   1.972  24.085  0.00  0.00    -0.346 OA
ATOM     21  H   UNL     1      10.840   2.615  24.795  0.00  0.00    +0.215 HD
ENDBRANCH   1  20
TORSDOF 2
ENDMDL
MODEL 6
REMARK VINA RESULT:      -6.2      1.645      3.170
REMARK  Name = 
REMARK  2 active torsions:
REMARK  status: ('A' for Active; 'I' for Inactive)
REMARK    1  A    between atoms: O_1  and  C_2
REMARK    2  A    between atoms: C_2  and  C_14
REMARK                            x       y       z     vdW  Elec       q    Type
REMARK                         _______ _______ _______ _____ _____    ______ ____
ROOT
ATOM      1  C   UNL     1       7.958  -3.665  23.809  0.00  0.00    +0.256 C 
ATOM      2  C   UNL     1       7.241  -3.593  25.159  0.00  0.00    +0.045 A 
ATOM      3  C   UNL     1       6.532  -4.779  25.351  0.00  0.00    +0.075 A 
ATOM      4  C   UNL     1       5.771  -5.093  26.451  0.00  0.00    +0.016 A 
ATOM      5  C   UNL     1       5.525  -4.038  27.324  0.00  0.00    +0.001 A 
ATOM      6  C   UNL     1       6.007  -2.746  27.034  0.00  0.00    +0.001 A 
ATOM      7  C   UNL     1       6.304  -5.223  23.976  0.00  0.00    +0.318 C 
ATOM      8  N   UNL     1       5.646  -6.243  23.520  0.00  0.00    -0.079 NA
ATOM      9  C   UNL     1       5.669  -5.964  22.043  0.00  0.00    +0.334 C 
ATOM     10  C   UNL     1       6.759  -4.874  21.785  0.00  0.00    +0.279 C 
ATOM     11  C   UNL     1       6.886  -2.518  25.959  0.00  0.00    +0.011 A 
ATOM     12  N   UNL     1       6.875  -4.319  23.091  0.00  0.00    -0.180 N 
ENDROOT
BRANCH   1  13
ATOM     13  C   UNL     1       8.669  -2.411  23.389  0.00  0.00    +0.031 A 
ATOM     14  C   UNL     1       7.910  -1.496  22.599  0.00  0.00    +0.012 A 
ATOM     15  C   UNL     1       8.387  -0.247  22.210  0.00  0.00    +0.020 A 
ATOM     16  C   UNL     1       9.672   0.110  22.596  0.00  0.00    +0.041 A 
ATOM     17 CL   UNL     1      10.266   1.681  22.168  0.00  0.00    -0.084 Cl
ATOM     18  C   UNL     1      10.459  -0.759  23.356  0.00  0.00    +0.020 A 
ATOM     19  C   UNL     1       9.972  -2.017  23.732  0.00  0.00    +0.012 A 
ENDBRANCH   1  13
BRANCH   1  20
ATOM     20  O   UNL     1       9.009  -4.632  23.928  0.00  0.00    -0.346 OA
ATOM     21  H   UNL     1       8.821  -5.268  23.234  0.00  0.00    +0.215 HD
ENDBRANCH   1  20
TORSDOF 2
ENDMDL
MODEL 7
REMARK VINA RESULT:      -6.1      5.174      8.487
REMARK  Name = 
REMARK  2 active torsions:
REMARK  status: ('A' for Active; 'I' for Inactive)
REMARK    1  A    between atoms: O_1  and  C_2
REMARK    2  A    between atoms: C_2  and  C_14
REMARK                            x       y       z     vdW  Elec       q    Type
REMARK                         _______ _______ _______ _____ _____    ______ ____
ROOT
ATOM      1  C   UNL     1       9.339   3.105  23.592  0.00  0.00    +0.256 C 
ATOM      2  C   UNL     1       8.404   3.697  24.649  0.00  0.00    +0.045 A 
ATOM      3  C   UNL     1       8.565   5.082  24.663  0.00  0.00    +0.075 A 
ATOM      4  C   UNL     1       7.890   5.964  25.471  0.00  0.00    +0.016 A 
ATOM      5  C   UNL     1       7.158   5.384  26.502  0.00  0.00    +0.001 A 
ATOM      6  C   UNL     1       7.175   3.987  26.690  0.00  0.00    +0.001 A 
ATOM      7  C   UNL     1       9.927   5.234  24.150  0.00  0.00    +0.318 C 
ATOM      8  N   UNL     1      10.651   6.298  23.991  0.00  0.00    -0.079 NA
ATOM      9  C   UNL     1      11.976   5.691  23.618  0.00  0.00    +0.334 C 
ATOM     10  C   UNL     1      11.720   4.198  23.233  0.00  0.00    +0.279 C 
ATOM     11  C   UNL     1       7.783   3.131  25.752  0.00  0.00    +0.011 A 
ATOM     12  N   UNL     1      10.463   3.985  23.867  0.00  0.00    -0.180 N 
ENDROOT
BRANCH   1  13
ATOM     13  C   UNL     1       9.380   1.605  23.536  0.00  0.00    +0.031 A 
ATOM     14  C   UNL     1      10.260   0.968  24.463  0.00  0.00    +0.012 A 
ATOM     15  C   UNL     1      10.346  -0.414  24.607  0.00  0.00    +0.020 A 
ATOM     16  C   UNL     1       9.548  -1.205  23.791  0.00  0.00    +0.041 A 
ATOM     17 CL   UNL     1       9.599  -2.926  23.990  0.00  0.00    -0.084 Cl
ATOM     18  C   UNL     1       8.683  -0.628  22.859  0.00  0.00    +0.020 A 
ATOM     19  C   UNL     1       8.614   0.763  22.715  0.00  0.00    +0.012 A 
ENDBRANCH   1  13
BRANCH   1  20
ATOM     20  O   UNL     1       8.832   3.483  22.306  0.00  0.00    -0.346 OA
ATOM     21  H   UNL     1       7.906   3.678  22.468  0.00  0.00    +0.215 HD
ENDBRANCH   1  20
TORSDOF 2
ENDMDL
MODEL 8
REMARK VINA RESULT:      -6.0      4.801      7.446
REMARK  Name = 
REMARK  2 active torsions:
REMARK  status: ('A' for Active; 'I' for Inactive)
REMARK    1  A    between atoms: O_1  and  C_2
REMARK    2  A    between atoms: C_2  and  C_14
REMARK                            x       y       z     vdW  Elec       q    Type
REMARK                         _______ _______ _______ _____ _____    ______ ____
ROOT
ATOM      1  C   UNL     1       8.860   2.180  22.753  0.00  0.00    +0.256 C 
ATOM      2  C   UNL     1       7.375   2.531  22.869  0.00  0.00    +0.045 A 
ATOM      3  C   UNL     1       7.228   3.909  22.707  0.00  0.00    +0.075 A 
ATOM      4  C   UNL     1       6.042   4.601  22.736  0.00  0.00    +0.016 A 
ATOM      5  C   UNL     1       4.942   3.878  23.186  0.00  0.00    +0.001 A 
ATOM      6  C   UNL     1       5.094   2.544  23.615  0.00  0.00    +0.001 A 
ATOM      7  C   UNL     1       8.540   4.405  23.124  0.00  0.00    +0.318 C 
ATOM      8  N   UNL     1       8.981   5.619  23.238  0.00  0.00    -0.079 NA
ATOM      9  C   UNL     1      10.316   5.379  23.888  0.00  0.00    +0.334 C 
ATOM     10  C   UNL     1      10.653   3.861  23.730  0.00  0.00    +0.279 C 
ATOM     11  C   UNL     1       6.308   1.854  23.441  0.00  0.00    +0.011 A 
ATOM     12  N   UNL     1       9.352   3.338  23.483  0.00  0.00    -0.180 N 
ENDROOT
BRANCH   1  13
ATOM     13  C   UNL     1       9.206   0.745  23.031  0.00  0.00    +0.031 A 
ATOM     14  C   UNL     1       9.276   0.373  24.408  0.00  0.00    +0.012 A 
ATOM     15  C   UNL     1       9.490  -0.935  24.835  0.00  0.00    +0.020 A 
ATOM     16  C   UNL     1       9.663  -1.915  23.867  0.00  0.00    +0.041 A 
ATOM     17 CL   UNL     1       9.877  -3.559  24.375  0.00  0.00    -0.084 Cl
ATOM     18  C   UNL     1       9.618  -1.598  22.508  0.00  0.00    +0.020 A 
ATOM     19  C   UNL     1       9.414  -0.276  22.091  0.00  0.00    +0.012 A 
ENDBRANCH   1  13
BRANCH   1  20
ATOM     20  O   UNL     1       9.243   2.368  21.385  0.00  0.00    -0.346 OA
ATOM     21  H   UNL     1       8.432   2.225  20.894  0.00  0.00    +0.215 HD
ENDBRANCH   1  20
TORSDOF 2
ENDMDL
MODEL 9
REMARK VINA RESULT:      -6.0      3.771      6.501
REMARK  Name = 
REMARK  2 active torsions:
REMARK  status: ('A' for Active; 'I' for Inactive)
REMARK    1  A    between atoms: O_1  and  C_2
REMARK    2  A    between atoms: C_2  and  C_14
REMARK                            x       y       z     vdW  Elec       q    Type
REMARK                         _______ _______ _______ _____ _____    ______ ____
ROOT
ATOM      1  C   UNL     1       8.341  -0.046  25.403  0.00  0.00    +0.256 C 
ATOM      2  C   UNL     1       9.006   0.325  24.076  0.00  0.00    +0.045 A 
ATOM      3  C   UNL     1       9.367   1.672  24.118  0.00  0.00    +0.075 A 
ATOM      4  C   UNL     1       9.999   2.369  23.116  0.00  0.00    +0.016 A 
ATOM      5  C   UNL     1      10.069   1.714  21.891  0.00  0.00    +0.001 A 
ATOM      6  C   UNL     1       9.479   0.445  21.726  0.00  0.00    +0.001 A 
ATOM      7  C   UNL     1       8.419   2.210  25.093  0.00  0.00    +0.318 C 
ATOM      8  N   UNL     1       8.235   3.427  25.503  0.00  0.00    -0.079 NA
ATOM      9  C   UNL     1       6.994   3.265  26.336  0.00  0.00    +0.334 C 
ATOM     10  C   UNL     1       6.801   1.737  26.605  0.00  0.00    +0.279 C 
ATOM     11  C   UNL     1       8.960  -0.268  22.823  0.00  0.00    +0.011 A 
ATOM     12  N   UNL     1       7.595   1.194  25.556  0.00  0.00    -0.180 N 
ENDROOT
BRANCH   1  13
ATOM     13  C   UNL     1       7.775  -1.435  25.474  0.00  0.00    +0.031 A 
ATOM     14  C   UNL     1       8.582  -2.405  26.143  0.00  0.00    +0.012 A 
ATOM     15  C   UNL     1       8.163  -3.712  26.379  0.00  0.00    +0.020 A 
ATOM     16  C   UNL     1       6.908  -4.087  25.921  0.00  0.00    +0.041 A 
ATOM     17 CL   UNL     1       6.344  -5.693  26.250  0.00  0.00    -0.084 Cl
ATOM     18  C   UNL     1       6.089  -3.177  25.248  0.00  0.00    +0.020 A 
ATOM     19  C   UNL     1       6.525  -1.869  25.006  0.00  0.00    +0.012 A 
ENDBRANCH   1  13
BRANCH   1  20
ATOM     20  O   UNL     1       9.357  -0.035  26.413  0.00  0.00    -0.346 OA
ATOM     21  H   UNL     1       9.147  -0.793  26.963  0.00  0.00    +0.215 HD
ENDBRANCH   1  20
TORSDOF 2
ENDMDL
