MODEL 1
REMARK VINA RESULT:      -6.0      0.000      0.000
REMARK  Name = 
REMARK  13 active torsions:
REMARK  status: ('A' for Active; 'I' for Inactive)
REMARK    1  A    between atoms: C_1  and  O_2
REMARK    2  A    between atoms: O_2  and  C_3
REMARK    3  A    between atoms: C_4  and  O_5
REMARK    4  A    between atoms: C_8  and  C_9
REMARK    5  A    between atoms: C_9  and  N_10
REMARK    6  A    between atoms: C_11  and  C_13
REMARK    7  A    between atoms: C_13  and  C_14
REMARK    8  A    between atoms: C_14  and  C_15
REMARK    9  A    between atoms: C_15  and  C_16
REMARK   10  A    between atoms: C_16  and  C_17
REMARK   11  A    between atoms: C_18  and  C_19
REMARK   12  A    between atoms: C_19  and  C_20
REMARK   13  A    between atoms: C_19  and  C_21
REMARK                            x       y       z     vdW  Elec       q    Type
REMARK                         _______ _______ _______ _____ _____    ______ ____
ROOT
ATOM      1  N   UNL     1       8.275  -2.799  25.068  0.00  0.00    -0.311 N 
ATOM      2  H   UNL     1       7.514  -2.187  24.808  0.00  0.00    +0.149 HD
ATOM      3  C   UNL     1       8.180  -3.571  26.202  0.00  0.00    +0.213 C 
ATOM      4  O   UNL     1       9.059  -4.345  26.565  0.00  0.00    -0.276 OA
ENDROOT
BRANCH   1   5
ATOM      5  C   UNL     1       9.459  -2.806  24.242  0.00  0.00    +0.139 C 
BRANCH   5   8
ATOM      6  C   UNL     1       9.937   0.909  23.547  0.00  0.00    +0.162 A 
ATOM      7  C   UNL     1       9.809  -0.308  24.216  0.00  0.00    +0.054 A 
ATOM      8  C   UNL     1       9.628  -1.505  23.499  0.00  0.00    -0.027 A 
ATOM      9  C   UNL     1       9.552  -1.455  22.097  0.00  0.00    +0.009 A 
ATOM     10  C   UNL     1       9.656  -0.237  21.424  0.00  0.00    +0.049 A 
ATOM     11  C   UNL     1       9.842   0.930  22.153  0.00  0.00    +0.158 A 
BRANCH   6  13
ATOM     12  C   UNL     1       8.958   2.724  24.695  0.00  0.00    +0.277 C 
ATOM     13  O   UNL     1      10.131   2.125  24.151  0.00  0.00    -0.491 OA
ENDBRANCH   6  13
BRANCH  11  14
ATOM     14  O   UNL     1       9.943   2.112  21.471  0.00  0.00    -0.503 OA
ATOM     15  H   UNL     1       9.316   2.716  21.917  0.00  0.00    +0.292 HD
ENDBRANCH  11  14
ENDBRANCH   5   8
ENDBRANCH   1   5
BRANCH   3  16
ATOM     16  C   UNL     1       6.870  -3.407  26.947  0.00  0.00    +0.096 C 
BRANCH  16  17
ATOM     17  C   UNL     1       6.297  -4.744  27.410  0.00  0.00    +0.009 C 
BRANCH  17  18
ATOM     18  C   UNL     1       5.073  -5.158  26.586  0.00  0.00    +0.004 C 
BRANCH  18  19
ATOM     19  C   UNL     1       5.453  -6.134  25.474  0.00  0.00    +0.027 C 
BRANCH  19  20
ATOM     20  C   UNL     1       5.599  -5.417  24.162  0.00  0.00    -0.031 C 
ATOM     21  C   UNL     1       6.688  -5.501  23.382  0.00  0.00    -0.028 C 
BRANCH  21  22
ATOM     22  C   UNL     1       6.839  -4.781  22.067  0.00  0.00    +0.005 C 
ATOM     23  C   UNL     1       6.153  -3.418  22.128  0.00  0.00    +0.011 C 
ATOM     24  C   UNL     1       6.257  -5.628  20.935  0.00  0.00    +0.011 C 
ENDBRANCH  21  22
ENDBRANCH  19  20
ENDBRANCH  18  19
ENDBRANCH  17  18
ENDBRANCH  16  17
ENDBRANCH   3  16
TORSDOF 10
ENDMDL
MODEL 2
REMARK VINA RESULT:      -5.8      2.118      6.432
REMARK  Name = 
REMARK  13 active torsions:
REMARK  status: ('A' for Active; 'I' for Inactive)
REMARK    1  A    between atoms: C_1  and  O_2
REMARK    2  A    between atoms: O_2  and  C_3
REMARK    3  A    between atoms: C_4  and  O_5
REMARK    4  A    between atoms: C_8  and  C_9
REMARK    5  A    between atoms: C_9  and  N_10
REMARK    6  A    between atoms: C_11  and  C_13
REMARK    7  A    between atoms: C_13  and  C_14
REMARK    8  A    between atoms: C_14  and  C_15
REMARK    9  A    between atoms: C_15  and  C_16
REMARK   10  A    between atoms: C_16  and  C_17
REMARK   11  A    between atoms: C_18  and  C_19
REMARK   12  A    between atoms: C_19  and  C_20
REMARK   13  A    between atoms: C_19  and  C_21
REMARK                            x       y       z     vdW  Elec       q    Type
REMARK                         _______ _______ _______ _____ _____    ______ ____
ROOT
ATOM      1  N   UNL     1       7.844  -2.070  22.731  0.00  0.00    -0.311 N 
ATOM      2  H   UNL     1       7.019  -1.597  23.074  0.00  0.00    +0.149 HD
ATOM      3  C   UNL     1       8.949  -1.343  22.358  0.00  0.00    +0.213 C 
ATOM      4  O   UNL     1       9.985  -1.855  21.949  0.00  0.00    -0.276 OA
ENDROOT
BRANCH   1   5
ATOM      5  C   UNL     1       7.806  -3.509  22.613  0.00  0.00    +0.139 C 
BRANCH   5   8
ATOM      6  C   UNL     1       6.783  -5.584  25.640  0.00  0.00    +0.162 A 
ATOM      7  C   UNL     1       6.773  -4.980  24.382  0.00  0.00    +0.054 A 
ATOM      8  C   UNL     1       7.850  -4.179  23.963  0.00  0.00    -0.027 A 
ATOM      9  C   UNL     1       8.929  -3.974  24.839  0.00  0.00    +0.009 A 
ATOM     10  C   UNL     1       8.934  -4.558  26.107  0.00  0.00    +0.049 A 
ATOM     11  C   UNL     1       7.862  -5.350  26.496  0.00  0.00    +0.158 A 
BRANCH   6  13
ATOM     12  C   UNL     1       4.593  -6.420  25.366  0.00  0.00    +0.277 C 
ATOM     13  O   UNL     1       5.792  -6.392  26.135  0.00  0.00    -0.491 OA
ENDBRANCH   6  13
BRANCH  11  14
ATOM     14  O   UNL     1       7.890  -5.912  27.743  0.00  0.00    -0.503 OA
ATOM     15  H   UNL     1       8.311  -5.240  28.315  0.00  0.00    +0.292 HD
ENDBRANCH  11  14
ENDBRANCH   5   8
ENDBRANCH   1   5
BRANCH   3  16
ATOM     16  C   UNL     1       8.785   0.154  22.532  0.00  0.00    +0.096 C 
BRANCH  16  17
ATOM     17  C   UNL     1       8.466   0.536  23.976  0.00  0.00    +0.009 C 
BRANCH  17  18
ATOM     18  C   UNL     1       9.596   0.148  24.934  0.00  0.00    +0.004 C 
BRANCH  18  19
ATOM     19  C   UNL     1       9.053  -0.522  26.195  0.00  0.00    +0.027 C 
BRANCH  19  20
ATOM     20  C   UNL     1       7.565  -0.706  26.102  0.00  0.00    -0.031 C 
ATOM     21  C   UNL     1       6.888  -1.665  26.754  0.00  0.00    -0.028 C 
BRANCH  21  22
ATOM     22  C   UNL     1       5.397  -1.855  26.661  0.00  0.00    +0.005 C 
ATOM     23  C   UNL     1       4.963  -3.055  27.501  0.00  0.00    +0.011 C 
ATOM     24  C   UNL     1       4.982  -2.040  25.201  0.00  0.00    +0.011 C 
ENDBRANCH  21  22
ENDBRANCH  19  20
ENDBRANCH  18  19
ENDBRANCH  17  18
ENDBRANCH  16  17
ENDBRANCH   3  16
TORSDOF 10
ENDMDL
MODEL 3
REMARK VINA RESULT:      -5.8      2.344      8.099
REMARK  Name = 
REMARK  13 active torsions:
REMARK  status: ('A' for Active; 'I' for Inactive)
REMARK    1  A    between atoms: C_1  and  O_2
REMARK    2  A    between atoms: O_2  and  C_3
REMARK    3  A    between atoms: C_4  and  O_5
REMARK    4  A    between atoms: C_8  and  C_9
REMARK    5  A    between atoms: C_9  and  N_10
REMARK    6  A    between atoms: C_11  and  C_13
REMARK    7  A    between atoms: C_13  and  C_14
REMARK    8  A    between atoms: C_14  and  C_15
REMARK    9  A    between atoms: C_15  and  C_16
REMARK   10  A    between atoms: C_16  and  C_17
REMARK   11  A    between atoms: C_18  and  C_19
REMARK   12  A    between atoms: C_19  and  C_20
REMARK   13  A    between atoms: C_19  and  C_21
REMARK                            x       y       z     vdW  Elec       q    Type
REMARK                         _______ _______ _______ _____ _____    ______ ____
ROOT
ATOM      1  N   UNL     1       8.356  -2.041  23.141  0.00  0.00    -0.311 N 
ATOM      2  H   UNL     1       7.594  -1.435  23.412  0.00  0.00    +0.149 HD
ATOM      3  C   UNL     1       9.605  -1.514  22.910  0.00  0.00    +0.213 C 
ATOM      4  O   UNL     1      10.575  -2.195  22.595  0.00  0.00    -0.276 OA
ENDROOT
BRANCH   1   5
ATOM      5  C   UNL     1       8.082  -3.449  22.972  0.00  0.00    +0.139 C 
BRANCH   5   8
ATOM      6  C   UNL     1       6.715  -5.612  25.793  0.00  0.00    +0.162 A 
ATOM      7  C   UNL     1       6.853  -4.974  24.561  0.00  0.00    +0.054 A 
ATOM      8  C   UNL     1       7.967  -4.157  24.298  0.00  0.00    -0.027 A 
ATOM      9  C   UNL     1       8.930  -3.972  25.304  0.00  0.00    +0.009 A 
ATOM     10  C   UNL     1       8.785  -4.591  26.547  0.00  0.00    +0.049 A 
ATOM     11  C   UNL     1       7.679  -5.399  26.781  0.00  0.00    +0.158 A 
BRANCH   6  13
ATOM     12  C   UNL     1       4.410  -5.798  26.270  0.00  0.00    +0.277 C 
ATOM     13  O   UNL     1       5.677  -6.439  26.142  0.00  0.00    -0.491 OA
ENDBRANCH   6  13
BRANCH  11  14
ATOM     14  O   UNL     1       7.560  -5.995  28.005  0.00  0.00    -0.503 OA
ATOM     15  H   UNL     1       7.137  -5.322  28.575  0.00  0.00    +0.292 HD
ENDBRANCH  11  14
ENDBRANCH   5   8
ENDBRANCH   1   5
BRANCH   3  16
ATOM     16  C   UNL     1       9.686  -0.015  23.116  0.00  0.00    +0.096 C 
BRANCH  16  17
ATOM     17  C   UNL     1       9.773   0.746  21.796  0.00  0.00    +0.009 C 
BRANCH  17  18
ATOM     18  C   UNL     1       8.711   1.847  21.697  0.00  0.00    +0.004 C 
BRANCH  18  19
ATOM     19  C   UNL     1       8.171   2.225  23.076  0.00  0.00    +0.027 C 
BRANCH  19  20
ATOM     20  C   UNL     1       8.575   3.624  23.441  0.00  0.00    -0.031 C 
ATOM     21  C   UNL     1       9.839   3.993  23.705  0.00  0.00    -0.028 C 
BRANCH  21  22
ATOM     22  C   UNL     1      10.248   5.395  24.075  0.00  0.00    +0.005 C 
ATOM     23  C   UNL     1       9.304   6.408  23.430  0.00  0.00    +0.011 C 
ATOM     24  C   UNL     1      11.692   5.650  23.642  0.00  0.00    +0.011 C 
ENDBRANCH  21  22
ENDBRANCH  19  20
ENDBRANCH  18  19
ENDBRANCH  17  18
ENDBRANCH  16  17
ENDBRANCH   3  16
TORSDOF 10
ENDMDL
MODEL 4
REMARK VINA RESULT:      -5.7      1.792      3.033
REMARK  Name = 
REMARK  13 active torsions:
REMARK  status: ('A' for Active; 'I' for Inactive)
REMARK    1  A    between atoms: C_1  and  O_2
REMARK    2  A    between atoms: O_2  and  C_3
REMARK    3  A    between atoms: C_4  and  O_5
REMARK    4  A    between atoms: C_8  and  C_9
REMARK    5  A    between atoms: C_9  and  N_10
REMARK    6  A    between atoms: C_11  and  C_13
REMARK    7  A    between atoms: C_13  and  C_14
REMARK    8  A    between atoms: C_14  and  C_15
REMARK    9  A    between atoms: C_15  and  C_16
REMARK   10  A    between atoms: C_16  and  C_17
REMARK   11  A    between atoms: C_18  and  C_19
REMARK   12  A    between atoms: C_19  and  C_20
REMARK   13  A    between atoms: C_19  and  C_21
REMARK                            x       y       z     vdW  Elec       q    Type
REMARK                         _______ _______ _______ _____ _____    ______ ____
ROOT
ATOM      1  N   UNL     1       8.646  -3.690  23.396  0.00  0.00    -0.311 N 
ATOM      2  H   UNL     1       8.671  -3.581  22.391  0.00  0.00    +0.149 HD
ATOM      3  C   UNL     1       7.925  -4.717  23.958  0.00  0.00    +0.213 C 
ATOM      4  O   UNL     1       7.867  -4.915  25.167  0.00  0.00    -0.276 OA
ENDROOT
BRANCH   1   5
ATOM      5  C   UNL     1       9.351  -2.724  24.205  0.00  0.00    +0.139 C 
BRANCH   5   8
ATOM      6  C   UNL     1       9.979   0.972  23.531  0.00  0.00    +0.162 A 
ATOM      7  C   UNL     1       9.819  -0.246  24.193  0.00  0.00    +0.054 A 
ATOM      8  C   UNL     1       9.553  -1.424  23.471  0.00  0.00    -0.027 A 
ATOM      9  C   UNL     1       9.425  -1.353  22.074  0.00  0.00    +0.009 A 
ATOM     10  C   UNL     1       9.562  -0.132  21.409  0.00  0.00    +0.049 A 
ATOM     11  C   UNL     1       9.832   1.015  22.143  0.00  0.00    +0.158 A 
BRANCH   6  13
ATOM     12  C   UNL     1       9.116   2.887  24.607  0.00  0.00    +0.277 C 
ATOM     13  O   UNL     1      10.255   2.170  24.140  0.00  0.00    -0.491 OA
ENDBRANCH   6  13
BRANCH  11  14
ATOM     14  O   UNL     1       9.963   2.199  21.470  0.00  0.00    -0.503 OA
ATOM     15  H   UNL     1      10.759   2.621  21.851  0.00  0.00    +0.292 HD
ENDBRANCH  11  14
ENDBRANCH   5   8
ENDBRANCH   1   5
BRANCH   3  16
ATOM     16  C   UNL     1       7.236  -5.610  22.945  0.00  0.00    +0.096 C 
BRANCH  16  17
ATOM     17  C   UNL     1       5.722  -5.642  23.139  0.00  0.00    +0.009 C 
BRANCH  17  18
ATOM     18  C   UNL     1       5.094  -4.255  22.971  0.00  0.00    +0.004 C 
BRANCH  18  19
ATOM     19  C   UNL     1       4.229  -3.884  24.175  0.00  0.00    +0.027 C 
BRANCH  19  20
ATOM     20  C   UNL     1       4.777  -2.671  24.871  0.00  0.00    -0.031 C 
ATOM     21  C   UNL     1       5.698  -1.854  24.336  0.00  0.00    -0.028 C 
BRANCH  21  22
ATOM     22  C   UNL     1       6.251  -0.638  25.032  0.00  0.00    +0.005 C 
ATOM     23  C   UNL     1       5.455  -0.348  26.303  0.00  0.00    +0.011 C 
ATOM     24  C   UNL     1       6.220   0.565  24.089  0.00  0.00    +0.011 C 
ENDBRANCH  21  22
ENDBRANCH  19  20
ENDBRANCH  18  19
ENDBRANCH  17  18
ENDBRANCH  16  17
ENDBRANCH   3  16
TORSDOF 10
ENDMDL
MODEL 5
REMARK VINA RESULT:      -5.7      1.248      3.187
REMARK  Name = 
REMARK  13 active torsions:
REMARK  status: ('A' for Active; 'I' for Inactive)
REMARK    1  A    between atoms: C_1  and  O_2
REMARK    2  A    between atoms: O_2  and  C_3
REMARK    3  A    between atoms: C_4  and  O_5
REMARK    4  A    between atoms: C_8  and  C_9
REMARK    5  A    between atoms: C_9  and  N_10
REMARK    6  A    between atoms: C_11  and  C_13
REMARK    7  A    between atoms: C_13  and  C_14
REMARK    8  A    between atoms: C_14  and  C_15
REMARK    9  A    between atoms: C_15  and  C_16
REMARK   10  A    between atoms: C_16  and  C_17
REMARK   11  A    between atoms: C_18  and  C_19
REMARK   12  A    between atoms: C_19  and  C_20
REMARK   13  A    between atoms: C_19  and  C_21
REMARK                            x       y       z     vdW  Elec       q    Type
REMARK                         _______ _______ _______ _____ _____    ______ ____
ROOT
ATOM      1  N   UNL     1       7.585  -3.316  22.941  0.00  0.00    -0.311 N 
ATOM      2  H   UNL     1       6.956  -2.813  22.330  0.00  0.00    +0.149 HD
ATOM      3  C   UNL     1       7.668  -4.686  22.865  0.00  0.00    +0.213 C 
ATOM      4  O   UNL     1       8.420  -5.355  23.565  0.00  0.00    -0.276 OA
ENDROOT
BRANCH   1   5
ATOM      5  C   UNL     1       8.351  -2.561  23.905  0.00  0.00    +0.139 C 
BRANCH   5   8
ATOM      6  C   UNL     1       9.582   1.031  23.597  0.00  0.00    +0.162 A 
ATOM      7  C   UNL     1       9.112  -0.167  24.135  0.00  0.00    +0.054 A 
ATOM      8  C   UNL     1       8.890  -1.285  23.310  0.00  0.00    -0.027 A 
ATOM      9  C   UNL     1       9.125  -1.170  21.930  0.00  0.00    +0.009 A 
ATOM     10  C   UNL     1       9.574   0.033  21.384  0.00  0.00    +0.049 A 
ATOM     11  C   UNL     1       9.792   1.120  22.220  0.00  0.00    +0.158 A 
BRANCH   6  13
ATOM     12  C   UNL     1       8.692   2.859  24.797  0.00  0.00    +0.277 C 
ATOM     13  O   UNL     1       9.843   2.169  24.316  0.00  0.00    -0.491 OA
ENDBRANCH   6  13
BRANCH  11  14
ATOM     14  O   UNL     1      10.233   2.289  21.661  0.00  0.00    -0.503 OA
ATOM     15  H   UNL     1       9.869   2.995  22.231  0.00  0.00    +0.292 HD
ENDBRANCH  11  14
ENDBRANCH   5   8
ENDBRANCH   1   5
BRANCH   3  16
ATOM     16  C   UNL     1       6.769  -5.297  21.809  0.00  0.00    +0.096 C 
BRANCH  16  17
ATOM     17  C   UNL     1       5.893  -6.415  22.371  0.00  0.00    +0.009 C 
BRANCH  17  18
ATOM     18  C   UNL     1       4.718  -5.866  23.186  0.00  0.00    +0.004 C 
BRANCH  18  19
ATOM     19  C   UNL     1       4.440  -6.730  24.416  0.00  0.00    +0.027 C 
BRANCH  19  20
ATOM     20  C   UNL     1       5.268  -6.276  25.584  0.00  0.00    -0.031 C 
ATOM     21  C   UNL     1       5.584  -4.993  25.823  0.00  0.00    -0.028 C 
BRANCH  21  22
ATOM     22  C   UNL     1       6.416  -4.535  26.992  0.00  0.00    +0.005 C 
ATOM     23  C   UNL     1       7.812  -5.153  26.922  0.00  0.00    +0.011 C 
ATOM     24  C   UNL     1       5.727  -4.906  28.305  0.00  0.00    +0.011 C 
ENDBRANCH  21  22
ENDBRANCH  19  20
ENDBRANCH  18  19
ENDBRANCH  17  18
ENDBRANCH  16  17
ENDBRANCH   3  16
TORSDOF 10
ENDMDL
MODEL 6
REMARK VINA RESULT:      -5.7      3.142      8.196
REMARK  Name = 
REMARK  13 active torsions:
REMARK  status: ('A' for Active; 'I' for Inactive)
REMARK    1  A    between atoms: C_1  and  O_2
REMARK    2  A    between atoms: O_2  and  C_3
REMARK    3  A    between atoms: C_4  and  O_5
REMARK    4  A    between atoms: C_8  and  C_9
REMARK    5  A    between atoms: C_9  and  N_10
REMARK    6  A    between atoms: C_11  and  C_13
REMARK    7  A    between atoms: C_13  and  C_14
REMARK    8  A    between atoms: C_14  and  C_15
REMARK    9  A    between atoms: C_15  and  C_16
REMARK   10  A    between atoms: C_16  and  C_17
REMARK   11  A    between atoms: C_18  and  C_19
REMARK   12  A    between atoms: C_19  and  C_20
REMARK   13  A    between atoms: C_19  and  C_21
REMARK                            x       y       z     vdW  Elec       q    Type
REMARK                         _______ _______ _______ _____ _____    ______ ____
ROOT
ATOM      1  N   UNL     1       9.336  -1.987  24.593  0.00  0.00    -0.311 N 
ATOM      2  H   UNL     1       8.977  -1.305  25.248  0.00  0.00    +0.149 HD
ATOM      3  C   UNL     1      10.075  -1.577  23.509  0.00  0.00    +0.213 C 
ATOM      4  O   UNL     1      10.553  -2.352  22.688  0.00  0.00    -0.276 OA
ENDROOT
BRANCH   1   5
ATOM      5  C   UNL     1       9.020  -3.378  24.814  0.00  0.00    +0.139 C 
BRANCH   5   8
ATOM      6  C   UNL     1       6.157  -5.095  22.978  0.00  0.00    +0.162 A 
ATOM      7  C   UNL     1       7.433  -4.788  23.451  0.00  0.00    +0.054 A 
ATOM      8  C   UNL     1       7.629  -3.715  24.340  0.00  0.00    -0.027 A 
ATOM      9  C   UNL     1       6.523  -2.941  24.728  0.00  0.00    +0.009 A 
ATOM     10  C   UNL     1       5.248  -3.230  24.240  0.00  0.00    +0.049 A 
ATOM     11  C   UNL     1       5.078  -4.298  23.368  0.00  0.00    +0.158 A 
BRANCH   6  13
ATOM     12  C   UNL     1       6.239  -5.913  20.765  0.00  0.00    +0.277 C 
ATOM     13  O   UNL     1       5.859  -6.125  22.123  0.00  0.00    -0.491 OA
ENDBRANCH   6  13
BRANCH  11  14
ATOM     14  O   UNL     1       3.819  -4.563  22.905  0.00  0.00    -0.503 OA
ATOM     15  H   UNL     1       3.884  -4.479  21.933  0.00  0.00    +0.292 HD
ENDBRANCH  11  14
ENDBRANCH   5   8
ENDBRANCH   1   5
BRANCH   3  16
ATOM     16  C   UNL     1      10.279  -0.076  23.438  0.00  0.00    +0.096 C 
BRANCH  16  17
ATOM     17  C   UNL     1       9.801   0.510  22.112  0.00  0.00    +0.009 C 
BRANCH  17  18
ATOM     18  C   UNL     1      10.033   2.023  22.038  0.00  0.00    +0.004 C 
BRANCH  18  19
ATOM     19  C   UNL     1       9.641   2.713  23.343  0.00  0.00    +0.027 C 
BRANCH  19  20
ATOM     20  C   UNL     1      10.679   3.720  23.747  0.00  0.00    -0.031 C 
ATOM     21  C   UNL     1      11.708   4.087  22.967  0.00  0.00    -0.028 C 
BRANCH  21  22
ATOM     22  C   UNL     1      12.753   5.094  23.370  0.00  0.00    +0.005 C 
ATOM     23  C   UNL     1      12.133   6.173  24.256  0.00  0.00    +0.011 C 
ATOM     24  C   UNL     1      13.388   5.717  22.126  0.00  0.00    +0.011 C 
ENDBRANCH  21  22
ENDBRANCH  19  20
ENDBRANCH  18  19
ENDBRANCH  17  18
ENDBRANCH  16  17
ENDBRANCH   3  16
TORSDOF 10
ENDMDL
MODEL 7
REMARK VINA RESULT:      -5.6      2.540      8.284
REMARK  Name = 
REMARK  13 active torsions:
REMARK  status: ('A' for Active; 'I' for Inactive)
REMARK    1  A    between atoms: C_1  and  O_2
REMARK    2  A    between atoms: O_2  and  C_3
REMARK    3  A    between atoms: C_4  and  O_5
REMARK    4  A    between atoms: C_8  and  C_9
REMARK    5  A    between atoms: C_9  and  N_10
REMARK    6  A    between atoms: C_11  and  C_13
REMARK    7  A    between atoms: C_13  and  C_14
REMARK    8  A    between atoms: C_14  and  C_15
REMARK    9  A    between atoms: C_15  and  C_16
REMARK   10  A    between atoms: C_16  and  C_17
REMARK   11  A    between atoms: C_18  and  C_19
REMARK   12  A    between atoms: C_19  and  C_20
REMARK   13  A    between atoms: C_19  and  C_21
REMARK                            x       y       z     vdW  Elec       q    Type
REMARK                         _______ _______ _______ _____ _____    ______ ____
ROOT
ATOM      1  N   UNL     1       9.648  -1.709  22.909  0.00  0.00    -0.311 N 
ATOM      2  H   UNL     1       9.184  -1.992  22.055  0.00  0.00    +0.149 HD
ATOM      3  C   UNL     1      10.123  -0.426  23.040  0.00  0.00    +0.213 C 
ATOM      4  O   UNL     1      10.679  -0.015  24.052  0.00  0.00    -0.276 OA
ENDROOT
BRANCH   1   5
ATOM      5  C   UNL     1       9.820  -2.694  23.950  0.00  0.00    +0.139 C 
BRANCH   5   8
ATOM      6  C   UNL     1       7.313  -5.163  25.407  0.00  0.00    +0.162 A 
ATOM      7  C   UNL     1       8.418  -4.324  25.269  0.00  0.00    +0.054 A 
ATOM      8  C   UNL     1       8.602  -3.571  24.095  0.00  0.00    -0.027 A 
ATOM      9  C   UNL     1       7.669  -3.694  23.052  0.00  0.00    +0.009 A 
ATOM     10  C   UNL     1       6.574  -4.550  23.177  0.00  0.00    +0.049 A 
ATOM     11  C   UNL     1       6.409  -5.278  24.348  0.00  0.00    +0.158 A 
BRANCH   6  13
ATOM     12  C   UNL     1       6.528  -5.204  27.633  0.00  0.00    +0.277 C 
ATOM     13  O   UNL     1       7.035  -5.926  26.513  0.00  0.00    -0.491 OA
ENDBRANCH   6  13
BRANCH  11  14
ATOM     14  O   UNL     1       5.328  -6.109  24.448  0.00  0.00    -0.503 OA
ATOM     15  H   UNL     1       5.481  -6.807  23.781  0.00  0.00    +0.292 HD
ENDBRANCH  11  14
ENDBRANCH   5   8
ENDBRANCH   1   5
BRANCH   3  16
ATOM     16  C   UNL     1       9.867   0.450  21.830  0.00  0.00    +0.096 C 
BRANCH  16  17
ATOM     17  C   UNL     1       9.880   1.936  22.179  0.00  0.00    +0.009 C 
BRANCH  17  18
ATOM     18  C   UNL     1       8.550   2.394  22.787  0.00  0.00    +0.004 C 
BRANCH  18  19
ATOM     19  C   UNL     1       8.759   3.504  23.816  0.00  0.00    +0.027 C 
BRANCH  19  20
ATOM     20  C   UNL     1      10.140   4.084  23.700  0.00  0.00    -0.031 C 
ATOM     21  C   UNL     1      10.410   5.396  23.796  0.00  0.00    -0.028 C 
BRANCH  21  22
ATOM     22  C   UNL     1      11.793   5.982  23.678  0.00  0.00    +0.005 C 
ATOM     23  C   UNL     1      12.780   4.917  23.203  0.00  0.00    +0.011 C 
ATOM     24  C   UNL     1      12.232   6.564  25.021  0.00  0.00    +0.011 C 
ENDBRANCH  21  22
ENDBRANCH  19  20
ENDBRANCH  18  19
ENDBRANCH  17  18
ENDBRANCH  16  17
ENDBRANCH   3  16
TORSDOF 10
ENDMDL
MODEL 8
REMARK VINA RESULT:      -5.6      2.034      7.505
REMARK  Name = 
REMARK  13 active torsions:
REMARK  status: ('A' for Active; 'I' for Inactive)
REMARK    1  A    between atoms: C_1  and  O_2
REMARK    2  A    between atoms: O_2  and  C_3
REMARK    3  A    between atoms: C_4  and  O_5
REMARK    4  A    between atoms: C_8  and  C_9
REMARK    5  A    between atoms: C_9  and  N_10
REMARK    6  A    between atoms: C_11  and  C_13
REMARK    7  A    between atoms: C_13  and  C_14
REMARK    8  A    between atoms: C_14  and  C_15
REMARK    9  A    between atoms: C_15  and  C_16
REMARK   10  A    between atoms: C_16  and  C_17
REMARK   11  A    between atoms: C_18  and  C_19
REMARK   12  A    between atoms: C_19  and  C_20
REMARK   13  A    between atoms: C_19  and  C_21
REMARK                            x       y       z     vdW  Elec       q    Type
REMARK                         _______ _______ _______ _____ _____    ______ ____
ROOT
ATOM      1  N   UNL     1       7.816  -2.876  22.516  0.00  0.00    -0.311 N 
ATOM      2  H   UNL     1       8.617  -3.422  22.228  0.00  0.00    +0.149 HD
ATOM      3  C   UNL     1       7.871  -1.503  22.481  0.00  0.00    +0.213 C 
ATOM      4  O   UNL     1       6.931  -0.784  22.801  0.00  0.00    -0.276 OA
ENDROOT
BRANCH   1   5
ATOM      5  C   UNL     1       6.648  -3.578  22.992  0.00  0.00    +0.139 C 
BRANCH   5   8
ATOM      6  C   UNL     1       6.209  -5.843  26.023  0.00  0.00    +0.162 A 
ATOM      7  C   UNL     1       6.003  -5.226  24.789  0.00  0.00    +0.054 A 
ATOM      8  C   UNL     1       6.905  -4.258  24.312  0.00  0.00    -0.027 A 
ATOM      9  C   UNL     1       8.006  -3.901  25.109  0.00  0.00    +0.009 A 
ATOM     10  C   UNL     1       8.204  -4.499  26.354  0.00  0.00    +0.049 A 
ATOM     11  C   UNL     1       7.304  -5.458  26.800  0.00  0.00    +0.158 A 
BRANCH   6  13
ATOM     12  C   UNL     1       4.013  -6.479  26.610  0.00  0.00    +0.277 C 
ATOM     13  O   UNL     1       5.400  -6.807  26.568  0.00  0.00    -0.491 OA
ENDBRANCH   6  13
BRANCH  11  14
ATOM     14  O   UNL     1       7.520  -6.031  28.023  0.00  0.00    -0.503 OA
ATOM     15  H   UNL     1       6.933  -6.813  28.044  0.00  0.00    +0.292 HD
ENDBRANCH  11  14
ENDBRANCH   5   8
ENDBRANCH   1   5
BRANCH   3  16
ATOM     16  C   UNL     1       9.191  -0.955  21.975  0.00  0.00    +0.096 C 
BRANCH  16  17
ATOM     17  C   UNL     1      10.347  -1.263  22.923  0.00  0.00    +0.009 C 
BRANCH  17  18
ATOM     18  C   UNL     1      10.146  -0.619  24.299  0.00  0.00    +0.004 C 
BRANCH  18  19
ATOM     19  C   UNL     1      10.990   0.646  24.452  0.00  0.00    +0.027 C 
BRANCH  19  20
ATOM     20  C   UNL     1      10.140   1.875  24.301  0.00  0.00    -0.031 C 
ATOM     21  C   UNL     1       8.798   1.864  24.327  0.00  0.00    -0.028 C 
BRANCH  21  22
ATOM     22  C   UNL     1       7.942   3.094  24.173  0.00  0.00    +0.005 C 
ATOM     23  C   UNL     1       7.923   3.546  22.714  0.00  0.00    +0.011 C 
ATOM     24  C   UNL     1       8.463   4.211  25.077  0.00  0.00    +0.011 C 
ENDBRANCH  21  22
ENDBRANCH  19  20
ENDBRANCH  18  19
ENDBRANCH  17  18
ENDBRANCH  16  17
ENDBRANCH   3  16
TORSDOF 10
ENDMDL
MODEL 9
REMARK VINA RESULT:      -5.6      2.522      6.242
REMARK  Name = 
REMARK  13 active torsions:
REMARK  status: ('A' for Active; 'I' for Inactive)
REMARK    1  A    between atoms: C_1  and  O_2
REMARK    2  A    between atoms: O_2  and  C_3
REMARK    3  A    between atoms: C_4  and  O_5
REMARK    4  A    between atoms: C_8  and  C_9
REMARK    5  A    between atoms: C_9  and  N_10
REMARK    6  A    between atoms: C_11  and  C_13
REMARK    7  A    between atoms: C_13  and  C_14
REMARK    8  A    between atoms: C_14  and  C_15
REMARK    9  A    between atoms: C_15  and  C_16
REMARK   10  A    between atoms: C_16  and  C_17
REMARK   11  A    between atoms: C_18  and  C_19
REMARK   12  A    between atoms: C_19  and  C_20
REMARK   13  A    between atoms: C_19  and  C_21
REMARK                            x       y       z     vdW  Elec       q    Type
REMARK                         _______ _______ _______ _____ _____    ______ ____
ROOT
ATOM      1  N   UNL     1      10.012  -1.158  23.081  0.00  0.00    -0.311 N 
ATOM      2  H   UNL     1       9.930  -1.107  22.075  0.00  0.00    +0.149 HD
ATOM      3  C   UNL     1      10.348  -0.037  23.802  0.00  0.00    +0.213 C 
ATOM      4  O   UNL     1      10.449  -0.027  25.024  0.00  0.00    -0.276 OA
ENDROOT
BRANCH   1   5
ATOM      5  C   UNL     1       9.802  -2.437  23.719  0.00  0.00    +0.139 C 
BRANCH   5   8
ATOM      6  C   UNL     1       6.686  -4.621  23.880  0.00  0.00    +0.162 A 
ATOM      7  C   UNL     1       7.937  -4.075  24.165  0.00  0.00    +0.054 A 
ATOM      8  C   UNL     1       8.434  -2.992  23.417  0.00  0.00    -0.027 A 
ATOM      9  C   UNL     1       7.661  -2.482  22.361  0.00  0.00    +0.009 A 
ATOM     10  C   UNL     1       6.418  -3.040  22.057  0.00  0.00    +0.049 A 
ATOM     11  C   UNL     1       5.946  -4.104  22.814  0.00  0.00    +0.158 A 
BRANCH   6  13
ATOM     12  C   UNL     1       6.139  -5.555  25.978  0.00  0.00    +0.277 C 
ATOM     13  O   UNL     1       6.107  -5.664  24.558  0.00  0.00    -0.491 OA
ENDBRANCH   6  13
BRANCH  11  14
ATOM     14  O   UNL     1       4.724  -4.633  22.499  0.00  0.00    -0.503 OA
ATOM     15  H   UNL     1       4.590  -5.361  23.138  0.00  0.00    +0.292 HD
ENDBRANCH  11  14
ENDBRANCH   5   8
ENDBRANCH   1   5
BRANCH   3  16
ATOM     16  C   UNL     1      10.550   1.201  22.951  0.00  0.00    +0.096 C 
BRANCH  16  17
ATOM     17  C   UNL     1       9.484   1.338  21.867  0.00  0.00    +0.009 C 
BRANCH  17  18
ATOM     18  C   UNL     1       8.296   2.184  22.335  0.00  0.00    +0.004 C 
BRANCH  18  19
ATOM     19  C   UNL     1       7.038   1.334  22.507  0.00  0.00    +0.027 C 
BRANCH  19  20
ATOM     20  C   UNL     1       6.978   0.743  23.886  0.00  0.00    -0.031 C 
ATOM     21  C   UNL     1       5.950   0.011  24.343  0.00  0.00    -0.028 C 
BRANCH  21  22
ATOM     22  C   UNL     1       5.885  -0.581  25.726  0.00  0.00    +0.005 C 
ATOM     23  C   UNL     1       7.293  -0.861  26.248  0.00  0.00    +0.011 C 
ATOM     24  C   UNL     1       5.051  -1.862  25.710  0.00  0.00    +0.011 C 
ENDBRANCH  21  22
ENDBRANCH  19  20
ENDBRANCH  18  19
ENDBRANCH  17  18
ENDBRANCH  16  17
ENDBRANCH   3  16
TORSDOF 10
ENDMDL
