MODEL 1
REMARK VINA RESULT:      -3.6      0.000      0.000
REMARK  Name = 
REMARK  7 active torsions:
REMARK  status: ('A' for Active; 'I' for Inactive)
REMARK    1  A    between atoms: S_1  and  C_2
REMARK    2  A    between atoms: C_2  and  C_3
REMARK    3  A    between atoms: C_3  and  C_4
REMARK    4  A    between atoms: C_4  and  S_6
REMARK    5  A    between atoms: S_6  and  C_7
REMARK    6  A    between atoms: C_7  and  C_8
REMARK    7  A    between atoms: C_8  and  C_9
REMARK                            x       y       z     vdW  Elec       q    Type
REMARK                         _______ _______ _______ _____ _____    ______ ____
ROOT
ATOM      1  C   UNL     1       9.197  -2.738  23.513  0.00  0.00    +0.190 C 
ATOM      2  O   UNL     1       9.861  -3.519  24.181  0.00  0.00    -0.285 OA
ENDROOT
BRANCH   1   3
ATOM      3  C   UNL     1       9.543  -1.280  23.316  0.00  0.00    +0.097 C 
BRANCH   3   4
ATOM      4  C   UNL     1       9.827  -0.608  24.650  0.00  0.00    +0.074 C 
BRANCH   4   5
ATOM      5  S   UNL     1      10.783   0.916  24.380  0.00  0.00    -0.178 S 
ATOM      6  H   UNL     1      10.274   1.606  25.413  0.00  0.00    +0.102 HD
ENDBRANCH   4   5
ENDBRANCH   3   4
ENDBRANCH   1   3
BRANCH   1   7
ATOM      7  S   UNL     1       7.701  -3.228  22.720  0.00  0.00    -0.088 S 
BRANCH   7   8
ATOM      8  C   UNL     1       7.563  -4.932  23.341  0.00  0.00    +0.084 C 
BRANCH   8   9
ATOM      9  C   UNL     1       7.329  -5.863  22.159  0.00  0.00    +0.082 C 
BRANCH   9  10
ATOM     10  C   UNL     1       6.105  -5.475  21.373  0.00  0.00    +0.224 C 
ATOM     11  O   UNL     1       6.009  -5.547  20.153  0.00  0.00    -0.301 OA
ENDBRANCH   9  10
ENDBRANCH   8   9
ENDBRANCH   7   8
ENDBRANCH   1   7
TORSDOF 7
ENDMDL
MODEL 2
REMARK VINA RESULT:      -3.5      3.201      3.988
REMARK  Name = 
REMARK  7 active torsions:
REMARK  status: ('A' for Active; 'I' for Inactive)
REMARK    1  A    between atoms: S_1  and  C_2
REMARK    2  A    between atoms: C_2  and  C_3
REMARK    3  A    between atoms: C_3  and  C_4
REMARK    4  A    between atoms: C_4  and  S_6
REMARK    5  A    between atoms: S_6  and  C_7
REMARK    6  A    between atoms: C_7  and  C_8
REMARK    7  A    between atoms: C_8  and  C_9
REMARK                            x       y       z     vdW  Elec       q    Type
REMARK                         _______ _______ _______ _____ _____    ______ ____
ROOT
ATOM      1  C   UNL     1      10.135  -0.852  22.569  0.00  0.00    +0.190 C 
ATOM      2  O   UNL     1      10.752  -1.868  22.280  0.00  0.00    -0.285 OA
ENDROOT
BRANCH   1   3
ATOM      3  C   UNL     1       9.554   0.107  21.557  0.00  0.00    +0.097 C 
BRANCH   3   4
ATOM      4  C   UNL     1       9.699   1.545  22.030  0.00  0.00    +0.074 C 
BRANCH   4   5
ATOM      5  S   UNL     1       8.077   2.368  22.006  0.00  0.00    -0.178 S 
ATOM      6  H   UNL     1       8.044   2.689  23.309  0.00  0.00    +0.102 HD
ENDBRANCH   4   5
ENDBRANCH   3   4
ENDBRANCH   1   3
BRANCH   1   7
ATOM      7  S   UNL     1       9.885  -0.358  24.243  0.00  0.00    -0.088 S 
BRANCH   7   8
ATOM      8  C   UNL     1       8.326  -1.227  24.595  0.00  0.00    +0.084 C 
BRANCH   8   9
ATOM      9  C   UNL     1       8.627  -2.420  25.491  0.00  0.00    +0.082 C 
BRANCH   9  10
ATOM     10  C   UNL     1       8.890  -3.670  24.692  0.00  0.00    +0.224 C 
ATOM     11  O   UNL     1       9.991  -4.192  24.559  0.00  0.00    -0.301 OA
ENDBRANCH   9  10
ENDBRANCH   8   9
ENDBRANCH   7   8
ENDBRANCH   1   7
TORSDOF 7
ENDMDL
MODEL 3
REMARK VINA RESULT:      -3.5      2.523      2.897
REMARK  Name = 
REMARK  7 active torsions:
REMARK  status: ('A' for Active; 'I' for Inactive)
REMARK    1  A    between atoms: S_1  and  C_2
REMARK    2  A    between atoms: C_2  and  C_3
REMARK    3  A    between atoms: C_3  and  C_4
REMARK    4  A    between atoms: C_4  and  S_6
REMARK    5  A    between atoms: S_6  and  C_7
REMARK    6  A    between atoms: C_7  and  C_8
REMARK    7  A    between atoms: C_8  and  C_9
REMARK                            x       y       z     vdW  Elec       q    Type
REMARK                         _______ _______ _______ _____ _____    ______ ____
ROOT
ATOM      1  C   UNL     1       9.793  -1.681  23.123  0.00  0.00    +0.190 C 
ATOM      2  O   UNL     1      10.795  -1.843  22.441  0.00  0.00    -0.285 OA
ENDROOT
BRANCH   1   3
ATOM      3  C   UNL     1       9.785  -1.011  24.478  0.00  0.00    +0.097 C 
BRANCH   3   4
ATOM      4  C   UNL     1      10.541   0.307  24.433  0.00  0.00    +0.074 C 
BRANCH   4   5
ATOM      5  S   UNL     1       9.362   1.691  24.369  0.00  0.00    -0.178 S 
ATOM      6  H   UNL     1       8.797   1.363  23.196  0.00  0.00    +0.102 HD
ENDBRANCH   4   5
ENDBRANCH   3   4
ENDBRANCH   1   3
BRANCH   1   7
ATOM      7  S   UNL     1       8.211  -2.266  22.609  0.00  0.00    -0.088 S 
BRANCH   7   8
ATOM      8  C   UNL     1       7.678  -3.103  24.134  0.00  0.00    +0.084 C 
BRANCH   8   9
ATOM      9  C   UNL     1       7.869  -4.603  23.956  0.00  0.00    +0.082 C 
BRANCH   9  10
ATOM     10  C   UNL     1       8.949  -5.142  24.857  0.00  0.00    +0.224 C 
ATOM     11  O   UNL     1      10.116  -4.769  24.843  0.00  0.00    -0.301 OA
ENDBRANCH   9  10
ENDBRANCH   8   9
ENDBRANCH   7   8
ENDBRANCH   1   7
TORSDOF 7
ENDMDL
MODEL 4
REMARK VINA RESULT:      -3.5      2.023      2.313
REMARK  Name = 
REMARK  7 active torsions:
REMARK  status: ('A' for Active; 'I' for Inactive)
REMARK    1  A    between atoms: S_1  and  C_2
REMARK    2  A    between atoms: C_2  and  C_3
REMARK    3  A    between atoms: C_3  and  C_4
REMARK    4  A    between atoms: C_4  and  S_6
REMARK    5  A    between atoms: S_6  and  C_7
REMARK    6  A    between atoms: C_7  and  C_8
REMARK    7  A    between atoms: C_8  and  C_9
REMARK                            x       y       z     vdW  Elec       q    Type
REMARK                         _______ _______ _______ _____ _____    ______ ____
ROOT
ATOM      1  C   UNL     1       9.533  -1.398  22.083  0.00  0.00    +0.190 C 
ATOM      2  O   UNL     1      10.609  -1.852  22.445  0.00  0.00    -0.285 OA
ENDROOT
BRANCH   1   3
ATOM      3  C   UNL     1       9.375  -0.164  21.226  0.00  0.00    +0.097 C 
BRANCH   3   4
ATOM      4  C   UNL     1       9.727   1.089  22.012  0.00  0.00    +0.074 C 
BRANCH   4   5
ATOM      5  S   UNL     1       8.287   2.197  22.082  0.00  0.00    -0.178 S 
ATOM      6  H   UNL     1       8.361   2.469  23.395  0.00  0.00    +0.102 HD
ENDBRANCH   4   5
ENDBRANCH   3   4
ENDBRANCH   1   3
BRANCH   1   7
ATOM      7  S   UNL     1       8.003  -2.126  22.570  0.00  0.00    -0.088 S 
BRANCH   7   8
ATOM      8  C   UNL     1       8.610  -3.362  23.758  0.00  0.00    +0.084 C 
BRANCH   8   9
ATOM      9  C   UNL     1       7.818  -4.648  23.569  0.00  0.00    +0.082 C 
BRANCH   9  10
ATOM     10  C   UNL     1       7.234  -4.750  22.184  0.00  0.00    +0.224 C 
ATOM     11  O   UNL     1       7.206  -5.775  21.514  0.00  0.00    -0.301 OA
ENDBRANCH   9  10
ENDBRANCH   8   9
ENDBRANCH   7   8
ENDBRANCH   1   7
TORSDOF 7
ENDMDL
MODEL 5
REMARK VINA RESULT:      -3.5      2.654      5.456
REMARK  Name = 
REMARK  7 active torsions:
REMARK  status: ('A' for Active; 'I' for Inactive)
REMARK    1  A    between atoms: S_1  and  C_2
REMARK    2  A    between atoms: C_2  and  C_3
REMARK    3  A    between atoms: C_3  and  C_4
REMARK    4  A    between atoms: C_4  and  S_6
REMARK    5  A    between atoms: S_6  and  C_7
REMARK    6  A    between atoms: C_7  and  C_8
REMARK    7  A    between atoms: C_8  and  C_9
REMARK                            x       y       z     vdW  Elec       q    Type
REMARK                         _______ _______ _______ _____ _____    ______ ____
ROOT
ATOM      1  C   UNL     1       9.165  -3.346  24.226  0.00  0.00    +0.190 C 
ATOM      2  O   UNL     1      10.072  -4.123  24.490  0.00  0.00    -0.285 OA
ENDROOT
BRANCH   1   3
ATOM      3  C   UNL     1       7.744  -3.766  23.930  0.00  0.00    +0.097 C 
BRANCH   3   4
ATOM      4  C   UNL     1       7.674  -5.252  23.617  0.00  0.00    +0.074 C 
BRANCH   4   5
ATOM      5  S   UNL     1       7.015  -5.498  21.940  0.00  0.00    -0.178 S 
ATOM      6  H   UNL     1       7.396  -4.310  21.445  0.00  0.00    +0.102 HD
ENDBRANCH   4   5
ENDBRANCH   3   4
ENDBRANCH   1   3
BRANCH   1   7
ATOM      7  S   UNL     1       9.431  -1.606  24.116  0.00  0.00    -0.088 S 
BRANCH   7   8
ATOM      8  C   UNL     1      10.297  -1.525  22.518  0.00  0.00    +0.084 C 
BRANCH   8   9
ATOM      9  C   UNL     1       9.723  -0.368  21.712  0.00  0.00    +0.082 C 
BRANCH   9  10
ATOM     10  C   UNL     1       9.874   0.947  22.431  0.00  0.00    +0.224 C 
ATOM     11  O   UNL     1      10.261   1.985  21.907  0.00  0.00    -0.301 OA
ENDBRANCH   9  10
ENDBRANCH   8   9
ENDBRANCH   7   8
ENDBRANCH   1   7
TORSDOF 7
ENDMDL
MODEL 6
REMARK VINA RESULT:      -3.5      1.992      2.902
REMARK  Name = 
REMARK  7 active torsions:
REMARK  status: ('A' for Active; 'I' for Inactive)
REMARK    1  A    between atoms: S_1  and  C_2
REMARK    2  A    between atoms: C_2  and  C_3
REMARK    3  A    between atoms: C_3  and  C_4
REMARK    4  A    between atoms: C_4  and  S_6
REMARK    5  A    between atoms: S_6  and  C_7
REMARK    6  A    between atoms: C_7  and  C_8
REMARK    7  A    between atoms: C_8  and  C_9
REMARK                            x       y       z     vdW  Elec       q    Type
REMARK                         _______ _______ _______ _____ _____    ______ ____
ROOT
ATOM      1  C   UNL     1       9.018  -3.027  24.181  0.00  0.00    +0.190 C 
ATOM      2  O   UNL     1      10.163  -3.436  24.051  0.00  0.00    -0.285 OA
ENDROOT
BRANCH   1   3
ATOM      3  C   UNL     1       8.308  -2.892  25.508  0.00  0.00    +0.097 C 
BRANCH   3   4
ATOM      4  C   UNL     1       8.738  -3.992  26.465  0.00  0.00    +0.074 C 
BRANCH   4   5
ATOM      5  S   UNL     1       7.397  -5.207  26.651  0.00  0.00    -0.178 S 
ATOM      6  H   UNL     1       7.943  -5.889  27.670  0.00  0.00    +0.102 HD
ENDBRANCH   4   5
ENDBRANCH   3   4
ENDBRANCH   1   3
BRANCH   1   7
ATOM      7  S   UNL     1       8.026  -2.578  22.794  0.00  0.00    -0.088 S 
BRANCH   7   8
ATOM      8  C   UNL     1       6.695  -3.807  22.952  0.00  0.00    +0.084 C 
BRANCH   8   9
ATOM      9  C   UNL     1       7.289  -5.195  22.755  0.00  0.00    +0.082 C 
BRANCH   9  10
ATOM     10  C   UNL     1       6.883  -5.797  21.435  0.00  0.00    +0.224 C 
ATOM     11  O   UNL     1       5.978  -5.372  20.725  0.00  0.00    -0.301 OA
ENDBRANCH   9  10
ENDBRANCH   8   9
ENDBRANCH   7   8
ENDBRANCH   1   7
TORSDOF 7
ENDMDL
MODEL 7
REMARK VINA RESULT:      -3.4      2.856      5.673
REMARK  Name = 
REMARK  7 active torsions:
REMARK  status: ('A' for Active; 'I' for Inactive)
REMARK    1  A    between atoms: S_1  and  C_2
REMARK    2  A    between atoms: C_2  and  C_3
REMARK    3  A    between atoms: C_3  and  C_4
REMARK    4  A    between atoms: C_4  and  S_6
REMARK    5  A    between atoms: S_6  and  C_7
REMARK    6  A    between atoms: C_7  and  C_8
REMARK    7  A    between atoms: C_8  and  C_9
REMARK                            x       y       z     vdW  Elec       q    Type
REMARK                         _______ _______ _______ _____ _____    ______ ____
ROOT
ATOM      1  C   UNL     1       9.631  -1.789  23.064  0.00  0.00    +0.190 C 
ATOM      2  O   UNL     1      10.650  -1.823  22.388  0.00  0.00    -0.285 OA
ENDROOT
BRANCH   1   3
ATOM      3  C   UNL     1       8.377  -2.572  22.753  0.00  0.00    +0.097 C 
BRANCH   3   4
ATOM      4  C   UNL     1       8.239  -3.764  23.688  0.00  0.00    +0.074 C 
BRANCH   4   5
ATOM      5  S   UNL     1       7.319  -5.095  22.857  0.00  0.00    -0.178 S 
ATOM      6  H   UNL     1       7.487  -4.644  21.604  0.00  0.00    +0.102 HD
ENDBRANCH   4   5
ENDBRANCH   3   4
ENDBRANCH   1   3
BRANCH   1   7
ATOM      7  S   UNL     1       9.493  -0.761  24.490  0.00  0.00    -0.088 S 
BRANCH   7   8
ATOM      8  C   UNL     1      10.811   0.442  24.136  0.00  0.00    +0.084 C 
BRANCH   8   9
ATOM      9  C   UNL     1      10.173   1.726  23.625  0.00  0.00    +0.082 C 
BRANCH   9  10
ATOM     10  C   UNL     1      10.018   1.719  22.127  0.00  0.00    +0.224 C 
ATOM     11  O   UNL     1       9.004   1.368  21.534  0.00  0.00    -0.301 OA
ENDBRANCH   9  10
ENDBRANCH   8   9
ENDBRANCH   7   8
ENDBRANCH   1   7
TORSDOF 7
ENDMDL
MODEL 8
REMARK VINA RESULT:      -3.4      2.170      3.807
REMARK  Name = 
REMARK  7 active torsions:
REMARK  status: ('A' for Active; 'I' for Inactive)
REMARK    1  A    between atoms: S_1  and  C_2
REMARK    2  A    between atoms: C_2  and  C_3
REMARK    3  A    between atoms: C_3  and  C_4
REMARK    4  A    between atoms: C_4  and  S_6
REMARK    5  A    between atoms: S_6  and  C_7
REMARK    6  A    between atoms: C_7  and  C_8
REMARK    7  A    between atoms: C_8  and  C_9
REMARK                            x       y       z     vdW  Elec       q    Type
REMARK                         _______ _______ _______ _____ _____    ______ ____
ROOT
ATOM      1  C   UNL     1       6.464  -3.648  22.225  0.00  0.00    +0.190 C 
ATOM      2  O   UNL     1       5.609  -3.717  21.353  0.00  0.00    -0.285 OA
ENDROOT
BRANCH   1   3
ATOM      3  C   UNL     1       7.026  -2.353  22.763  0.00  0.00    +0.097 C 
BRANCH   3   4
ATOM      4  C   UNL     1       8.464  -2.157  22.307  0.00  0.00    +0.074 C 
BRANCH   4   5
ATOM      5  S   UNL     1       9.474  -1.554  23.695  0.00  0.00    -0.178 S 
ATOM      6  H   UNL     1       9.613  -0.295  23.252  0.00  0.00    +0.102 HD
ENDBRANCH   4   5
ENDBRANCH   3   4
ENDBRANCH   1   3
BRANCH   1   7
ATOM      7  S   UNL     1       7.185  -5.088  22.941  0.00  0.00    -0.088 S 
BRANCH   7   8
ATOM      8  C   UNL     1       6.627  -4.895  24.661  0.00  0.00    +0.084 C 
BRANCH   8   9
ATOM      9  C   UNL     1       7.843  -4.644  25.542  0.00  0.00    +0.082 C 
BRANCH   9  10
ATOM     10  C   UNL     1       9.066  -5.355  25.025  0.00  0.00    +0.224 C 
ATOM     11  O   UNL     1      10.190  -4.867  24.986  0.00  0.00    -0.301 OA
ENDBRANCH   9  10
ENDBRANCH   8   9
ENDBRANCH   7   8
ENDBRANCH   1   7
TORSDOF 7
ENDMDL
MODEL 9
REMARK VINA RESULT:      -3.3      2.658      5.455
REMARK  Name = 
REMARK  7 active torsions:
REMARK  status: ('A' for Active; 'I' for Inactive)
REMARK    1  A    between atoms: S_1  and  C_2
REMARK    2  A    between atoms: C_2  and  C_3
REMARK    3  A    between atoms: C_3  and  C_4
REMARK    4  A    between atoms: C_4  and  S_6
REMARK    5  A    between atoms: S_6  and  C_7
REMARK    6  A    between atoms: C_7  and  C_8
REMARK    7  A    between atoms: C_8  and  C_9
REMARK                            x       y       z     vdW  Elec       q    Type
REMARK                         _______ _______ _______ _____ _____    ______ ____
ROOT
ATOM      1  C   UNL     1       9.322  -2.997  23.938  0.00  0.00    +0.190 C 
ATOM      2  O   UNL     1      10.013  -3.876  24.435  0.00  0.00    -0.285 OA
ENDROOT
BRANCH   1   3
ATOM      3  C   UNL     1       7.906  -3.202  23.451  0.00  0.00    +0.097 C 
BRANCH   3   4
ATOM      4  C   UNL     1       7.579  -4.683  23.348  0.00  0.00    +0.074 C 
BRANCH   4   5
ATOM      5  S   UNL     1       6.400  -5.146  24.654  0.00  0.00    -0.178 S 
ATOM      6  H   UNL     1       5.289  -5.037  23.908  0.00  0.00    +0.102 HD
ENDBRANCH   4   5
ENDBRANCH   3   4
ENDBRANCH   1   3
BRANCH   1   7
ATOM      7  S   UNL     1       9.932  -1.362  23.686  0.00  0.00    -0.088 S 
BRANCH   7   8
ATOM      8  C   UNL     1       8.704  -0.752  22.491  0.00  0.00    +0.084 C 
BRANCH   8   9
ATOM      9  C   UNL     1       9.424   0.064  21.427  0.00  0.00    +0.082 C 
BRANCH   9  10
ATOM     10  C   UNL     1       9.417   1.536  21.749  0.00  0.00    +0.224 C 
ATOM     11  O   UNL     1      10.301   2.118  22.367  0.00  0.00    -0.301 OA
ENDBRANCH   9  10
ENDBRANCH   8   9
ENDBRANCH   7   8
ENDBRANCH   1   7
TORSDOF 7
ENDMDL
