MODEL 1
REMARK VINA RESULT:      -7.4      0.000      0.000
REMARK  Name = 
REMARK  7 active torsions:
REMARK  status: ('A' for Active; 'I' for Inactive)
REMARK    1  A    between atoms: C_2  and  C_3
REMARK    2  A    between atoms: C_2  and  N_4
REMARK    3  A    between atoms: C_2  and  C_21
REMARK    4  A    between atoms: C_5  and  C_6
REMARK    5  A    between atoms: C_9  and  O_10
REMARK    6  A    between atoms: O_10  and  C_11
REMARK    7  A    between atoms: C_11  and  C_12
REMARK                            x       y       z     vdW  Elec       q    Type
REMARK                         _______ _______ _______ _____ _____    ______ ____
ROOT
ATOM      1  C   UNL     1      10.152   1.581  23.329  0.00  0.00    -0.007 A 
ATOM      2  C   UNL     1      10.240   0.867  24.528  0.00  0.00    +0.013 A 
ATOM      3  C   UNL     1      10.187  -0.530  24.503  0.00  0.00    +0.046 A 
ATOM      4  C   UNL     1      10.039  -1.209  23.292  0.00  0.00    +0.121 A 
ATOM      5  C   UNL     1       9.905  -0.481  22.104  0.00  0.00    +0.046 A 
ATOM      6  C   UNL     1       9.983   0.911  22.119  0.00  0.00    +0.013 A 
ENDROOT
BRANCH   1   8
ATOM      7  N   UNL     1      11.358   3.674  23.397  0.00  0.00    -0.279 NA
ATOM      8  C   UNL     1      10.234   3.049  23.299  0.00  0.00    +0.113 C 
BRANCH   7   9
ATOM      9  C   UNL     1      11.208   5.152  23.359  0.00  0.00    +0.187 C 
ATOM     10  C   UNL     1      10.070   5.542  24.291  0.00  0.00    +0.042 C 
BRANCH   9  11
ATOM     11  C   UNL     1      12.522   5.775  23.842  0.00  0.00    +0.235 C 
ATOM     12  O   UNL     1      12.635   6.405  24.888  0.00  0.00    -0.274 OA
ATOM     13  N   UNL     1      13.595   5.541  23.027  0.00  0.00    -0.328 N 
ATOM     14  H   UNL     1      14.462   6.014  23.229  0.00  0.00    +0.145 HD
ATOM     15  H   UNL     1      13.397   5.231  22.080  0.00  0.00    +0.145 HD
ENDBRANCH   9  11
ENDBRANCH   7   9
ENDBRANCH   1   8
BRANCH   4  16
ATOM     16  O   UNL     1      10.039  -2.574  23.376  0.00  0.00    -0.487 OA
BRANCH  16  17
ATOM     17  C   UNL     1       9.005  -3.135  24.188  0.00  0.00    +0.264 C 
BRANCH  17  18
ATOM     18  C   UNL     1       7.919  -3.695  23.309  0.00  0.00    -0.008 A 
ATOM     19  C   UNL     1       6.995  -2.848  22.678  0.00  0.00    +0.007 A 
ATOM     20  C   UNL     1       6.009  -3.374  21.839  0.00  0.00    +0.003 A 
ATOM     21  C   UNL     1       5.938  -4.748  21.625  0.00  0.00    +0.038 A 
ATOM     22  C   UNL     1       6.847  -5.587  22.257  0.00  0.00    +0.124 A 
ATOM     23  F   UNL     1       6.781  -6.909  22.049  0.00  0.00    -0.205 F 
ATOM     24  C   UNL     1       7.831  -5.078  23.094  0.00  0.00    +0.045 A 
ENDBRANCH  17  18
ENDBRANCH  16  17
ENDBRANCH   4  16
TORSDOF 6
ENDMDL
MODEL 2
REMARK VINA RESULT:      -7.0      4.573      9.052
REMARK  Name = 
REMARK  7 active torsions:
REMARK  status: ('A' for Active; 'I' for Inactive)
REMARK    1  A    between atoms: C_2  and  C_3
REMARK    2  A    between atoms: C_2  and  N_4
REMARK    3  A    between atoms: C_2  and  C_21
REMARK    4  A    between atoms: C_5  and  C_6
REMARK    5  A    between atoms: C_9  and  O_10
REMARK    6  A    between atoms: O_10  and  C_11
REMARK    7  A    between atoms: C_11  and  C_12
REMARK                            x       y       z     vdW  Elec       q    Type
REMARK                         _______ _______ _______ _____ _____    ______ ____
ROOT
ATOM      1  C   UNL     1       8.951  -1.732  23.216  0.00  0.00    -0.007 A 
ATOM      2  C   UNL     1       9.331  -0.856  24.237  0.00  0.00    +0.013 A 
ATOM      3  C   UNL     1       9.737   0.443  23.915  0.00  0.00    +0.046 A 
ATOM      4  C   UNL     1       9.771   0.861  22.583  0.00  0.00    +0.121 A 
ATOM      5  C   UNL     1       9.434  -0.040  21.566  0.00  0.00    +0.046 A 
ATOM      6  C   UNL     1       9.003  -1.328  21.883  0.00  0.00    +0.013 A 
ENDROOT
BRANCH   1   8
ATOM      7  N   UNL     1       7.909  -3.402  24.617  0.00  0.00    -0.279 NA
ATOM      8  C   UNL     1       8.488  -3.097  23.505  0.00  0.00    +0.113 C 
BRANCH   7   9
ATOM      9  C   UNL     1       7.537  -4.838  24.706  0.00  0.00    +0.187 C 
ATOM     10  C   UNL     1       7.904  -5.510  23.390  0.00  0.00    +0.042 C 
BRANCH   9  11
ATOM     11  C   UNL     1       8.331  -5.465  25.856  0.00  0.00    +0.235 C 
ATOM     12  O   UNL     1       7.840  -5.773  26.936  0.00  0.00    -0.274 OA
ATOM     13  N   UNL     1       9.648  -5.701  25.575  0.00  0.00    -0.328 N 
ATOM     14  H   UNL     1      10.250  -6.008  26.323  0.00  0.00    +0.145 HD
ATOM     15  H   UNL     1      10.044  -5.216  24.775  0.00  0.00    +0.145 HD
ENDBRANCH   9  11
ENDBRANCH   7   9
ENDBRANCH   1   8
BRANCH   4  16
ATOM     16  O   UNL     1      10.144   2.162  22.381  0.00  0.00    -0.487 OA
BRANCH  16  17
ATOM     17  C   UNL     1       9.466   3.123  23.193  0.00  0.00    +0.264 C 
BRANCH  17  18
ATOM     18  C   UNL     1      10.411   4.241  23.549  0.00  0.00    -0.008 A 
ATOM     19  C   UNL     1       9.963   5.360  24.265  0.00  0.00    +0.007 A 
ATOM     20  C   UNL     1      10.853   6.379  24.618  0.00  0.00    +0.003 A 
ATOM     21  C   UNL     1      12.195   6.287  24.256  0.00  0.00    +0.038 A 
ATOM     22  C   UNL     1      12.636   5.182  23.539  0.00  0.00    +0.124 A 
ATOM     23  F   UNL     1      13.927   5.091  23.192  0.00  0.00    -0.205 F 
ATOM     24  C   UNL     1      11.762   4.164  23.181  0.00  0.00    +0.045 A 
ENDBRANCH  17  18
ENDBRANCH  16  17
ENDBRANCH   4  16
TORSDOF 6
ENDMDL
MODEL 3
REMARK VINA RESULT:      -6.8      4.669      9.308
REMARK  Name = 
REMARK  7 active torsions:
REMARK  status: ('A' for Active; 'I' for Inactive)
REMARK    1  A    between atoms: C_2  and  C_3
REMARK    2  A    between atoms: C_2  and  N_4
REMARK    3  A    between atoms: C_2  and  C_21
REMARK    4  A    between atoms: C_5  and  C_6
REMARK    5  A    between atoms: C_9  and  O_10
REMARK    6  A    between atoms: O_10  and  C_11
REMARK    7  A    between atoms: C_11  and  C_12
REMARK                            x       y       z     vdW  Elec       q    Type
REMARK                         _______ _______ _______ _____ _____    ______ ____
ROOT
ATOM      1  C   UNL     1       8.676  -1.759  23.365  0.00  0.00    -0.007 A 
ATOM      2  C   UNL     1       9.042  -0.892  24.399  0.00  0.00    +0.013 A 
ATOM      3  C   UNL     1       9.562   0.368  24.089  0.00  0.00    +0.046 A 
ATOM      4  C   UNL     1       9.723   0.757  22.757  0.00  0.00    +0.121 A 
ATOM      5  C   UNL     1       9.397  -0.138  21.731  0.00  0.00    +0.046 A 
ATOM      6  C   UNL     1       8.854  -1.387  22.033  0.00  0.00    +0.013 A 
ENDROOT
BRANCH   1   8
ATOM      7  N   UNL     1       7.684  -3.858  22.693  0.00  0.00    -0.279 NA
ATOM      8  C   UNL     1       8.096  -3.083  23.639  0.00  0.00    +0.113 C 
BRANCH   7   9
ATOM      9  C   UNL     1       7.121  -5.139  23.194  0.00  0.00    +0.187 C 
ATOM     10  C   UNL     1       7.008  -5.053  24.709  0.00  0.00    +0.042 C 
BRANCH   9  11
ATOM     11  C   UNL     1       5.733  -5.323  22.572  0.00  0.00    +0.235 C 
ATOM     12  O   UNL     1       5.164  -4.466  21.906  0.00  0.00    -0.274 OA
ATOM     13  N   UNL     1       5.176  -6.555  22.781  0.00  0.00    -0.328 N 
ATOM     14  H   UNL     1       4.221  -6.704  22.493  0.00  0.00    +0.145 HD
ATOM     15  H   UNL     1       5.574  -7.122  23.522  0.00  0.00    +0.145 HD
ENDBRANCH   9  11
ENDBRANCH   7   9
ENDBRANCH   1   8
BRANCH   4  16
ATOM     16  O   UNL     1      10.202   2.024  22.565  0.00  0.00    -0.487 OA
BRANCH  16  17
ATOM     17  C   UNL     1       9.493   3.055  23.256  0.00  0.00    +0.264 C 
BRANCH  17  18
ATOM     18  C   UNL     1      10.430   4.191  23.568  0.00  0.00    -0.008 A 
ATOM     19  C   UNL     1       9.974   5.337  24.236  0.00  0.00    +0.007 A 
ATOM     20  C   UNL     1      10.856   6.374  24.549  0.00  0.00    +0.003 A 
ATOM     21  C   UNL     1      12.200   6.274  24.196  0.00  0.00    +0.038 A 
ATOM     22  C   UNL     1      12.650   5.143  23.527  0.00  0.00    +0.124 A 
ATOM     23  F   UNL     1      13.943   5.045  23.190  0.00  0.00    -0.205 F 
ATOM     24  C   UNL     1      11.783   4.106  23.209  0.00  0.00    +0.045 A 
ENDBRANCH  17  18
ENDBRANCH  16  17
ENDBRANCH   4  16
TORSDOF 6
ENDMDL
MODEL 4
REMARK VINA RESULT:      -6.7      1.707      2.312
REMARK  Name = 
REMARK  7 active torsions:
REMARK  status: ('A' for Active; 'I' for Inactive)
REMARK    1  A    between atoms: C_2  and  C_3
REMARK    2  A    between atoms: C_2  and  N_4
REMARK    3  A    between atoms: C_2  and  C_21
REMARK    4  A    between atoms: C_5  and  C_6
REMARK    5  A    between atoms: C_9  and  O_10
REMARK    6  A    between atoms: O_10  and  C_11
REMARK    7  A    between atoms: C_11  and  C_12
REMARK                            x       y       z     vdW  Elec       q    Type
REMARK                         _______ _______ _______ _____ _____    ______ ____
ROOT
ATOM      1  C   UNL     1      10.183   1.594  23.068  0.00  0.00    -0.007 A 
ATOM      2  C   UNL     1      10.305   0.955  24.305  0.00  0.00    +0.013 A 
ATOM      3  C   UNL     1      10.167  -0.434  24.379  0.00  0.00    +0.046 A 
ATOM      4  C   UNL     1       9.902  -1.179  23.228  0.00  0.00    +0.121 A 
ATOM      5  C   UNL     1       9.735  -0.523  22.003  0.00  0.00    +0.046 A 
ATOM      6  C   UNL     1       9.897   0.860  21.918  0.00  0.00    +0.013 A 
ENDROOT
BRANCH   1   8
ATOM      7  N   UNL     1      10.993   3.748  23.806  0.00  0.00    -0.279 NA
ATOM      8  C   UNL     1      10.350   3.049  22.933  0.00  0.00    +0.113 C 
BRANCH   7   9
ATOM      9  C   UNL     1      11.027   5.198  23.482  0.00  0.00    +0.187 C 
ATOM     10  C   UNL     1      10.100   5.926  24.444  0.00  0.00    +0.042 C 
BRANCH   9  11
ATOM     11  C   UNL     1      12.466   5.692  23.661  0.00  0.00    +0.235 C 
ATOM     12  O   UNL     1      13.388   5.395  22.911  0.00  0.00    -0.274 OA
ATOM     13  N   UNL     1      12.647   6.540  24.718  0.00  0.00    -0.328 N 
ATOM     14  H   UNL     1      13.589   6.813  24.958  0.00  0.00    +0.145 HD
ATOM     15  H   UNL     1      11.922   6.557  25.428  0.00  0.00    +0.145 HD
ENDBRANCH   9  11
ENDBRANCH   7   9
ENDBRANCH   1   8
BRANCH   4  16
ATOM     16  O   UNL     1       9.825  -2.534  23.404  0.00  0.00    -0.487 OA
BRANCH  16  17
ATOM     17  C   UNL     1       8.523  -3.098  23.229  0.00  0.00    +0.264 C 
BRANCH  17  18
ATOM     18  C   UNL     1       8.159  -3.914  24.441  0.00  0.00    -0.008 A 
ATOM     19  C   UNL     1       8.999  -3.949  25.563  0.00  0.00    +0.007 A 
ATOM     20  C   UNL     1       8.638  -4.684  26.697  0.00  0.00    +0.003 A 
ATOM     21  C   UNL     1       7.437  -5.389  26.715  0.00  0.00    +0.038 A 
ATOM     22  C   UNL     1       6.610  -5.361  25.600  0.00  0.00    +0.124 A 
ATOM     23  F   UNL     1       5.453  -6.038  25.617  0.00  0.00    -0.205 F 
ATOM     24  C   UNL     1       6.957  -4.636  24.468  0.00  0.00    +0.045 A 
ENDBRANCH  17  18
ENDBRANCH  16  17
ENDBRANCH   4  16
TORSDOF 6
ENDMDL
MODEL 5
REMARK VINA RESULT:      -6.7      5.049      8.941
REMARK  Name = 
REMARK  7 active torsions:
REMARK  status: ('A' for Active; 'I' for Inactive)
REMARK    1  A    between atoms: C_2  and  C_3
REMARK    2  A    between atoms: C_2  and  N_4
REMARK    3  A    between atoms: C_2  and  C_21
REMARK    4  A    between atoms: C_5  and  C_6
REMARK    5  A    between atoms: C_9  and  O_10
REMARK    6  A    between atoms: O_10  and  C_11
REMARK    7  A    between atoms: C_11  and  C_12
REMARK                            x       y       z     vdW  Elec       q    Type
REMARK                         _______ _______ _______ _____ _____    ______ ____
ROOT
ATOM      1  C   UNL     1       7.305  -4.038  24.472  0.00  0.00    -0.007 A 
ATOM      2  C   UNL     1       7.026  -3.621  23.167  0.00  0.00    +0.013 A 
ATOM      3  C   UNL     1       7.974  -2.868  22.468  0.00  0.00    +0.046 A 
ATOM      4  C   UNL     1       9.188  -2.529  23.069  0.00  0.00    +0.121 A 
ATOM      5  C   UNL     1       9.436  -2.912  24.392  0.00  0.00    +0.046 A 
ATOM      6  C   UNL     1       8.506  -3.684  25.086  0.00  0.00    +0.013 A 
ENDROOT
BRANCH   1   8
ATOM      7  N   UNL     1       6.103  -4.629  26.484  0.00  0.00    -0.279 NA
ATOM      8  C   UNL     1       6.354  -4.857  25.238  0.00  0.00    +0.113 C 
BRANCH   7   9
ATOM      9  C   UNL     1       5.125  -5.585  27.065  0.00  0.00    +0.187 C 
ATOM     10  C   UNL     1       4.863  -6.683  26.044  0.00  0.00    +0.042 C 
BRANCH   9  11
ATOM     11  C   UNL     1       5.741  -6.182  28.334  0.00  0.00    +0.235 C 
ATOM     12  O   UNL     1       6.351  -5.526  29.171  0.00  0.00    -0.274 OA
ATOM     13  N   UNL     1       5.524  -7.523  28.494  0.00  0.00    -0.328 N 
ATOM     14  H   UNL     1       5.995  -7.998  29.249  0.00  0.00    +0.145 HD
ATOM     15  H   UNL     1       5.231  -8.045  27.674  0.00  0.00    +0.145 HD
ENDBRANCH   9  11
ENDBRANCH   7   9
ENDBRANCH   1   8
BRANCH   4  16
ATOM     16  O   UNL     1      10.060  -1.825  22.283  0.00  0.00    -0.487 OA
BRANCH  16  17
ATOM     17  C   UNL     1       9.459  -0.851  21.426  0.00  0.00    +0.264 C 
BRANCH  17  18
ATOM     18  C   UNL     1       9.441   0.487  22.117  0.00  0.00    -0.008 A 
ATOM     19  C   UNL     1      10.345   0.775  23.150  0.00  0.00    +0.007 A 
ATOM     20  C   UNL     1      10.342   2.030  23.765  0.00  0.00    +0.003 A 
ATOM     21  C   UNL     1       9.434   3.004  23.354  0.00  0.00    +0.038 A 
ATOM     22  C   UNL     1       8.534   2.715  22.337  0.00  0.00    +0.124 A 
ATOM     23  F   UNL     1       7.663   3.652  21.939  0.00  0.00    -0.205 F 
ATOM     24  C   UNL     1       8.526   1.472  21.718  0.00  0.00    +0.045 A 
ENDBRANCH  17  18
ENDBRANCH  16  17
ENDBRANCH   4  16
TORSDOF 6
ENDMDL
MODEL 6
REMARK VINA RESULT:      -6.6      2.421      3.167
REMARK  Name = 
REMARK  7 active torsions:
REMARK  status: ('A' for Active; 'I' for Inactive)
REMARK    1  A    between atoms: C_2  and  C_3
REMARK    2  A    between atoms: C_2  and  N_4
REMARK    3  A    between atoms: C_2  and  C_21
REMARK    4  A    between atoms: C_5  and  C_6
REMARK    5  A    between atoms: C_9  and  O_10
REMARK    6  A    between atoms: O_10  and  C_11
REMARK    7  A    between atoms: C_11  and  C_12
REMARK                            x       y       z     vdW  Elec       q    Type
REMARK                         _______ _______ _______ _____ _____    ______ ____
ROOT
ATOM      1  C   UNL     1      10.044   2.138  23.343  0.00  0.00    -0.007 A 
ATOM      2  C   UNL     1       9.921   1.553  22.079  0.00  0.00    +0.013 A 
ATOM      3  C   UNL     1       9.949   0.160  21.959  0.00  0.00    +0.046 A 
ATOM      4  C   UNL     1      10.105  -0.642  23.091  0.00  0.00    +0.121 A 
ATOM      5  C   UNL     1      10.275  -0.044  24.345  0.00  0.00    +0.046 A 
ATOM      6  C   UNL     1      10.222   1.344  24.475  0.00  0.00    +0.013 A 
ENDROOT
BRANCH   1   8
ATOM      7  N   UNL     1       9.167   4.153  24.348  0.00  0.00    -0.279 NA
ATOM      8  C   UNL     1       9.991   3.596  23.526  0.00  0.00    +0.113 C 
BRANCH   7   9
ATOM      9  C   UNL     1       9.272   5.636  24.363  0.00  0.00    +0.187 C 
ATOM     10  C   UNL     1      10.574   6.031  23.681  0.00  0.00    +0.042 C 
BRANCH   9  11
ATOM     11  C   UNL     1       8.078   6.204  23.589  0.00  0.00    +0.235 C 
ATOM     12  O   UNL     1       7.022   6.541  24.113  0.00  0.00    -0.274 OA
ATOM     13  N   UNL     1       8.291   6.353  22.246  0.00  0.00    -0.328 N 
ATOM     14  H   UNL     1       7.511   6.617  21.664  0.00  0.00    +0.145 HD
ATOM     15  H   UNL     1       9.072   5.846  21.843  0.00  0.00    +0.145 HD
ENDBRANCH   9  11
ENDBRANCH   7   9
ENDBRANCH   1   8
BRANCH   4  16
ATOM     16  O   UNL     1      10.078  -1.992  22.867  0.00  0.00    -0.487 OA
BRANCH  16  17
ATOM     17  C   UNL     1       8.781  -2.544  22.630  0.00  0.00    +0.264 C 
BRANCH  17  18
ATOM     18  C   UNL     1       8.419  -3.482  23.751  0.00  0.00    -0.008 A 
ATOM     19  C   UNL     1       7.175  -4.130  23.773  0.00  0.00    +0.007 A 
ATOM     20  C   UNL     1       6.858  -5.023  24.801  0.00  0.00    +0.003 A 
ATOM     21  C   UNL     1       7.781  -5.272  25.814  0.00  0.00    +0.038 A 
ATOM     22  C   UNL     1       9.008  -4.623  25.797  0.00  0.00    +0.124 A 
ATOM     23  F   UNL     1       9.897  -4.864  26.770  0.00  0.00    -0.205 F 
ATOM     24  C   UNL     1       9.335  -3.734  24.782  0.00  0.00    +0.045 A 
ENDBRANCH  17  18
ENDBRANCH  16  17
ENDBRANCH   4  16
TORSDOF 6
ENDMDL
MODEL 7
REMARK VINA RESULT:      -6.6      5.607     10.027
REMARK  Name = 
REMARK  7 active torsions:
REMARK  status: ('A' for Active; 'I' for Inactive)
REMARK    1  A    between atoms: C_2  and  C_3
REMARK    2  A    between atoms: C_2  and  N_4
REMARK    3  A    between atoms: C_2  and  C_21
REMARK    4  A    between atoms: C_5  and  C_6
REMARK    5  A    between atoms: C_9  and  O_10
REMARK    6  A    between atoms: O_10  and  C_11
REMARK    7  A    between atoms: C_11  and  C_12
REMARK                            x       y       z     vdW  Elec       q    Type
REMARK                         _______ _______ _______ _____ _____    ______ ____
ROOT
ATOM      1  C   UNL     1       4.995  -4.499  23.220  0.00  0.00    -0.007 A 
ATOM      2  C   UNL     1       5.211  -3.166  23.580  0.00  0.00    +0.013 A 
ATOM      3  C   UNL     1       6.494  -2.622  23.465  0.00  0.00    +0.046 A 
ATOM      4  C   UNL     1       7.553  -3.404  23.001  0.00  0.00    +0.121 A 
ATOM      5  C   UNL     1       7.333  -4.751  22.689  0.00  0.00    +0.046 A 
ATOM      6  C   UNL     1       6.051  -5.293  22.777  0.00  0.00    +0.013 A 
ENDROOT
BRANCH   1   8
ATOM      7  N   UNL     1       3.370  -6.023  24.160  0.00  0.00    -0.279 NA
ATOM      8  C   UNL     1       3.658  -5.110  23.295  0.00  0.00    +0.113 C 
BRANCH   7   9
ATOM      9  C   UNL     1       1.971  -6.510  24.048  0.00  0.00    +0.187 C 
ATOM     10  C   UNL     1       1.290  -5.756  22.915  0.00  0.00    +0.042 C 
BRANCH   9  11
ATOM     11  C   UNL     1       2.013  -8.009  23.733  0.00  0.00    +0.235 C 
ATOM     12  O   UNL     1       2.339  -8.868  24.544  0.00  0.00    -0.274 OA
ATOM     13  N   UNL     1       1.613  -8.334  22.466  0.00  0.00    -0.328 N 
ATOM     14  H   UNL     1       1.723  -9.289  22.160  0.00  0.00    +0.145 HD
ATOM     15  H   UNL     1       1.589  -7.585  21.782  0.00  0.00    +0.145 HD
ENDBRANCH   9  11
ENDBRANCH   7   9
ENDBRANCH   1   8
BRANCH   4  16
ATOM     16  O   UNL     1       8.757  -2.763  22.889  0.00  0.00    -0.487 OA
BRANCH  16  17
ATOM     17  C   UNL     1       8.836  -1.795  21.840  0.00  0.00    +0.264 C 
BRANCH  17  18
ATOM     18  C   UNL     1       9.471  -0.534  22.363  0.00  0.00    -0.008 A 
ATOM     19  C   UNL     1       9.413   0.659  21.628  0.00  0.00    +0.007 A 
ATOM     20  C   UNL     1       9.978   1.833  22.134  0.00  0.00    +0.003 A 
ATOM     21  C   UNL     1      10.605   1.822  23.378  0.00  0.00    +0.038 A 
ATOM     22  C   UNL     1      10.670   0.639  24.102  0.00  0.00    +0.124 A 
ATOM     23  F   UNL     1      11.271   0.628  25.300  0.00  0.00    -0.205 F 
ATOM     24  C   UNL     1      10.113  -0.534  23.610  0.00  0.00    +0.045 A 
ENDBRANCH  17  18
ENDBRANCH  16  17
ENDBRANCH   4  16
TORSDOF 6
ENDMDL
MODEL 8
REMARK VINA RESULT:      -6.5      1.805      2.449
REMARK  Name = 
REMARK  7 active torsions:
REMARK  status: ('A' for Active; 'I' for Inactive)
REMARK    1  A    between atoms: C_2  and  C_3
REMARK    2  A    between atoms: C_2  and  N_4
REMARK    3  A    between atoms: C_2  and  C_21
REMARK    4  A    between atoms: C_5  and  C_6
REMARK    5  A    between atoms: C_9  and  O_10
REMARK    6  A    between atoms: O_10  and  C_11
REMARK    7  A    between atoms: C_11  and  C_12
REMARK                            x       y       z     vdW  Elec       q    Type
REMARK                         _______ _______ _______ _____ _____    ______ ____
ROOT
ATOM      1  C   UNL     1      10.062   2.113  23.339  0.00  0.00    -0.007 A 
ATOM      2  C   UNL     1       9.790   1.548  22.090  0.00  0.00    +0.013 A 
ATOM      3  C   UNL     1       9.797   0.157  21.948  0.00  0.00    +0.046 A 
ATOM      4  C   UNL     1      10.081  -0.663  23.042  0.00  0.00    +0.121 A 
ATOM      5  C   UNL     1      10.397  -0.083  24.276  0.00  0.00    +0.046 A 
ATOM      6  C   UNL     1      10.367   1.302  24.431  0.00  0.00    +0.013 A 
ENDROOT
BRANCH   1   8
ATOM      7  N   UNL     1       9.217   4.128  24.371  0.00  0.00    -0.279 NA
ATOM      8  C   UNL     1      10.036   3.569  23.547  0.00  0.00    +0.113 C 
BRANCH   7   9
ATOM      9  C   UNL     1       9.351   5.608  24.414  0.00  0.00    +0.187 C 
ATOM     10  C   UNL     1      10.660   5.989  23.738  0.00  0.00    +0.042 C 
BRANCH   9  11
ATOM     11  C   UNL     1       8.169   6.214  23.652  0.00  0.00    +0.235 C 
ATOM     12  O   UNL     1       8.171   6.429  22.446  0.00  0.00    -0.274 OA
ATOM     13  N   UNL     1       7.067   6.468  24.423  0.00  0.00    -0.328 N 
ATOM     14  H   UNL     1       6.297   6.968  24.007  0.00  0.00    +0.145 HD
ATOM     15  H   UNL     1       7.203   6.497  25.429  0.00  0.00    +0.145 HD
ENDBRANCH   9  11
ENDBRANCH   7   9
ENDBRANCH   1   8
BRANCH   4  16
ATOM     16  O   UNL     1      10.022  -2.009  22.804  0.00  0.00    -0.487 OA
BRANCH  16  17
ATOM     17  C   UNL     1       9.372  -2.780  23.817  0.00  0.00    +0.264 C 
BRANCH  17  18
ATOM     18  C   UNL     1       8.043  -3.270  23.305  0.00  0.00    -0.008 A 
ATOM     19  C   UNL     1       7.052  -2.365  22.897  0.00  0.00    +0.007 A 
ATOM     20  C   UNL     1       5.833  -2.828  22.394  0.00  0.00    +0.003 A 
ATOM     21  C   UNL     1       5.596  -4.198  22.296  0.00  0.00    +0.038 A 
ATOM     22  C   UNL     1       6.575  -5.093  22.708  0.00  0.00    +0.124 A 
ATOM     23  F   UNL     1       6.349  -6.410  22.611  0.00  0.00    -0.205 F 
ATOM     24  C   UNL     1       7.790  -4.645  23.210  0.00  0.00    +0.045 A 
ENDBRANCH  17  18
ENDBRANCH  16  17
ENDBRANCH   4  16
TORSDOF 6
ENDMDL
MODEL 9
REMARK VINA RESULT:      -6.4      4.522      9.131
REMARK  Name = 
REMARK  7 active torsions:
REMARK  status: ('A' for Active; 'I' for Inactive)
REMARK    1  A    between atoms: C_2  and  C_3
REMARK    2  A    between atoms: C_2  and  N_4
REMARK    3  A    between atoms: C_2  and  C_21
REMARK    4  A    between atoms: C_5  and  C_6
REMARK    5  A    between atoms: C_9  and  O_10
REMARK    6  A    between atoms: O_10  and  C_11
REMARK    7  A    between atoms: C_11  and  C_12
REMARK                            x       y       z     vdW  Elec       q    Type
REMARK                         _______ _______ _______ _____ _____    ______ ____
ROOT
ATOM      1  C   UNL     1       9.178  -2.043  23.912  0.00  0.00    -0.007 A 
ATOM      2  C   UNL     1       9.163  -1.286  25.087  0.00  0.00    +0.013 A 
ATOM      3  C   UNL     1       9.769  -0.026  25.102  0.00  0.00    +0.046 A 
ATOM      4  C   UNL     1      10.391   0.471  23.955  0.00  0.00    +0.121 A 
ATOM      5  C   UNL     1      10.440  -0.317  22.799  0.00  0.00    +0.046 A 
ATOM      6  C   UNL     1       9.816  -1.563  22.770  0.00  0.00    +0.013 A 
ENDROOT
BRANCH   1   8
ATOM      7  N   UNL     1       7.777  -3.697  22.843  0.00  0.00    -0.279 NA
ATOM      8  C   UNL     1       8.528  -3.360  23.837  0.00  0.00    +0.113 C 
BRANCH   7   9
ATOM      9  C   UNL     1       7.211  -5.065  22.978  0.00  0.00    +0.187 C 
ATOM     10  C   UNL     1       6.547  -5.176  24.343  0.00  0.00    +0.042 C 
BRANCH   9  11
ATOM     11  C   UNL     1       6.172  -5.260  21.869  0.00  0.00    +0.235 C 
ATOM     12  O   UNL     1       5.749  -4.353  21.162  0.00  0.00    -0.274 OA
ATOM     13  N   UNL     1       5.769  -6.555  21.690  0.00  0.00    -0.328 N 
ATOM     14  H   UNL     1       5.008  -6.736  21.054  0.00  0.00    +0.145 HD
ATOM     15  H   UNL     1       5.964  -7.208  22.443  0.00  0.00    +0.145 HD
ENDBRANCH   9  11
ENDBRANCH   7   9
ENDBRANCH   1   8
BRANCH   4  16
ATOM     16  O   UNL     1      10.918   1.729  24.065  0.00  0.00    -0.487 OA
BRANCH  16  17
ATOM     17  C   UNL     1      10.418   2.683  23.126  0.00  0.00    +0.264 C 
BRANCH  17  18
ATOM     18  C   UNL     1      10.277   4.025  23.794  0.00  0.00    -0.008 A 
ATOM     19  C   UNL     1      11.271   5.005  23.657  0.00  0.00    +0.007 A 
ATOM     20  C   UNL     1      11.118   6.259  24.256  0.00  0.00    +0.003 A 
ATOM     21  C   UNL     1       9.972   6.541  24.997  0.00  0.00    +0.038 A 
ATOM     22  C   UNL     1       8.993   5.567  25.139  0.00  0.00    +0.124 A 
ATOM     23  F   UNL     1       7.889   5.838  25.849  0.00  0.00    -0.205 F 
ATOM     24  C   UNL     1       9.133   4.317  24.550  0.00  0.00    +0.045 A 
ENDBRANCH  17  18
ENDBRANCH  16  17
ENDBRANCH   4  16
TORSDOF 6
ENDMDL
