MODEL 1
REMARK VINA RESULT:      -7.1      0.000      0.000
REMARK  Name = 
REMARK  6 active torsions:
REMARK  status: ('A' for Active; 'I' for Inactive)
REMARK    1  A    between atoms: C_1  and  C_2
REMARK    2  A    between atoms: C_9  and  C_10
REMARK    3  A    between atoms: C_10  and  C_11
REMARK    4  A    between atoms: C_11  and  C_12
REMARK    5  A    between atoms: C_12  and  N_13
REMARK    6  A    between atoms: C_16  and  C_19
REMARK                            x       y       z     vdW  Elec       q    Type
REMARK                         _______ _______ _______ _____ _____    ______ ____
ROOT
ATOM      1  C   UNL     1       9.940   1.590  24.252  0.00  0.00    +0.023 C 
ENDROOT
BRANCH   1   2
ATOM      2  C   UNL     1      10.574   0.401  24.976  0.00  0.00    +0.075 C 
BRANCH   2   7
ATOM      3  C   UNL     1       9.562  -4.579  25.324  0.00  0.00    +0.046 C 
ATOM      4  C   UNL     1       8.371  -3.842  25.871  0.00  0.00    -0.024 A 
ATOM      5  C   UNL     1       8.388  -2.440  25.981  0.00  0.00    +0.081 A 
ATOM      6  N   UNL     1       9.495  -1.717  25.496  0.00  0.00    -0.233 NA
ATOM      7  C   UNL     1       9.470  -0.427  25.577  0.00  0.00    +0.110 A 
ATOM      8  N   UNL     1       8.435   0.273  26.129  0.00  0.00    -0.310 N 
ATOM      9  H   UNL     1       8.462   1.280  26.189  0.00  0.00    +0.170 HD
ATOM     10  C   UNL     1       7.321  -0.328  26.649  0.00  0.00    +0.259 A 
ATOM     11  O   UNL     1       6.417   0.322  27.162  0.00  0.00    -0.267 OA
ATOM     12  C   UNL     1       7.278  -1.795  26.539  0.00  0.00    +0.065 A 
ATOM     13  C   UNL     1       6.154  -2.507  26.967  0.00  0.00    +0.015 A 
ATOM     14  C   UNL     1       6.129  -3.890  26.823  0.00  0.00    +0.001 A 
ATOM     15  C   UNL     1       7.231  -4.554  26.281  0.00  0.00    +0.005 A 
ENDBRANCH   2   7
ENDBRANCH   1   2
BRANCH   1  16
ATOM     16  C   UNL     1      10.055   1.512  22.724  0.00  0.00    +0.085 C 
BRANCH  16  17
ATOM     17  N   UNL     1       9.095   0.628  22.055  0.00  0.00    -0.298 NA
ATOM     18  C   UNL     1       9.606  -0.693  21.728  0.00  0.00    +0.112 C 
ATOM     19  C   UNL     1       8.711  -1.862  21.903  0.00  0.00    -0.008 C 
ATOM     20  C   UNL     1       7.499  -1.826  22.470  0.00  0.00    -0.042 C 
ATOM     21  C   UNL     1       6.895  -0.514  22.876  0.00  0.00    +0.051 C 
ATOM     22  C   UNL     1       7.745   0.744  22.606  0.00  0.00    +0.089 C 
BRANCH  20  23
ATOM     23  C   UNL     1       6.758  -3.085  22.707  0.00  0.00    -0.022 A 
ATOM     24  C   UNL     1       7.323  -4.333  22.413  0.00  0.00    +0.011 A 
ATOM     25  C   UNL     1       6.618  -5.513  22.668  0.00  0.00    +0.039 A 
ATOM     26  C   UNL     1       5.340  -5.453  23.209  0.00  0.00    +0.123 A 
ATOM     27  F   UNL     1       4.677  -6.585  23.468  0.00  0.00    -0.205 F 
ATOM     28  C   UNL     1       4.745  -4.230  23.483  0.00  0.00    +0.039 A 
ATOM     29  C   UNL     1       5.447  -3.053  23.222  0.00  0.00    +0.011 A 
ENDBRANCH  20  23
ENDBRANCH  16  17
ENDBRANCH   1  16
TORSDOF 5
ENDMDL
MODEL 2
REMARK VINA RESULT:      -6.8      3.028      5.656
REMARK  Name = 
REMARK  6 active torsions:
REMARK  status: ('A' for Active; 'I' for Inactive)
REMARK    1  A    between atoms: C_1  and  C_2
REMARK    2  A    between atoms: C_9  and  C_10
REMARK    3  A    between atoms: C_10  and  C_11
REMARK    4  A    between atoms: C_11  and  C_12
REMARK    5  A    between atoms: C_12  and  N_13
REMARK    6  A    between atoms: C_16  and  C_19
REMARK                            x       y       z     vdW  Elec       q    Type
REMARK                         _______ _______ _______ _____ _____    ______ ____
ROOT
ATOM      1  C   UNL     1       4.196  -5.952  25.175  0.00  0.00    +0.023 C 
ENDROOT
BRANCH   1   2
ATOM      2  C   UNL     1       5.295  -6.372  26.152  0.00  0.00    +0.075 C 
BRANCH   2   7
ATOM      3  C   UNL     1       4.752  -1.339  26.724  0.00  0.00    +0.046 C 
ATOM      4  C   UNL     1       6.224  -1.619  26.604  0.00  0.00    -0.024 A 
ATOM      5  C   UNL     1       6.694  -2.942  26.515  0.00  0.00    +0.081 A 
ATOM      6  N   UNL     1       5.774  -4.005  26.453  0.00  0.00    -0.233 NA
ATOM      7  C   UNL     1       6.232  -5.208  26.335  0.00  0.00    +0.110 A 
ATOM      8  N   UNL     1       7.564  -5.506  26.291  0.00  0.00    -0.310 N 
ATOM      9  H   UNL     1       7.882  -6.461  26.217  0.00  0.00    +0.170 HD
ATOM     10  C   UNL     1       8.545  -4.554  26.366  0.00  0.00    +0.259 A 
ATOM     11  O   UNL     1       9.734  -4.849  26.350  0.00  0.00    -0.267 OA
ATOM     12  C   UNL     1       8.076  -3.161  26.453  0.00  0.00    +0.065 A 
ATOM     13  C   UNL     1       8.989  -2.103  26.456  0.00  0.00    +0.015 A 
ATOM     14  C   UNL     1       8.515  -0.796  26.508  0.00  0.00    +0.001 A 
ATOM     15  C   UNL     1       7.142  -0.555  26.584  0.00  0.00    +0.005 A 
ENDBRANCH   2   7
ENDBRANCH   1   2
BRANCH   1  16
ATOM     16  C   UNL     1       4.435  -6.430  23.737  0.00  0.00    +0.085 C 
BRANCH  16  17
ATOM     17  N   UNL     1       5.081  -5.464  22.842  0.00  0.00    -0.298 NA
ATOM     18  C   UNL     1       4.640  -4.089  23.006  0.00  0.00    +0.112 C 
ATOM     19  C   UNL     1       5.648  -3.005  22.919  0.00  0.00    -0.008 C 
ATOM     20  C   UNL     1       6.971  -3.191  22.834  0.00  0.00    -0.042 C 
ATOM     21  C   UNL     1       7.532  -4.575  22.695  0.00  0.00    +0.051 C 
ATOM     22  C   UNL     1       6.508  -5.728  22.665  0.00  0.00    +0.089 C 
BRANCH  20  23
ATOM     23  C   UNL     1       7.883  -2.026  22.886  0.00  0.00    -0.022 A 
ATOM     24  C   UNL     1       9.275  -2.185  22.863  0.00  0.00    +0.011 A 
ATOM     25  C   UNL     1      10.120  -1.071  22.887  0.00  0.00    +0.039 A 
ATOM     26  C   UNL     1       9.580   0.207  22.943  0.00  0.00    +0.123 A 
ATOM     27  F   UNL     1      10.392   1.269  22.947  0.00  0.00    -0.205 F 
ATOM     28  C   UNL     1       8.206   0.393  22.996  0.00  0.00    +0.039 A 
ATOM     29  C   UNL     1       7.364  -0.719  22.978  0.00  0.00    +0.011 A 
ENDBRANCH  20  23
ENDBRANCH  16  17
ENDBRANCH   1  16
TORSDOF 5
ENDMDL
MODEL 3
REMARK VINA RESULT:      -6.7      3.278      6.287
REMARK  Name = 
REMARK  6 active torsions:
REMARK  status: ('A' for Active; 'I' for Inactive)
REMARK    1  A    between atoms: C_1  and  C_2
REMARK    2  A    between atoms: C_9  and  C_10
REMARK    3  A    between atoms: C_10  and  C_11
REMARK    4  A    between atoms: C_11  and  C_12
REMARK    5  A    between atoms: C_12  and  N_13
REMARK    6  A    between atoms: C_16  and  C_19
REMARK                            x       y       z     vdW  Elec       q    Type
REMARK                         _______ _______ _______ _____ _____    ______ ____
ROOT
ATOM      1  C   UNL     1       4.917  -6.610  25.870  0.00  0.00    +0.023 C 
ENDROOT
BRANCH   1   2
ATOM      2  C   UNL     1       4.850  -6.682  24.344  0.00  0.00    +0.075 C 
BRANCH   2   7
ATOM      3  C   UNL     1       9.447  -4.927  25.663  0.00  0.00    +0.046 C 
ATOM      4  C   UNL     1       8.969  -4.100  24.502  0.00  0.00    -0.024 A 
ATOM      5  C   UNL     1       7.753  -4.402  23.863  0.00  0.00    +0.081 A 
ATOM      6  N   UNL     1       6.940  -5.434  24.367  0.00  0.00    -0.233 NA
ATOM      7  C   UNL     1       5.811  -5.668  23.782  0.00  0.00    +0.110 A 
ATOM      8  N   UNL     1       5.374  -4.981  22.684  0.00  0.00    -0.310 N 
ATOM      9  H   UNL     1       4.494  -5.206  22.245  0.00  0.00    +0.170 HD
ATOM     10  C   UNL     1       6.094  -3.975  22.098  0.00  0.00    +0.259 A 
ATOM     11  O   UNL     1       5.693  -3.392  21.098  0.00  0.00    -0.267 OA
ATOM     12  C   UNL     1       7.368  -3.637  22.755  0.00  0.00    +0.065 A 
ATOM     13  C   UNL     1       8.147  -2.575  22.289  0.00  0.00    +0.015 A 
ATOM     14  C   UNL     1       9.330  -2.258  22.948  0.00  0.00    +0.001 A 
ATOM     15  C   UNL     1       9.741  -3.017  24.046  0.00  0.00    +0.005 A 
ENDBRANCH   2   7
ENDBRANCH   1   2
BRANCH   1  16
ATOM     16  C   UNL     1       3.792  -5.776  26.497  0.00  0.00    +0.085 C 
BRANCH  16  17
ATOM     17  N   UNL     1       4.132  -4.387  26.821  0.00  0.00    -0.298 NA
ATOM     18  C   UNL     1       5.425  -4.206  27.458  0.00  0.00    +0.112 C 
ATOM     19  C   UNL     1       6.252  -3.039  27.067  0.00  0.00    -0.008 C 
ATOM     20  C   UNL     1       5.967  -2.195  26.068  0.00  0.00    -0.042 C 
ATOM     21  C   UNL     1       4.671  -2.317  25.323  0.00  0.00    +0.051 C 
ATOM     22  C   UNL     1       3.726  -3.449  25.774  0.00  0.00    +0.089 C 
BRANCH  20  23
ATOM     23  C   UNL     1       6.940  -1.144  25.691  0.00  0.00    -0.022 A 
ATOM     24  C   UNL     1       8.159  -0.999  26.367  0.00  0.00    +0.011 A 
ATOM     25  C   UNL     1       9.076  -0.018  25.980  0.00  0.00    +0.039 A 
ATOM     26  C   UNL     1       8.778   0.830  24.920  0.00  0.00    +0.123 A 
ATOM     27  F   UNL     1       9.667   1.753  24.541  0.00  0.00    -0.205 F 
ATOM     28  C   UNL     1       7.568   0.726  24.250  0.00  0.00    +0.039 A 
ATOM     29  C   UNL     1       6.650  -0.249  24.642  0.00  0.00    +0.011 A 
ENDBRANCH  20  23
ENDBRANCH  16  17
ENDBRANCH   1  16
TORSDOF 5
ENDMDL
MODEL 4
REMARK VINA RESULT:      -6.3      2.100      3.123
REMARK  Name = 
REMARK  6 active torsions:
REMARK  status: ('A' for Active; 'I' for Inactive)
REMARK    1  A    between atoms: C_1  and  C_2
REMARK    2  A    between atoms: C_9  and  C_10
REMARK    3  A    between atoms: C_10  and  C_11
REMARK    4  A    between atoms: C_11  and  C_12
REMARK    5  A    between atoms: C_12  and  N_13
REMARK    6  A    between atoms: C_16  and  C_19
REMARK                            x       y       z     vdW  Elec       q    Type
REMARK                         _______ _______ _______ _____ _____    ______ ____
ROOT
ATOM      1  C   UNL     1       9.432   3.296  24.211  0.00  0.00    +0.023 C 
ENDROOT
BRANCH   1   2
ATOM      2  C   UNL     1      10.591   2.399  23.772  0.00  0.00    +0.075 C 
BRANCH   2   7
ATOM      3  C   UNL     1       8.287  -0.304  27.424  0.00  0.00    +0.046 C 
ATOM      4  C   UNL     1       8.707  -1.269  26.350  0.00  0.00    -0.024 A 
ATOM      5  C   UNL     1       9.302  -0.804  25.164  0.00  0.00    +0.081 A 
ATOM      6  N   UNL     1       9.584   0.568  25.019  0.00  0.00    -0.233 NA
ATOM      7  C   UNL     1      10.165   0.965  23.934  0.00  0.00    +0.110 A 
ATOM      8  N   UNL     1      10.499   0.126  22.909  0.00  0.00    -0.310 N 
ATOM      9  H   UNL     1      10.936   0.478  22.069  0.00  0.00    +0.170 HD
ATOM     10  C   UNL     1      10.252  -1.220  22.934  0.00  0.00    +0.259 A 
ATOM     11  O   UNL     1      10.538  -1.947  21.990  0.00  0.00    -0.267 OA
ATOM     12  C   UNL     1       9.634  -1.731  24.169  0.00  0.00    +0.065 A 
ATOM     13  C   UNL     1       9.408  -3.100  24.336  0.00  0.00    +0.015 A 
ATOM     14  C   UNL     1       8.851  -3.557  25.526  0.00  0.00    +0.001 A 
ATOM     15  C   UNL     1       8.500  -2.648  26.526  0.00  0.00    +0.005 A 
ENDBRANCH   2   7
ENDBRANCH   1   2
BRANCH   1  16
ATOM     16  C   UNL     1       8.450   3.630  23.081  0.00  0.00    +0.085 C 
BRANCH  16  17
ATOM     17  N   UNL     1       7.276   2.758  22.976  0.00  0.00    -0.298 NA
ATOM     18  C   UNL     1       7.418   1.650  22.047  0.00  0.00    +0.112 C 
ATOM     19  C   UNL     1       6.851   0.332  22.422  0.00  0.00    -0.008 C 
ATOM     20  C   UNL     1       6.326   0.033  23.617  0.00  0.00    -0.042 C 
ATOM     21  C   UNL     1       6.165   1.100  24.659  0.00  0.00    +0.051 C 
ATOM     22  C   UNL     1       6.638   2.515  24.269  0.00  0.00    +0.089 C 
BRANCH  20  23
ATOM     23  C   UNL     1       5.912  -1.357  23.912  0.00  0.00    -0.022 A 
ATOM     24  C   UNL     1       6.116  -2.393  22.990  0.00  0.00    +0.011 A 
ATOM     25  C   UNL     1       5.742  -3.704  23.298  0.00  0.00    +0.039 A 
ATOM     26  C   UNL     1       5.154  -3.988  24.524  0.00  0.00    +0.123 A 
ATOM     27  F   UNL     1       4.816  -5.247  24.821  0.00  0.00    -0.205 F 
ATOM     28  C   UNL     1       4.916  -2.978  25.444  0.00  0.00    +0.039 A 
ATOM     29  C   UNL     1       5.283  -1.668  25.134  0.00  0.00    +0.011 A 
ENDBRANCH  20  23
ENDBRANCH  16  17
ENDBRANCH   1  16
TORSDOF 5
ENDMDL
MODEL 5
REMARK VINA RESULT:      -6.3      1.867      3.455
REMARK  Name = 
REMARK  6 active torsions:
REMARK  status: ('A' for Active; 'I' for Inactive)
REMARK    1  A    between atoms: C_1  and  C_2
REMARK    2  A    between atoms: C_9  and  C_10
REMARK    3  A    between atoms: C_10  and  C_11
REMARK    4  A    between atoms: C_11  and  C_12
REMARK    5  A    between atoms: C_12  and  N_13
REMARK    6  A    between atoms: C_16  and  C_19
REMARK                            x       y       z     vdW  Elec       q    Type
REMARK                         _______ _______ _______ _____ _____    ______ ____
ROOT
ATOM      1  C   UNL     1       8.674   1.646  21.477  0.00  0.00    +0.023 C 
ENDROOT
BRANCH   1   2
ATOM      2  C   UNL     1       7.462   2.257  22.182  0.00  0.00    +0.075 C 
BRANCH   2   7
ATOM      3  C   UNL     1       6.524  -2.747  22.036  0.00  0.00    +0.046 C 
ATOM      4  C   UNL     1       5.994  -2.231  23.345  0.00  0.00    -0.024 A 
ATOM      5  C   UNL     1       6.180  -0.886  23.710  0.00  0.00    +0.081 A 
ATOM      6  N   UNL     1       6.792   0.002  22.805  0.00  0.00    -0.233 NA
ATOM      7  C   UNL     1       6.919   1.242  23.151  0.00  0.00    +0.110 A 
ATOM      8  N   UNL     1       6.510   1.732  24.359  0.00  0.00    -0.310 N 
ATOM      9  H   UNL     1       6.644   2.704  24.598  0.00  0.00    +0.170 HD
ATOM     10  C   UNL     1       5.925   0.954  25.321  0.00  0.00    +0.259 A 
ATOM     11  O   UNL     1       5.592   1.413  26.407  0.00  0.00    -0.267 OA
ATOM     12  C   UNL     1       5.714  -0.457  24.958  0.00  0.00    +0.065 A 
ATOM     13  C   UNL     1       5.055  -1.324  25.834  0.00  0.00    +0.015 A 
ATOM     14  C   UNL     1       4.843  -2.645  25.452  0.00  0.00    +0.001 A 
ATOM     15  C   UNL     1       5.311  -3.097  24.217  0.00  0.00    +0.005 A 
ENDBRANCH   2   7
ENDBRANCH   1   2
BRANCH   1  16
ATOM     16  C   UNL     1       9.994   1.855  22.231  0.00  0.00    +0.085 C 
BRANCH  16  17
ATOM     17  N   UNL     1      10.464   0.715  23.024  0.00  0.00    -0.298 NA
ATOM     18  C   UNL     1      10.046   0.724  24.416  0.00  0.00    +0.112 C 
ATOM     19  C   UNL     1       9.650  -0.558  25.046  0.00  0.00    -0.008 C 
ATOM     20  C   UNL     1       9.513  -1.723  24.400  0.00  0.00    -0.042 C 
ATOM     21  C   UNL     1       9.886  -1.830  22.951  0.00  0.00    +0.051 C 
ATOM     22  C   UNL     1      10.414  -0.545  22.282  0.00  0.00    +0.089 C 
BRANCH  20  23
ATOM     23  C   UNL     1       8.983  -2.905  25.116  0.00  0.00    -0.022 A 
ATOM     24  C   UNL     1       8.372  -2.787  26.372  0.00  0.00    +0.011 A 
ATOM     25  C   UNL     1       7.855  -3.911  27.021  0.00  0.00    +0.039 A 
ATOM     26  C   UNL     1       7.952  -5.162  26.425  0.00  0.00    +0.123 A 
ATOM     27  F   UNL     1       7.438  -6.231  27.042  0.00  0.00    -0.205 F 
ATOM     28  C   UNL     1       8.576  -5.312  25.195  0.00  0.00    +0.039 A 
ATOM     29  C   UNL     1       9.098  -4.190  24.551  0.00  0.00    +0.011 A 
ENDBRANCH  20  23
ENDBRANCH  16  17
ENDBRANCH   1  16
TORSDOF 5
ENDMDL
MODEL 6
REMARK VINA RESULT:      -6.1      2.827      5.432
REMARK  Name = 
REMARK  6 active torsions:
REMARK  status: ('A' for Active; 'I' for Inactive)
REMARK    1  A    between atoms: C_1  and  C_2
REMARK    2  A    between atoms: C_9  and  C_10
REMARK    3  A    between atoms: C_10  and  C_11
REMARK    4  A    between atoms: C_11  and  C_12
REMARK    5  A    between atoms: C_12  and  N_13
REMARK    6  A    between atoms: C_16  and  C_19
REMARK                            x       y       z     vdW  Elec       q    Type
REMARK                         _______ _______ _______ _____ _____    ______ ____
ROOT
ATOM      1  C   UNL     1       4.966  -6.418  25.453  0.00  0.00    +0.023 C 
ENDROOT
BRANCH   1   2
ATOM      2  C   UNL     1       4.299  -5.496  26.474  0.00  0.00    +0.075 C 
BRANCH   2   7
ATOM      3  C   UNL     1       9.093  -3.779  26.341  0.00  0.00    +0.046 C 
ATOM      4  C   UNL     1       8.190  -2.579  26.421  0.00  0.00    -0.024 A 
ATOM      5  C   UNL     1       6.793  -2.734  26.391  0.00  0.00    +0.081 A 
ATOM      6  N   UNL     1       6.236  -4.026  26.372  0.00  0.00    -0.233 NA
ATOM      7  C   UNL     1       4.948  -4.141  26.381  0.00  0.00    +0.110 A 
ATOM      8  N   UNL     1       4.097  -3.073  26.386  0.00  0.00    -0.310 N 
ATOM      9  H   UNL     1       3.096  -3.204  26.374  0.00  0.00    +0.170 HD
ATOM     10  C   UNL     1       4.528  -1.774  26.382  0.00  0.00    +0.259 A 
ATOM     11  O   UNL     1       3.744  -0.833  26.359  0.00  0.00    -0.267 OA
ATOM     12  C   UNL     1       5.989  -1.588  26.419  0.00  0.00    +0.065 A 
ATOM     13  C   UNL     1       6.539  -0.306  26.497  0.00  0.00    +0.015 A 
ATOM     14  C   UNL     1       7.921  -0.162  26.562  0.00  0.00    +0.001 A 
ATOM     15  C   UNL     1       8.742  -1.290  26.522  0.00  0.00    +0.005 A 
ENDBRANCH   2   7
ENDBRANCH   1   2
BRANCH   1  16
ATOM     16  C   UNL     1       4.361  -6.318  24.046  0.00  0.00    +0.085 C 
BRANCH  16  17
ATOM     17  N   UNL     1       5.108  -5.500  23.086  0.00  0.00    -0.298 NA
ATOM     18  C   UNL     1       4.664  -4.120  22.984  0.00  0.00    +0.112 C 
ATOM     19  C   UNL     1       5.686  -3.055  22.837  0.00  0.00    -0.008 C 
ATOM     20  C   UNL     1       7.009  -3.242  22.924  0.00  0.00    -0.042 C 
ATOM     21  C   UNL     1       7.568  -4.626  23.065  0.00  0.00    +0.051 C 
ATOM     22  C   UNL     1       6.543  -5.778  23.107  0.00  0.00    +0.089 C 
BRANCH  20  23
ATOM     23  C   UNL     1       7.921  -2.076  22.891  0.00  0.00    -0.022 A 
ATOM     24  C   UNL     1       7.431  -0.763  22.894  0.00  0.00    +0.011 A 
ATOM     25  C   UNL     1       8.308   0.325  22.889  0.00  0.00    +0.039 A 
ATOM     26  C   UNL     1       9.680   0.109  22.872  0.00  0.00    +0.123 A 
ATOM     27  F   UNL     1      10.515   1.153  22.886  0.00  0.00    -0.205 F 
ATOM     28  C   UNL     1      10.192  -1.180  22.840  0.00  0.00    +0.039 A 
ATOM     29  C   UNL     1       9.316  -2.266  22.839  0.00  0.00    +0.011 A 
ENDBRANCH  20  23
ENDBRANCH  16  17
ENDBRANCH   1  16
TORSDOF 5
ENDMDL
MODEL 7
REMARK VINA RESULT:      -6.0      2.544      4.932
REMARK  Name = 
REMARK  6 active torsions:
REMARK  status: ('A' for Active; 'I' for Inactive)
REMARK    1  A    between atoms: C_1  and  C_2
REMARK    2  A    between atoms: C_9  and  C_10
REMARK    3  A    between atoms: C_10  and  C_11
REMARK    4  A    between atoms: C_11  and  C_12
REMARK    5  A    between atoms: C_12  and  N_13
REMARK    6  A    between atoms: C_16  and  C_19
REMARK                            x       y       z     vdW  Elec       q    Type
REMARK                         _______ _______ _______ _____ _____    ______ ____
ROOT
ATOM      1  C   UNL     1       6.633   4.117  26.760  0.00  0.00    +0.023 C 
ENDROOT
BRANCH   1   2
ATOM      2  C   UNL     1       7.946   4.383  26.022  0.00  0.00    +0.075 C 
BRANCH   2   7
ATOM      3  C   UNL     1      10.776   0.290  24.935  0.00  0.00    +0.046 C 
ATOM      4  C   UNL     1       9.960   0.606  23.713  0.00  0.00    -0.024 A 
ATOM      5  C   UNL     1       9.014   1.646  23.736  0.00  0.00    +0.081 A 
ATOM      6  N   UNL     1       8.892   2.451  24.884  0.00  0.00    -0.233 NA
ATOM      7  C   UNL     1       8.040   3.423  24.866  0.00  0.00    +0.110 A 
ATOM      8  N   UNL     1       7.233   3.698  23.798  0.00  0.00    -0.310 N 
ATOM      9  H   UNL     1       6.567   4.456  23.830  0.00  0.00    +0.170 HD
ATOM     10  C   UNL     1       7.252   2.967  22.641  0.00  0.00    +0.259 A 
ATOM     11  O   UNL     1       6.500   3.218  21.707  0.00  0.00    -0.267 OA
ATOM     12  C   UNL     1       8.240   1.876  22.592  0.00  0.00    +0.065 A 
ATOM     13  C   UNL     1       8.400   1.115  21.431  0.00  0.00    +0.015 A 
ATOM     14  C   UNL     1       9.363   0.111  21.403  0.00  0.00    +0.001 A 
ATOM     15  C   UNL     1      10.136  -0.144  22.537  0.00  0.00    +0.005 A 
ENDBRANCH   2   7
ENDBRANCH   1   2
BRANCH   1  16
ATOM     16  C   UNL     1       6.763   3.094  27.896  0.00  0.00    +0.085 C 
BRANCH  16  17
ATOM     17  N   UNL     1       6.354   1.724  27.571  0.00  0.00    -0.298 NA
ATOM     18  C   UNL     1       5.583   1.591  26.346  0.00  0.00    +0.112 C 
ATOM     19  C   UNL     1       5.844   0.425  25.468  0.00  0.00    -0.008 C 
ATOM     20  C   UNL     1       6.834  -0.460  25.637  0.00  0.00    -0.042 C 
ATOM     21  C   UNL     1       7.710  -0.389  26.853  0.00  0.00    +0.051 C 
ATOM     22  C   UNL     1       7.400   0.742  27.855  0.00  0.00    +0.089 C 
BRANCH  20  23
ATOM     23  C   UNL     1       7.071  -1.505  24.616  0.00  0.00    -0.022 A 
ATOM     24  C   UNL     1       8.053  -2.490  24.791  0.00  0.00    +0.011 A 
ATOM     25  C   UNL     1       8.244  -3.484  23.827  0.00  0.00    +0.039 A 
ATOM     26  C   UNL     1       7.462  -3.497  22.679  0.00  0.00    +0.123 A 
ATOM     27  F   UNL     1       7.636  -4.461  21.770  0.00  0.00    -0.205 F 
ATOM     28  C   UNL     1       6.501  -2.518  22.468  0.00  0.00    +0.039 A 
ATOM     29  C   UNL     1       6.316  -1.522  23.427  0.00  0.00    +0.011 A 
ENDBRANCH  20  23
ENDBRANCH  16  17
ENDBRANCH   1  16
TORSDOF 5
ENDMDL
MODEL 8
REMARK VINA RESULT:      -5.9      2.408      3.945
REMARK  Name = 
REMARK  6 active torsions:
REMARK  status: ('A' for Active; 'I' for Inactive)
REMARK    1  A    between atoms: C_1  and  C_2
REMARK    2  A    between atoms: C_9  and  C_10
REMARK    3  A    between atoms: C_10  and  C_11
REMARK    4  A    between atoms: C_11  and  C_12
REMARK    5  A    between atoms: C_12  and  N_13
REMARK    6  A    between atoms: C_16  and  C_19
REMARK                            x       y       z     vdW  Elec       q    Type
REMARK                         _______ _______ _______ _____ _____    ______ ____
ROOT
ATOM      1  C   UNL     1       9.268  -0.227  22.445  0.00  0.00    +0.023 C 
ENDROOT
BRANCH   1   2
ATOM      2  C   UNL     1       9.712  -1.689  22.374  0.00  0.00    +0.075 C 
BRANCH   2   7
ATOM      3  C   UNL     1       8.881  -4.501  26.540  0.00  0.00    +0.046 C 
ATOM      4  C   UNL     1       7.731  -4.741  25.601  0.00  0.00    -0.024 A 
ATOM      5  C   UNL     1       7.639  -4.034  24.389  0.00  0.00    +0.081 A 
ATOM      6  N   UNL     1       8.675  -3.159  24.013  0.00  0.00    -0.233 NA
ATOM      7  C   UNL     1       8.583  -2.549  22.877  0.00  0.00    +0.110 A 
ATOM      8  N   UNL     1       7.521  -2.691  22.030  0.00  0.00    -0.310 N 
ATOM      9  H   UNL     1       7.478  -2.182  21.159  0.00  0.00    +0.170 HD
ATOM     10  C   UNL     1       6.449  -3.497  22.305  0.00  0.00    +0.259 A 
ATOM     11  O   UNL     1       5.496  -3.587  21.540  0.00  0.00    -0.267 OA
ATOM     12  C   UNL     1       6.527  -4.252  23.566  0.00  0.00    +0.065 A 
ATOM     13  C   UNL     1       5.526  -5.164  23.911  0.00  0.00    +0.015 A 
ATOM     14  C   UNL     1       5.641  -5.886  25.094  0.00  0.00    +0.001 A 
ATOM     15  C   UNL     1       6.734  -5.674  25.936  0.00  0.00    +0.005 A 
ENDBRANCH   2   7
ENDBRANCH   1   2
BRANCH   1  16
ATOM     16  C   UNL     1       9.453   0.405  23.830  0.00  0.00    +0.085 C 
BRANCH  16  17
ATOM     17  N   UNL     1       8.257   0.452  24.676  0.00  0.00    -0.298 NA
ATOM     18  C   UNL     1       7.009   0.171  23.985  0.00  0.00    +0.112 C 
ATOM     19  C   UNL     1       5.983  -0.645  24.678  0.00  0.00    -0.008 C 
ATOM     20  C   UNL     1       6.158  -1.267  25.851  0.00  0.00    -0.042 C 
ATOM     21  C   UNL     1       7.426  -1.069  26.628  0.00  0.00    +0.051 C 
ATOM     22  C   UNL     1       8.477  -0.134  25.997  0.00  0.00    +0.089 C 
BRANCH  20  23
ATOM     23  C   UNL     1       5.101  -2.160  26.376  0.00  0.00    -0.022 A 
ATOM     24  C   UNL     1       5.215  -2.769  27.633  0.00  0.00    +0.011 A 
ATOM     25  C   UNL     1       4.194  -3.588  28.123  0.00  0.00    +0.039 A 
ATOM     26  C   UNL     1       3.057  -3.813  27.357  0.00  0.00    +0.123 A 
ATOM     27  F   UNL     1       2.076  -4.582  27.838  0.00  0.00    -0.205 F 
ATOM     28  C   UNL     1       2.931  -3.246  26.097  0.00  0.00    +0.039 A 
ATOM     29  C   UNL     1       3.953  -2.433  25.606  0.00  0.00    +0.011 A 
ENDBRANCH  20  23
ENDBRANCH  16  17
ENDBRANCH   1  16
TORSDOF 5
ENDMDL
MODEL 9
REMARK VINA RESULT:      -5.9      1.612      2.382
REMARK  Name = 
REMARK  6 active torsions:
REMARK  status: ('A' for Active; 'I' for Inactive)
REMARK    1  A    between atoms: C_1  and  C_2
REMARK    2  A    between atoms: C_9  and  C_10
REMARK    3  A    between atoms: C_10  and  C_11
REMARK    4  A    between atoms: C_11  and  C_12
REMARK    5  A    between atoms: C_12  and  N_13
REMARK    6  A    between atoms: C_16  and  C_19
REMARK                            x       y       z     vdW  Elec       q    Type
REMARK                         _______ _______ _______ _____ _____    ______ ____
ROOT
ATOM      1  C   UNL     1       9.139   0.315  25.127  0.00  0.00    +0.023 C 
ENDROOT
BRANCH   1   2
ATOM      2  C   UNL     1       9.043  -0.583  26.362  0.00  0.00    +0.075 C 
BRANCH   2   7
ATOM      3  C   UNL     1       6.838  -5.025  27.525  0.00  0.00    +0.046 C 
ATOM      4  C   UNL     1       5.748  -4.083  27.097  0.00  0.00    -0.024 A 
ATOM      5  C   UNL     1       6.042  -2.743  26.789  0.00  0.00    +0.081 A 
ATOM      6  N   UNL     1       7.379  -2.304  26.799  0.00  0.00    -0.233 NA
ATOM      7  C   UNL     1       7.626  -1.076  26.477  0.00  0.00    +0.110 A 
ATOM      8  N   UNL     1       6.654  -0.174  26.148  0.00  0.00    -0.310 N 
ATOM      9  H   UNL     1       6.887   0.782  25.920  0.00  0.00    +0.170 HD
ATOM     10  C   UNL     1       5.322  -0.486  26.128  0.00  0.00    +0.259 A 
ATOM     11  O   UNL     1       4.467   0.349  25.855  0.00  0.00    -0.267 OA
ATOM     12  C   UNL     1       4.990  -1.886  26.441  0.00  0.00    +0.065 A 
ATOM     13  C   UNL     1       3.668  -2.335  26.374  0.00  0.00    +0.015 A 
ATOM     14  C   UNL     1       3.389  -3.670  26.646  0.00  0.00    +0.001 A 
ATOM     15  C   UNL     1       4.421  -4.538  27.007  0.00  0.00    +0.005 A 
ENDBRANCH   2   7
ENDBRANCH   1   2
BRANCH   1  16
ATOM     16  C   UNL     1       9.943  -0.306  23.977  0.00  0.00    +0.085 C 
BRANCH  16  17
ATOM     17  N   UNL     1       9.241  -1.318  23.181  0.00  0.00    -0.298 NA
ATOM     18  C   UNL     1       9.428  -2.687  23.631  0.00  0.00    +0.112 C 
ATOM     19  C   UNL     1       8.267  -3.609  23.596  0.00  0.00    -0.008 C 
ATOM     20  C   UNL     1       7.010  -3.253  23.306  0.00  0.00    -0.042 C 
ATOM     21  C   UNL     1       6.706  -1.853  22.863  0.00  0.00    +0.051 C 
ATOM     22  C   UNL     1       7.905  -0.887  22.774  0.00  0.00    +0.089 C 
BRANCH  20  23
ATOM     23  C   UNL     1       5.916  -4.242  23.434  0.00  0.00    -0.022 A 
ATOM     24  C   UNL     1       4.585  -3.900  23.159  0.00  0.00    +0.011 A 
ATOM     25  C   UNL     1       3.569  -4.855  23.260  0.00  0.00    +0.039 A 
ATOM     26  C   UNL     1       3.875  -6.155  23.643  0.00  0.00    +0.123 A 
ATOM     27  F   UNL     1       2.902  -7.069  23.719  0.00  0.00    -0.205 F 
ATOM     28  C   UNL     1       5.180  -6.514  23.947  0.00  0.00    +0.039 A 
ATOM     29  C   UNL     1       6.192  -5.558  23.853  0.00  0.00    +0.011 A 
ENDBRANCH  20  23
ENDBRANCH  16  17
ENDBRANCH   1  16
TORSDOF 5
ENDMDL
