MODEL 1
REMARK VINA RESULT:      -7.5      0.000      0.000
REMARK  Name = 
REMARK  6 active torsions:
REMARK  status: ('A' for Active; 'I' for Inactive)
REMARK    1  A    between atoms: N_4  and  C_12
REMARK    2  A    between atoms: C_19  and  C_29
REMARK    3  A    between atoms: N_21  and  C_22
REMARK    4  A    between atoms: C_26  and  O_27
REMARK    5  A    between atoms: O_27  and  C_28
REMARK    6  A    between atoms: C_29  and  O_30
REMARK                            x       y       z     vdW  Elec       q    Type
REMARK                         _______ _______ _______ _____ _____    ______ ____
ROOT
ATOM      1  C   UNL     1       7.969  -0.792  23.491  0.00  0.00    +0.110 A 
ATOM      2  C   UNL     1       7.266   0.449  23.726  0.00  0.00    +0.168 A 
ATOM      3  C   UNL     1       7.948   1.721  23.748  0.00  0.00    +0.097 A 
ATOM      4  C   UNL     1       9.357   1.708  23.609  0.00  0.00    +0.052 A 
ATOM      5  C   UNL     1      10.157   2.952  23.668  0.00  0.00    +0.204 A 
ATOM      6  C   UNL     1       9.445   4.239  23.770  0.00  0.00    +0.122 A 
ATOM      7  C   UNL     1       8.110   4.166  23.857  0.00  0.00    +0.105 A 
ATOM      8  O   UNL     1      11.387   2.934  23.642  0.00  0.00    -0.286 OA
ATOM      9  C   UNL     1      10.057   0.526  23.416  0.00  0.00    +0.054 A 
ATOM     10  N   UNL     1       7.328   3.018  23.916  0.00  0.00    -0.340 N 
ATOM     11  C   UNL     1       9.373  -0.674  23.335  0.00  0.00    +0.149 A 
ATOM     12  F   UNL     1      10.142  -1.765  23.175  0.00  0.00    -0.203 F 
ENDROOT
BRANCH   1  21
ATOM     13  C   UNL     1       6.759  -4.314  23.933  0.00  0.00    +0.025 C 
ATOM     14  C   UNL     1       7.775  -5.205  23.200  0.00  0.00    +0.008 C 
ATOM     15  C   UNL     1       7.130  -6.094  22.137  0.00  0.00    +0.015 C 
ATOM     16  C   UNL     1       6.145  -5.340  21.249  0.00  0.00    +0.081 C 
ATOM     17  N   UNL     1       5.132  -4.644  22.042  0.00  0.00    -0.311 NA
ATOM     18  H   UNL     1       4.500  -4.145  21.417  0.00  0.00    +0.122 HD
ATOM     19  C   UNL     1       5.710  -3.699  23.004  0.00  0.00    +0.075 C 
ATOM     20  C   UNL     1       6.465  -2.499  22.398  0.00  0.00    +0.124 C 
ATOM     21  N   UNL     1       7.390  -2.056  23.431  0.00  0.00    -0.323 N 
ATOM     22  C   UNL     1       7.414  -3.048  24.529  0.00  0.00    +0.110 C 
ENDBRANCH   1  21
BRANCH  10  23
ATOM     23  C   UNL     1       5.861   3.226  23.871  0.00  0.00    +0.088 C 
ATOM     24  C   UNL     1       5.067   3.373  22.585  0.00  0.00    +0.027 C 
ATOM     25  C   UNL     1       5.277   4.558  23.466  0.00  0.00    +0.027 C 
ENDBRANCH  10  23
BRANCH   2  26
ATOM     26  O   UNL     1       5.961   0.447  24.181  0.00  0.00    -0.491 OA
ATOM     27  C   UNL     1       5.739   0.128  25.552  0.00  0.00    +0.277 C 
ENDBRANCH   2  26
BRANCH   6  28
ATOM     28  C   UNL     1      10.108   5.559  23.795  0.00  0.00    +0.342 C 
ATOM     29  O   UNL     1       9.789   6.458  24.559  0.00  0.00    -0.245 OA
BRANCH  28  30
ATOM     30  O   UNL     1      11.117   5.698  22.903  0.00  0.00    -0.477 OA
ATOM     31  H   UNL     1      10.970   5.214  22.057  0.00  0.00    +0.295 HD
ENDBRANCH  28  30
ENDBRANCH   6  28
TORSDOF 5
ENDMDL
MODEL 2
REMARK VINA RESULT:      -7.3      3.270      8.388
REMARK  Name = 
REMARK  6 active torsions:
REMARK  status: ('A' for Active; 'I' for Inactive)
REMARK    1  A    between atoms: N_4  and  C_12
REMARK    2  A    between atoms: C_19  and  C_29
REMARK    3  A    between atoms: N_21  and  C_22
REMARK    4  A    between atoms: C_26  and  O_27
REMARK    5  A    between atoms: O_27  and  C_28
REMARK    6  A    between atoms: C_29  and  O_30
REMARK                            x       y       z     vdW  Elec       q    Type
REMARK                         _______ _______ _______ _____ _____    ______ ____
ROOT
ATOM      1  C   UNL     1       7.533  -0.885  24.807  0.00  0.00    +0.110 A 
ATOM      2  C   UNL     1       7.560  -2.173  24.154  0.00  0.00    +0.168 A 
ATOM      3  C   UNL     1       6.896  -3.328  24.712  0.00  0.00    +0.097 A 
ATOM      4  C   UNL     1       6.275  -3.175  25.975  0.00  0.00    +0.052 A 
ATOM      5  C   UNL     1       5.610  -4.307  26.658  0.00  0.00    +0.204 A 
ATOM      6  C   UNL     1       5.509  -5.594  25.945  0.00  0.00    +0.122 A 
ATOM      7  C   UNL     1       6.089  -5.643  24.738  0.00  0.00    +0.105 A 
ATOM      8  O   UNL     1       5.152  -4.201  27.796  0.00  0.00    -0.286 OA
ATOM      9  C   UNL     1       6.265  -1.956  26.637  0.00  0.00    +0.054 A 
ATOM     10  N   UNL     1       6.816  -4.640  24.108  0.00  0.00    -0.340 N 
ATOM     11  C   UNL     1       6.854  -0.849  26.052  0.00  0.00    +0.149 A 
ATOM     12  F   UNL     1       6.816   0.278  26.783  0.00  0.00    -0.203 F 
ENDROOT
BRANCH   1  21
ATOM     13  C   UNL     1       9.538   2.204  24.099  0.00  0.00    +0.025 C 
ATOM     14  C   UNL     1       8.784   3.362  24.773  0.00  0.00    +0.008 C 
ATOM     15  C   UNL     1       8.425   4.486  23.802  0.00  0.00    +0.015 C 
ATOM     16  C   UNL     1       7.825   3.974  22.496  0.00  0.00    +0.081 C 
ATOM     17  N   UNL     1       8.693   2.982  21.860  0.00  0.00    -0.311 NA
ATOM     18  H   UNL     1       8.256   2.657  20.998  0.00  0.00    +0.122 HD
ATOM     19  C   UNL     1       8.975   1.832  22.726  0.00  0.00    +0.075 C 
ATOM     20  C   UNL     1       7.762   0.952  23.092  0.00  0.00    +0.124 C 
ATOM     21  N   UNL     1       8.125   0.282  24.331  0.00  0.00    -0.323 N 
ATOM     22  C   UNL     1       9.372   0.873  24.865  0.00  0.00    +0.110 C 
ENDBRANCH   1  21
BRANCH  10  23
ATOM     23  C   UNL     1       7.231  -4.915  22.712  0.00  0.00    +0.088 C 
ATOM     24  C   UNL     1       6.315  -4.761  21.511  0.00  0.00    +0.027 C 
ATOM     25  C   UNL     1       6.710  -6.123  21.970  0.00  0.00    +0.027 C 
ENDBRANCH  10  23
BRANCH   2  26
ATOM     26  O   UNL     1       8.424  -2.415  23.102  0.00  0.00    -0.491 OA
ATOM     27  C   UNL     1       9.817  -2.480  23.392  0.00  0.00    +0.277 C 
ENDBRANCH   2  26
BRANCH   6  28
ATOM     28  C   UNL     1       4.837  -6.795  26.484  0.00  0.00    +0.342 C 
ATOM     29  O   UNL     1       3.927  -7.371  25.907  0.00  0.00    -0.245 OA
BRANCH  28  30
ATOM     30  O   UNL     1       5.318  -7.221  27.675  0.00  0.00    -0.477 OA
ATOM     31  H   UNL     1       4.763  -6.956  28.446  0.00  0.00    +0.295 HD
ENDBRANCH  28  30
ENDBRANCH   6  28
TORSDOF 5
ENDMDL
MODEL 3
REMARK VINA RESULT:      -7.2      3.901      8.333
REMARK  Name = 
REMARK  6 active torsions:
REMARK  status: ('A' for Active; 'I' for Inactive)
REMARK    1  A    between atoms: N_4  and  C_12
REMARK    2  A    between atoms: C_19  and  C_29
REMARK    3  A    between atoms: N_21  and  C_22
REMARK    4  A    between atoms: C_26  and  O_27
REMARK    5  A    between atoms: O_27  and  C_28
REMARK    6  A    between atoms: C_29  and  O_30
REMARK                            x       y       z     vdW  Elec       q    Type
REMARK                         _______ _______ _______ _____ _____    ______ ____
ROOT
ATOM      1  C   UNL     1       7.788  -2.347  24.467  0.00  0.00    +0.110 A 
ATOM      2  C   UNL     1       6.762  -3.292  24.092  0.00  0.00    +0.168 A 
ATOM      3  C   UNL     1       6.176  -4.204  25.047  0.00  0.00    +0.097 A 
ATOM      4  C   UNL     1       6.701  -4.196  26.363  0.00  0.00    +0.052 A 
ATOM      5  C   UNL     1       6.206  -5.123  27.404  0.00  0.00    +0.204 A 
ATOM      6  C   UNL     1       5.065  -6.000  27.077  0.00  0.00    +0.122 A 
ATOM      7  C   UNL     1       4.602  -5.917  25.823  0.00  0.00    +0.105 A 
ATOM      8  O   UNL     1       6.724  -5.184  28.519  0.00  0.00    -0.286 OA
ATOM      9  C   UNL     1       7.710  -3.321  26.736  0.00  0.00    +0.054 A 
ATOM     10  N   UNL     1       5.106  -5.142  24.785  0.00  0.00    -0.340 N 
ATOM     11  C   UNL     1       8.211  -2.414  25.819  0.00  0.00    +0.149 A 
ATOM     12  F   UNL     1       9.204  -1.628  26.269  0.00  0.00    -0.203 F 
ENDROOT
BRANCH   1  21
ATOM     13  C   UNL     1      10.005  -0.211  22.324  0.00  0.00    +0.025 C 
ATOM     14  C   UNL     1      10.503   0.925  23.232  0.00  0.00    +0.008 C 
ATOM     15  C   UNL     1      10.183   2.313  22.680  0.00  0.00    +0.015 C 
ATOM     16  C   UNL     1       8.746   2.440  22.187  0.00  0.00    +0.081 C 
ATOM     17  N   UNL     1       8.418   1.396  21.215  0.00  0.00    -0.311 NA
ATOM     18  H   UNL     1       7.449   1.507  20.916  0.00  0.00    +0.122 HD
ATOM     19  C   UNL     1       8.611   0.042  21.746  0.00  0.00    +0.075 C 
ATOM     20  C   UNL     1       7.688  -0.361  22.913  0.00  0.00    +0.124 C 
ATOM     21  N   UNL     1       8.390  -1.421  23.620  0.00  0.00    -0.323 N 
ATOM     22  C   UNL     1       9.774  -1.525  23.104  0.00  0.00    +0.110 C 
ENDBRANCH   1  21
BRANCH  10  23
ATOM     23  C   UNL     1       4.314  -5.137  23.532  0.00  0.00    +0.088 C 
ATOM     24  C   UNL     1       2.839  -4.785  23.464  0.00  0.00    +0.027 C 
ATOM     25  C   UNL     1       3.272  -6.198  23.266  0.00  0.00    +0.027 C 
ENDBRANCH  10  23
BRANCH   2  26
ATOM     26  O   UNL     1       6.474  -3.534  22.762  0.00  0.00    -0.491 OA
ATOM     27  C   UNL     1       7.330  -4.424  22.051  0.00  0.00    +0.277 C 
ENDBRANCH   2  26
BRANCH   6  28
ATOM     28  C   UNL     1       4.440  -6.942  28.028  0.00  0.00    +0.342 C 
ATOM     29  O   UNL     1       3.234  -7.007  28.215  0.00  0.00    -0.245 OA
BRANCH  28  30
ATOM     30  O   UNL     1       5.313  -7.747  28.677  0.00  0.00    -0.477 OA
ATOM     31  H   UNL     1       4.913  -8.243  29.429  0.00  0.00    +0.295 HD
ENDBRANCH  28  30
ENDBRANCH   6  28
TORSDOF 5
ENDMDL
MODEL 4
REMARK VINA RESULT:      -7.2      1.785      2.370
REMARK  Name = 
REMARK  6 active torsions:
REMARK  status: ('A' for Active; 'I' for Inactive)
REMARK    1  A    between atoms: N_4  and  C_12
REMARK    2  A    between atoms: C_19  and  C_29
REMARK    3  A    between atoms: N_21  and  C_22
REMARK    4  A    between atoms: C_26  and  O_27
REMARK    5  A    between atoms: O_27  and  C_28
REMARK    6  A    between atoms: C_29  and  O_30
REMARK                            x       y       z     vdW  Elec       q    Type
REMARK                         _______ _______ _______ _____ _____    ______ ____
ROOT
ATOM      1  C   UNL     1       8.785  -0.997  24.351  0.00  0.00    +0.110 A 
ATOM      2  C   UNL     1       8.086   0.108  24.967  0.00  0.00    +0.168 A 
ATOM      3  C   UNL     1       8.476   1.480  24.742  0.00  0.00    +0.097 A 
ATOM      4  C   UNL     1       9.629   1.709  23.952  0.00  0.00    +0.052 A 
ATOM      5  C   UNL     1      10.143   3.074  23.702  0.00  0.00    +0.204 A 
ATOM      6  C   UNL     1       9.365   4.220  24.208  0.00  0.00    +0.122 A 
ATOM      7  C   UNL     1       8.266   3.917  24.913  0.00  0.00    +0.105 A 
ATOM      8  O   UNL     1      11.196   3.270  23.095  0.00  0.00    -0.286 OA
ATOM      9  C   UNL     1      10.335   0.662  23.378  0.00  0.00    +0.054 A 
ATOM     10  N   UNL     1       7.808   2.653  25.264  0.00  0.00    -0.340 N 
ATOM     11  C   UNL     1       9.904  -0.641  23.557  0.00  0.00    +0.149 A 
ATOM     12  F   UNL     1      10.670  -1.584  22.985  0.00  0.00    -0.203 F 
ENDROOT
BRANCH   1  21
ATOM     13  C   UNL     1       7.570  -4.538  24.128  0.00  0.00    +0.025 C 
ATOM     14  C   UNL     1       6.224  -4.570  24.871  0.00  0.00    +0.008 C 
ATOM     15  C   UNL     1       6.190  -5.601  25.998  0.00  0.00    +0.015 C 
ATOM     16  C   UNL     1       7.433  -5.559  26.880  0.00  0.00    +0.081 C 
ATOM     17  N   UNL     1       8.657  -5.682  26.087  0.00  0.00    -0.311 NA
ATOM     18  H   UNL     1       9.466  -5.640  26.708  0.00  0.00    +0.122 HD
ATOM     19  C   UNL     1       8.779  -4.642  25.060  0.00  0.00    +0.075 C 
ATOM     20  C   UNL     1       8.924  -3.197  25.579  0.00  0.00    +0.124 C 
ATOM     21  N   UNL     1       8.464  -2.343  24.494  0.00  0.00    -0.323 N 
ATOM     22  C   UNL     1       7.830  -3.175  23.447  0.00  0.00    +0.110 C 
ENDBRANCH   1  21
BRANCH  10  23
ATOM     23  C   UNL     1       6.486   2.601  25.931  0.00  0.00    +0.088 C 
ATOM     24  C   UNL     1       5.162   2.600  25.188  0.00  0.00    +0.027 C 
ATOM     25  C   UNL     1       5.579   3.809  25.955  0.00  0.00    +0.027 C 
ENDBRANCH  10  23
BRANCH   2  26
ATOM     26  O   UNL     1       7.177  -0.109  25.985  0.00  0.00    -0.491 OA
ATOM     27  C   UNL     1       7.690  -0.313  27.298  0.00  0.00    +0.277 C 
ENDBRANCH   2  26
BRANCH   6  28
ATOM     28  C   UNL     1       9.733   5.635  23.997  0.00  0.00    +0.342 C 
ATOM     29  O   UNL     1       9.441   6.529  24.778  0.00  0.00    -0.245 OA
BRANCH  28  30
ATOM     30  O   UNL     1      10.435   5.871  22.865  0.00  0.00    -0.477 OA
ATOM     31  H   UNL     1      10.463   6.821  22.605  0.00  0.00    +0.295 HD
ENDBRANCH  28  30
ENDBRANCH   6  28
TORSDOF 5
ENDMDL
MODEL 5
REMARK VINA RESULT:      -7.1      3.465      8.588
REMARK  Name = 
REMARK  6 active torsions:
REMARK  status: ('A' for Active; 'I' for Inactive)
REMARK    1  A    between atoms: N_4  and  C_12
REMARK    2  A    between atoms: C_19  and  C_29
REMARK    3  A    between atoms: N_21  and  C_22
REMARK    4  A    between atoms: C_26  and  O_27
REMARK    5  A    between atoms: O_27  and  C_28
REMARK    6  A    between atoms: C_29  and  O_30
REMARK                            x       y       z     vdW  Elec       q    Type
REMARK                         _______ _______ _______ _____ _____    ______ ____
ROOT
ATOM      1  C   UNL     1       6.564  -1.102  24.352  0.00  0.00    +0.110 A 
ATOM      2  C   UNL     1       6.838  -2.427  23.844  0.00  0.00    +0.168 A 
ATOM      3  C   UNL     1       6.120  -3.589  24.314  0.00  0.00    +0.097 A 
ATOM      4  C   UNL     1       5.183  -3.399  25.358  0.00  0.00    +0.052 A 
ATOM      5  C   UNL     1       4.431  -4.530  25.946  0.00  0.00    +0.204 A 
ATOM      6  C   UNL     1       4.597  -5.868  25.347  0.00  0.00    +0.122 A 
ATOM      7  C   UNL     1       5.474  -5.955  24.338  0.00  0.00    +0.105 A 
ATOM      8  O   UNL     1       3.687  -4.382  26.915  0.00  0.00    -0.286 OA
ATOM      9  C   UNL     1       4.928  -2.141  25.884  0.00  0.00    +0.054 A 
ATOM     10  N   UNL     1       6.280  -4.943  23.828  0.00  0.00    -0.340 N 
ATOM     11  C   UNL     1       5.583  -1.034  25.374  0.00  0.00    +0.149 A 
ATOM     12  F   UNL     1       5.288   0.134  25.968  0.00  0.00    -0.203 F 
ENDROOT
BRANCH   1  21
ATOM     13  C   UNL     1       7.843   1.996  22.669  0.00  0.00    +0.025 C 
ATOM     14  C   UNL     1       9.058   1.553  21.837  0.00  0.00    +0.008 C 
ATOM     15  C   UNL     1      10.330   2.326  22.182  0.00  0.00    +0.015 C 
ATOM     16  C   UNL     1      10.563   2.447  23.684  0.00  0.00    +0.081 C 
ATOM     17  N   UNL     1       9.399   3.015  24.364  0.00  0.00    -0.311 NA
ATOM     18  H   UNL     1       9.587   3.071  25.365  0.00  0.00    +0.122 HD
ATOM     19  C   UNL     1       8.174   2.238  24.143  0.00  0.00    +0.075 C 
ATOM     20  C   UNL     1       8.169   0.809  24.724  0.00  0.00    +0.124 C 
ATOM     21  N   UNL     1       7.189   0.072  23.942  0.00  0.00    -0.323 N 
ATOM     22  C   UNL     1       6.773   0.886  22.778  0.00  0.00    +0.110 C 
ENDBRANCH   1  21
BRANCH  10  23
ATOM     23  C   UNL     1       7.060  -5.281  22.614  0.00  0.00    +0.088 C 
ATOM     24  C   UNL     1       6.482  -5.283  21.211  0.00  0.00    +0.027 C 
ATOM     25  C   UNL     1       6.823  -6.575  21.872  0.00  0.00    +0.027 C 
ENDBRANCH  10  23
BRANCH   2  26
ATOM     26  O   UNL     1       7.959  -2.671  23.073  0.00  0.00    -0.491 OA
ATOM     27  C   UNL     1       9.224  -2.675  23.729  0.00  0.00    +0.277 C 
ENDBRANCH   2  26
BRANCH   6  28
ATOM     28  C   UNL     1       3.880  -7.078  25.800  0.00  0.00    +0.342 C 
ATOM     29  O   UNL     1       3.446  -7.927  25.036  0.00  0.00    -0.245 OA
BRANCH  28  30
ATOM     30  O   UNL     1       3.748  -7.183  27.143  0.00  0.00    -0.477 OA
ATOM     31  H   UNL     1       4.563  -6.941  27.643  0.00  0.00    +0.295 HD
ENDBRANCH  28  30
ENDBRANCH   6  28
TORSDOF 5
ENDMDL
MODEL 6
REMARK VINA RESULT:      -7.0      1.612      1.768
REMARK  Name = 
REMARK  6 active torsions:
REMARK  status: ('A' for Active; 'I' for Inactive)
REMARK    1  A    between atoms: N_4  and  C_12
REMARK    2  A    between atoms: C_19  and  C_29
REMARK    3  A    between atoms: N_21  and  C_22
REMARK    4  A    between atoms: C_26  and  O_27
REMARK    5  A    between atoms: O_27  and  C_28
REMARK    6  A    between atoms: C_29  and  O_30
REMARK                            x       y       z     vdW  Elec       q    Type
REMARK                         _______ _______ _______ _____ _____    ______ ____
ROOT
ATOM      1  C   UNL     1       8.187  -1.387  23.597  0.00  0.00    +0.110 A 
ATOM      2  C   UNL     1       7.945  -0.329  24.551  0.00  0.00    +0.168 A 
ATOM      3  C   UNL     1       8.469   1.003  24.364  0.00  0.00    +0.097 A 
ATOM      4  C   UNL     1       9.305   1.224  23.242  0.00  0.00    +0.052 A 
ATOM      5  C   UNL     1       9.934   2.539  22.987  0.00  0.00    +0.204 A 
ATOM      6  C   UNL     1       9.587   3.666  23.873  0.00  0.00    +0.122 A 
ATOM      7  C   UNL     1       8.759   3.382  24.887  0.00  0.00    +0.105 A 
ATOM      8  O   UNL     1      10.734   2.708  22.067  0.00  0.00    -0.286 OA
ATOM      9  C   UNL     1       9.579   0.214  22.332  0.00  0.00    +0.054 A 
ATOM     10  N   UNL     1       8.234   2.141  25.228  0.00  0.00    -0.340 N 
ATOM     11  C   UNL     1       9.013  -1.038  22.499  0.00  0.00    +0.149 A 
ATOM     12  F   UNL     1       9.361  -1.954  21.580  0.00  0.00    -0.203 F 
ENDROOT
BRANCH   1  21
ATOM     13  C   UNL     1       7.568  -5.074  23.895  0.00  0.00    +0.025 C 
ATOM     14  C   UNL     1       7.571  -5.621  22.458  0.00  0.00    +0.008 C 
ATOM     15  C   UNL     1       6.287  -6.367  22.101  0.00  0.00    +0.015 C 
ATOM     16  C   UNL     1       5.027  -5.618  22.523  0.00  0.00    +0.081 C 
ATOM     17  N   UNL     1       5.060  -5.271  23.944  0.00  0.00    -0.311 NA
ATOM     18  H   UNL     1       4.209  -4.764  24.187  0.00  0.00    +0.122 HD
ATOM     19  C   UNL     1       6.228  -4.461  24.307  0.00  0.00    +0.075 C 
ATOM     20  C   UNL     1       6.296  -3.057  23.674  0.00  0.00    +0.124 C 
ATOM     21  N   UNL     1       7.704  -2.689  23.686  0.00  0.00    -0.323 N 
ATOM     22  C   UNL     1       8.517  -3.867  24.064  0.00  0.00    +0.110 C 
ENDBRANCH   1  21
BRANCH  10  23
ATOM     23  C   UNL     1       7.230   2.135  26.318  0.00  0.00    +0.088 C 
ATOM     24  C   UNL     1       5.787   2.568  26.142  0.00  0.00    +0.027 C 
ATOM     25  C   UNL     1       6.726   3.426  26.918  0.00  0.00    +0.027 C 
ENDBRANCH  10  23
BRANCH   2  26
ATOM     26  O   UNL     1       7.413  -0.608  25.796  0.00  0.00    -0.491 OA
ATOM     27  C   UNL     1       8.267  -1.221  26.758  0.00  0.00    +0.277 C 
ENDBRANCH   2  26
BRANCH   6  28
ATOM     28  C   UNL     1      10.103   5.041  23.712  0.00  0.00    +0.342 C 
ATOM     29  O   UNL     1       9.484   6.036  24.060  0.00  0.00    -0.245 OA
BRANCH  28  30
ATOM     30  O   UNL     1      11.333   5.118  23.154  0.00  0.00    -0.477 OA
ATOM     31  H   UNL     1      11.945   5.733  23.621  0.00  0.00    +0.295 HD
ENDBRANCH  28  30
ENDBRANCH   6  28
TORSDOF 5
ENDMDL
MODEL 7
REMARK VINA RESULT:      -6.9      4.607      8.608
REMARK  Name = 
REMARK  6 active torsions:
REMARK  status: ('A' for Active; 'I' for Inactive)
REMARK    1  A    between atoms: N_4  and  C_12
REMARK    2  A    between atoms: C_19  and  C_29
REMARK    3  A    between atoms: N_21  and  C_22
REMARK    4  A    between atoms: C_26  and  O_27
REMARK    5  A    between atoms: O_27  and  C_28
REMARK    6  A    between atoms: C_29  and  O_30
REMARK                            x       y       z     vdW  Elec       q    Type
REMARK                         _______ _______ _______ _____ _____    ______ ____
ROOT
ATOM      1  C   UNL     1       7.461  -3.489  25.704  0.00  0.00    +0.110 A 
ATOM      2  C   UNL     1       6.016  -3.466  25.713  0.00  0.00    +0.168 A 
ATOM      3  C   UNL     1       5.242  -4.379  26.520  0.00  0.00    +0.097 A 
ATOM      4  C   UNL     1       5.951  -5.363  27.252  0.00  0.00    +0.052 A 
ATOM      5  C   UNL     1       5.252  -6.379  28.071  0.00  0.00    +0.204 A 
ATOM      6  C   UNL     1       3.786  -6.286  28.201  0.00  0.00    +0.122 A 
ATOM      7  C   UNL     1       3.196  -5.302  27.508  0.00  0.00    +0.105 A 
ATOM      8  O   UNL     1       5.858  -7.291  28.631  0.00  0.00    -0.286 OA
ATOM      9  C   UNL     1       7.336  -5.426  27.232  0.00  0.00    +0.054 A 
ATOM     10  N   UNL     1       3.800  -4.398  26.643  0.00  0.00    -0.340 N 
ATOM     11  C   UNL     1       8.058  -4.499  26.500  0.00  0.00    +0.149 A 
ATOM     12  F   UNL     1       9.391  -4.661  26.522  0.00  0.00    -0.203 F 
ENDROOT
BRANCH   1  21
ATOM     13  C   UNL     1       9.635  -0.768  24.313  0.00  0.00    +0.025 C 
ATOM     14  C   UNL     1       8.690   0.191  23.571  0.00  0.00    +0.008 C 
ATOM     15  C   UNL     1       9.077   0.397  22.107  0.00  0.00    +0.015 C 
ATOM     16  C   UNL     1       9.397  -0.909  21.387  0.00  0.00    +0.081 C 
ATOM     17  N   UNL     1      10.416  -1.679  22.101  0.00  0.00    -0.311 NA
ATOM     18  H   UNL     1      10.596  -2.548  21.597  0.00  0.00    +0.122 HD
ATOM     19  C   UNL     1      10.033  -1.990  23.483  0.00  0.00    +0.075 C 
ATOM     20  C   UNL     1       8.811  -2.917  23.650  0.00  0.00    +0.124 C 
ATOM     21  N   UNL     1       8.283  -2.634  24.976  0.00  0.00    -0.323 N 
ATOM     22  C   UNL     1       8.955  -1.437  25.528  0.00  0.00    +0.110 C 
ENDBRANCH   1  21
BRANCH  10  23
ATOM     23  C   UNL     1       2.930  -3.322  26.113  0.00  0.00    +0.088 C 
ATOM     24  C   UNL     1       2.565  -2.069  26.888  0.00  0.00    +0.027 C 
ATOM     25  C   UNL     1       1.532  -3.117  26.648  0.00  0.00    +0.027 C 
ENDBRANCH  10  23
BRANCH   2  26
ATOM     26  O   UNL     1       5.314  -2.739  24.770  0.00  0.00    -0.491 OA
ATOM     27  C   UNL     1       5.180  -3.301  23.468  0.00  0.00    +0.277 C 
ENDBRANCH   2  26
BRANCH   6  28
ATOM     28  C   UNL     1       2.962  -7.201  29.018  0.00  0.00    +0.342 C 
ATOM     29  O   UNL     1       1.889  -7.653  28.644  0.00  0.00    -0.245 OA
BRANCH  28  30
ATOM     30  O   UNL     1       3.494  -7.514  30.221  0.00  0.00    -0.477 OA
ATOM     31  H   UNL     1       4.292  -8.090  30.166  0.00  0.00    +0.295 HD
ENDBRANCH  28  30
ENDBRANCH   6  28
TORSDOF 5
ENDMDL
MODEL 8
REMARK VINA RESULT:      -6.9      3.791      8.672
REMARK  Name = 
REMARK  6 active torsions:
REMARK  status: ('A' for Active; 'I' for Inactive)
REMARK    1  A    between atoms: N_4  and  C_12
REMARK    2  A    between atoms: C_19  and  C_29
REMARK    3  A    between atoms: N_21  and  C_22
REMARK    4  A    between atoms: C_26  and  O_27
REMARK    5  A    between atoms: O_27  and  C_28
REMARK    6  A    between atoms: C_29  and  O_30
REMARK                            x       y       z     vdW  Elec       q    Type
REMARK                         _______ _______ _______ _____ _____    ______ ____
ROOT
ATOM      1  C   UNL     1       7.358  -2.782  23.347  0.00  0.00    +0.110 A 
ATOM      2  C   UNL     1       6.948  -3.300  24.632  0.00  0.00    +0.168 A 
ATOM      3  C   UNL     1       5.928  -4.314  24.757  0.00  0.00    +0.097 A 
ATOM      4  C   UNL     1       5.278  -4.735  23.571  0.00  0.00    +0.052 A 
ATOM      5  C   UNL     1       4.185  -5.732  23.594  0.00  0.00    +0.204 A 
ATOM      6  C   UNL     1       3.847  -6.372  24.879  0.00  0.00    +0.122 A 
ATOM      7  C   UNL     1       4.536  -5.946  25.946  0.00  0.00    +0.105 A 
ATOM      8  O   UNL     1       3.556  -6.029  22.579  0.00  0.00    -0.286 OA
ATOM      9  C   UNL     1       5.632  -4.227  22.330  0.00  0.00    +0.054 A 
ATOM     10  N   UNL     1       5.491  -4.937  25.988  0.00  0.00    -0.340 N 
ATOM     11  C   UNL     1       6.656  -3.301  22.230  0.00  0.00    +0.149 A 
ATOM     12  F   UNL     1       6.905  -2.849  20.989  0.00  0.00    -0.203 F 
ENDROOT
BRANCH   1  21
ATOM     13  C   UNL     1      10.444  -0.665  23.091  0.00  0.00    +0.025 C 
ATOM     14  C   UNL     1      10.471   0.197  24.364  0.00  0.00    +0.008 C 
ATOM     15  C   UNL     1      10.534   1.695  24.068  0.00  0.00    +0.015 C 
ATOM     16  C   UNL     1       9.545   2.131  22.993  0.00  0.00    +0.081 C 
ATOM     17  N   UNL     1       9.700   1.343  21.770  0.00  0.00    -0.311 NA
ATOM     18  H   UNL     1       9.017   1.655  21.079  0.00  0.00    +0.122 HD
ATOM     19  C   UNL     1       9.540  -0.098  21.994  0.00  0.00    +0.075 C 
ATOM     20  C   UNL     1       8.139  -0.557  22.447  0.00  0.00    +0.124 C 
ATOM     21  N   UNL     1       8.345  -1.823  23.133  0.00  0.00    -0.323 N 
ATOM     22  C   UNL     1       9.794  -2.046  23.334  0.00  0.00    +0.110 C 
ENDBRANCH   1  21
BRANCH  10  23
ATOM     23  C   UNL     1       6.199  -4.763  27.278  0.00  0.00    +0.088 C 
ATOM     24  C   UNL     1       7.339  -5.651  27.744  0.00  0.00    +0.027 C 
ATOM     25  C   UNL     1       6.008  -5.746  28.409  0.00  0.00    +0.027 C 
ENDBRANCH  10  23
BRANCH   2  26
ATOM     26  O   UNL     1       7.335  -2.675  25.803  0.00  0.00    -0.491 OA
ATOM     27  C   UNL     1       6.730  -1.424  26.116  0.00  0.00    +0.277 C 
ENDBRANCH   2  26
BRANCH   6  28
ATOM     28  C   UNL     1       2.811  -7.413  25.045  0.00  0.00    +0.342 C 
ATOM     29  O   UNL     1       1.999  -7.413  25.958  0.00  0.00    -0.245 OA
BRANCH  28  30
ATOM     30  O   UNL     1       2.822  -8.373  24.091  0.00  0.00    -0.477 OA
ATOM     31  H   UNL     1       3.725  -8.605  23.770  0.00  0.00    +0.295 HD
ENDBRANCH  28  30
ENDBRANCH   6  28
TORSDOF 5
ENDMDL
MODEL 9
REMARK VINA RESULT:      -6.7      3.307      8.130
REMARK  Name = 
REMARK  6 active torsions:
REMARK  status: ('A' for Active; 'I' for Inactive)
REMARK    1  A    between atoms: N_4  and  C_12
REMARK    2  A    between atoms: C_19  and  C_29
REMARK    3  A    between atoms: N_21  and  C_22
REMARK    4  A    between atoms: C_26  and  O_27
REMARK    5  A    between atoms: O_27  and  C_28
REMARK    6  A    between atoms: C_29  and  O_30
REMARK                            x       y       z     vdW  Elec       q    Type
REMARK                         _______ _______ _______ _____ _____    ______ ____
ROOT
ATOM      1  C   UNL     1       7.173  -1.376  23.292  0.00  0.00    +0.110 A 
ATOM      2  C   UNL     1       6.017  -1.683  24.103  0.00  0.00    +0.168 A 
ATOM      3  C   UNL     1       5.378  -2.978  24.064  0.00  0.00    +0.097 A 
ATOM      4  C   UNL     1       5.879  -3.924  23.138  0.00  0.00    +0.052 A 
ATOM      5  C   UNL     1       5.266  -5.262  22.982  0.00  0.00    +0.204 A 
ATOM      6  C   UNL     1       4.172  -5.642  23.897  0.00  0.00    +0.122 A 
ATOM      7  C   UNL     1       3.784  -4.702  24.770  0.00  0.00    +0.105 A 
ATOM      8  O   UNL     1       5.638  -6.051  22.114  0.00  0.00    -0.286 OA
ATOM      9  C   UNL     1       6.967  -3.640  22.325  0.00  0.00    +0.054 A 
ATOM     10  N   UNL     1       4.257  -3.400  24.876  0.00  0.00    -0.340 N 
ATOM     11  C   UNL     1       7.601  -2.414  22.426  0.00  0.00    +0.149 A 
ATOM     12  F   UNL     1       8.626  -2.225  21.578  0.00  0.00    -0.203 F 
ENDROOT
BRANCH   1  21
ATOM     13  C   UNL     1       9.450   1.570  23.743  0.00  0.00    +0.025 C 
ATOM     14  C   UNL     1       8.834   2.411  24.873  0.00  0.00    +0.008 C 
ATOM     15  C   UNL     1       8.558   3.856  24.459  0.00  0.00    +0.015 C 
ATOM     16  C   UNL     1       7.872   3.964  23.101  0.00  0.00    +0.081 C 
ATOM     17  N   UNL     1       8.617   3.249  22.065  0.00  0.00    -0.311 NA
ATOM     18  H   UNL     1       8.124   3.335  21.176  0.00  0.00    +0.122 HD
ATOM     19  C   UNL     1       8.811   1.829  22.377  0.00  0.00    +0.075 C 
ATOM     20  C   UNL     1       7.530   0.973  22.442  0.00  0.00    +0.124 C 
ATOM     21  N   UNL     1       7.862  -0.167  23.283  0.00  0.00    -0.323 N 
ATOM     22  C   UNL     1       9.178   0.060  23.922  0.00  0.00    +0.110 C 
ENDBRANCH   1  21
BRANCH  10  23
ATOM     23  C   UNL     1       3.749  -2.613  26.025  0.00  0.00    +0.088 C 
ATOM     24  C   UNL     1       4.223  -2.801  27.454  0.00  0.00    +0.027 C 
ATOM     25  C   UNL     1       2.854  -3.246  27.065  0.00  0.00    +0.027 C 
ENDBRANCH  10  23
BRANCH   2  26
ATOM     26  O   UNL     1       5.328  -0.681  24.760  0.00  0.00    -0.491 OA
ATOM     27  C   UNL     1       5.990  -0.015  25.831  0.00  0.00    +0.277 C 
ENDBRANCH   2  26
BRANCH   6  28
ATOM     28  C   UNL     1       3.497  -6.956  23.887  0.00  0.00    +0.342 C 
ATOM     29  O   UNL     1       3.611  -7.777  24.785  0.00  0.00    -0.245 OA
BRANCH  28  30
ATOM     30  O   UNL     1       2.723  -7.181  22.801  0.00  0.00    -0.477 OA
ATOM     31  H   UNL     1       3.183  -7.020  21.944  0.00  0.00    +0.295 HD
ENDBRANCH  28  30
ENDBRANCH   6  28
TORSDOF 5
ENDMDL
