MODEL 1
REMARK VINA RESULT:      -6.8      0.000      0.000
REMARK  Name = 
REMARK  7 active torsions:
REMARK  status: ('A' for Active; 'I' for Inactive)
REMARK    1  A    between atoms: C_2  and  C_3
REMARK    2  A    between atoms: C_3  and  O_4
REMARK    3  A    between atoms: C_6  and  O_8
REMARK    4  A    between atoms: O_8  and  C_9
REMARK    5  A    between atoms: C_12  and  N_15
REMARK    6  A    between atoms: C_18  and  O_20
REMARK    7  A    between atoms: C_21  and  O_23
REMARK                            x       y       z     vdW  Elec       q    Type
REMARK                         _______ _______ _______ _____ _____    ______ ____
ROOT
ATOM      1  C   UNL     1       8.942  -4.876  24.919  0.00  0.00    +0.179 C 
ATOM      2  C   UNL     1       7.753  -4.522  24.024  0.00  0.00    +0.180 C 
ATOM      3  C   UNL     1       8.091  -3.166  23.416  0.00  0.00    +0.214 C 
ATOM      4  C   UNL     1       9.440  -2.795  24.040  0.00  0.00    +0.339 C 
ATOM      5  O   UNL     1      10.027  -4.018  24.509  0.00  0.00    -0.331 OA
ENDROOT
BRANCH   2   6
ATOM      6  O   UNL     1       7.652  -5.500  22.972  0.00  0.00    -0.386 OA
ATOM      7  H   UNL     1       7.449  -5.033  22.141  0.00  0.00    +0.210 HD
ENDBRANCH   2   6
BRANCH   3   8
ATOM      8  O   UNL     1       7.079  -2.197  23.706  0.00  0.00    -0.383 OA
ATOM      9  H   UNL     1       6.957  -1.658  22.906  0.00  0.00    +0.210 HD
ENDBRANCH   3   8
BRANCH   4  10
ATOM     10  O   UNL     1      10.243  -2.159  23.040  0.00  0.00    -0.461 OA
BRANCH  10  11
ATOM     11  C   UNL     1      10.241  -0.791  23.042  0.00  0.00    +0.124 A 
ATOM     12  C   UNL     1      10.561  -0.199  24.267  0.00  0.00    +0.052 A 
ATOM     13  C   UNL     1      10.598   1.191  24.397  0.00  0.00    +0.088 A 
ATOM     14  C   UNL     1      10.296   1.992  23.290  0.00  0.00    +0.273 A 
ATOM     15  C   UNL     1       9.952   1.409  22.064  0.00  0.00    +0.088 A 
ATOM     16  C   UNL     1       9.919   0.015  21.947  0.00  0.00    +0.052 A 
BRANCH  14  17
ATOM     17  N   UNL     1      10.330   3.455  23.415  0.00  0.00    +0.080 N 
ATOM     18  O   UNL     1       9.249   4.047  23.555  0.00  0.00    +0.041 OA
ATOM     19  O   UNL     1      11.436   4.012  23.377  0.00  0.00    -0.576 OA
ENDBRANCH  14  17
ENDBRANCH  10  11
ENDBRANCH   4  10
BRANCH   1  20
ATOM     20  C   UNL     1       8.665  -4.692  26.418  0.00  0.00    +0.190 C 
BRANCH  20  21
ATOM     21  O   UNL     1       8.192  -5.883  27.035  0.00  0.00    -0.392 OA
ATOM     22  H   UNL     1       7.342  -6.106  26.616  0.00  0.00    +0.210 HD
ENDBRANCH  20  21
ENDBRANCH   1  20
TORSDOF 7
ENDMDL
MODEL 2
REMARK VINA RESULT:      -6.3      3.154      7.200
REMARK  Name = 
REMARK  7 active torsions:
REMARK  status: ('A' for Active; 'I' for Inactive)
REMARK    1  A    between atoms: C_2  and  C_3
REMARK    2  A    between atoms: C_3  and  O_4
REMARK    3  A    between atoms: C_6  and  O_8
REMARK    4  A    between atoms: O_8  and  C_9
REMARK    5  A    between atoms: C_12  and  N_15
REMARK    6  A    between atoms: C_18  and  O_20
REMARK    7  A    between atoms: C_21  and  O_23
REMARK                            x       y       z     vdW  Elec       q    Type
REMARK                         _______ _______ _______ _____ _____    ______ ____
ROOT
ATOM      1  C   UNL     1      10.384  -0.004  22.929  0.00  0.00    +0.179 C 
ATOM      2  C   UNL     1       9.811   0.253  24.324  0.00  0.00    +0.180 C 
ATOM      3  C   UNL     1       9.263  -1.090  24.793  0.00  0.00    +0.214 C 
ATOM      4  C   UNL     1       9.509  -2.034  23.611  0.00  0.00    +0.339 C 
ATOM      5  O   UNL     1      10.540  -1.433  22.812  0.00  0.00    -0.331 OA
ENDROOT
BRANCH   2   6
ATOM      6  O   UNL     1      10.879   0.659  25.201  0.00  0.00    -0.386 OA
ATOM      7  H   UNL     1      10.491   1.163  25.940  0.00  0.00    +0.210 HD
ENDBRANCH   2   6
BRANCH   3   8
ATOM      8  O   UNL     1       7.875  -0.999  25.128  0.00  0.00    -0.383 OA
ATOM      9  H   UNL     1       7.777  -0.264  25.758  0.00  0.00    +0.210 HD
ENDBRANCH   3   8
BRANCH   4  10
ATOM     10  O   UNL     1       9.900  -3.311  24.126  0.00  0.00    -0.461 OA
BRANCH  10  11
ATOM     11  C   UNL     1       8.917  -4.047  24.728  0.00  0.00    +0.124 A 
ATOM     12  C   UNL     1       7.816  -4.342  23.919  0.00  0.00    +0.052 A 
ATOM     13  C   UNL     1       6.748  -5.092  24.417  0.00  0.00    +0.088 A 
ATOM     14  C   UNL     1       6.781  -5.537  25.743  0.00  0.00    +0.273 A 
ATOM     15  C   UNL     1       7.870  -5.228  26.569  0.00  0.00    +0.088 A 
ATOM     16  C   UNL     1       8.933  -4.476  26.057  0.00  0.00    +0.052 A 
BRANCH  14  17
ATOM     17  N   UNL     1       5.663  -6.324  26.278  0.00  0.00    +0.080 N 
ATOM     18  O   UNL     1       5.763  -6.754  27.437  0.00  0.00    +0.041 OA
ATOM     19  O   UNL     1       4.684  -6.510  25.542  0.00  0.00    -0.576 OA
ENDBRANCH  14  17
ENDBRANCH  10  11
ENDBRANCH   4  10
BRANCH   1  20
ATOM     20  C   UNL     1       9.500   0.523  21.790  0.00  0.00    +0.190 C 
BRANCH  20  21
ATOM     21  O   UNL     1       9.815   1.863  21.431  0.00  0.00    -0.392 OA
ATOM     22  H   UNL     1      10.736   1.868  21.117  0.00  0.00    +0.210 HD
ENDBRANCH  20  21
ENDBRANCH   1  20
TORSDOF 7
ENDMDL
MODEL 3
REMARK VINA RESULT:      -6.2      1.090      1.743
REMARK  Name = 
REMARK  7 active torsions:
REMARK  status: ('A' for Active; 'I' for Inactive)
REMARK    1  A    between atoms: C_2  and  C_3
REMARK    2  A    between atoms: C_3  and  O_4
REMARK    3  A    between atoms: C_6  and  O_8
REMARK    4  A    between atoms: O_8  and  C_9
REMARK    5  A    between atoms: C_12  and  N_15
REMARK    6  A    between atoms: C_18  and  O_20
REMARK    7  A    between atoms: C_21  and  O_23
REMARK                            x       y       z     vdW  Elec       q    Type
REMARK                         _______ _______ _______ _____ _____    ______ ____
ROOT
ATOM      1  C   UNL     1       7.944  -4.818  23.951  0.00  0.00    +0.179 C 
ATOM      2  C   UNL     1       7.059  -4.287  22.822  0.00  0.00    +0.180 C 
ATOM      3  C   UNL     1       7.625  -2.915  22.473  0.00  0.00    +0.214 C 
ATOM      4  C   UNL     1       8.777  -2.716  23.464  0.00  0.00    +0.339 C 
ATOM      5  O   UNL     1       9.147  -4.021  23.933  0.00  0.00    -0.331 OA
ENDROOT
BRANCH   2   6
ATOM      6  O   UNL     1       7.188  -5.155  21.680  0.00  0.00    -0.386 OA
ATOM      7  H   UNL     1       8.137  -5.251  21.476  0.00  0.00    +0.210 HD
ENDBRANCH   2   6
BRANCH   3   8
ATOM      8  O   UNL     1       6.629  -1.895  22.594  0.00  0.00    -0.383 OA
ATOM      9  H   UNL     1       5.955  -2.067  21.915  0.00  0.00    +0.210 HD
ENDBRANCH   3   8
BRANCH   4  10
ATOM     10  O   UNL     1       9.853  -2.062  22.782  0.00  0.00    -0.461 OA
BRANCH  10  11
ATOM     11  C   UNL     1      10.022  -0.733  23.053  0.00  0.00    +0.124 A 
ATOM     12  C   UNL     1       9.871   0.121  21.957  0.00  0.00    +0.052 A 
ATOM     13  C   UNL     1      10.014   1.503  22.106  0.00  0.00    +0.088 A 
ATOM     14  C   UNL     1      10.326   2.028  23.364  0.00  0.00    +0.273 A 
ATOM     15  C   UNL     1      10.502   1.180  24.465  0.00  0.00    +0.088 A 
ATOM     16  C   UNL     1      10.355  -0.202  24.302  0.00  0.00    +0.052 A 
BRANCH  14  17
ATOM     17  N   UNL     1      10.481   3.479  23.533  0.00  0.00    +0.080 N 
ATOM     18  O   UNL     1      11.588   3.974  23.274  0.00  0.00    +0.041 OA
ATOM     19  O   UNL     1       9.496   4.123  23.920  0.00  0.00    -0.576 OA
ENDBRANCH  14  17
ENDBRANCH  10  11
ENDBRANCH   4  10
BRANCH   1  20
ATOM     20  C   UNL     1       7.288  -4.747  25.337  0.00  0.00    +0.190 C 
BRANCH  20  21
ATOM     21  O   UNL     1       5.944  -4.282  25.281  0.00  0.00    -0.392 OA
ATOM     22  H   UNL     1       5.565  -4.601  24.443  0.00  0.00    +0.210 HD
ENDBRANCH  20  21
ENDBRANCH   1  20
TORSDOF 7
ENDMDL
MODEL 4
REMARK VINA RESULT:      -6.1      3.130      6.808
REMARK  Name = 
REMARK  7 active torsions:
REMARK  status: ('A' for Active; 'I' for Inactive)
REMARK    1  A    between atoms: C_2  and  C_3
REMARK    2  A    between atoms: C_3  and  O_4
REMARK    3  A    between atoms: C_6  and  O_8
REMARK    4  A    between atoms: O_8  and  C_9
REMARK    5  A    between atoms: C_12  and  N_15
REMARK    6  A    between atoms: C_18  and  O_20
REMARK    7  A    between atoms: C_21  and  O_23
REMARK                            x       y       z     vdW  Elec       q    Type
REMARK                         _______ _______ _______ _____ _____    ______ ____
ROOT
ATOM      1  C   UNL     1       9.487   1.239  23.449  0.00  0.00    +0.179 C 
ATOM      2  C   UNL     1       9.796   0.857  22.000  0.00  0.00    +0.180 C 
ATOM      3  C   UNL     1       9.209  -0.537  21.813  0.00  0.00    +0.214 C 
ATOM      4  C   UNL     1       8.639  -0.897  23.190  0.00  0.00    +0.339 C 
ATOM      5  O   UNL     1       8.450   0.340  23.893  0.00  0.00    -0.331 OA
ENDROOT
BRANCH   2   6
ATOM      6  O   UNL     1       9.120   1.775  21.120  0.00  0.00    -0.386 OA
ATOM      7  H   UNL     1       9.163   2.664  21.517  0.00  0.00    +0.210 HD
ENDBRANCH   2   6
BRANCH   3   8
ATOM      8  O   UNL     1      10.207  -1.469  21.384  0.00  0.00    -0.383 OA
ATOM      9  H   UNL     1       9.764  -2.127  20.820  0.00  0.00    +0.210 HD
ENDBRANCH   3   8
BRANCH   4  10
ATOM     10  O   UNL     1       7.409  -1.604  22.999  0.00  0.00    -0.461 OA
BRANCH  10  11
ATOM     11  C   UNL     1       7.140  -2.601  23.895  0.00  0.00    +0.124 A 
ATOM     12  C   UNL     1       8.255  -3.117  24.563  0.00  0.00    +0.052 A 
ATOM     13  C   UNL     1       8.110  -4.136  25.507  0.00  0.00    +0.088 A 
ATOM     14  C   UNL     1       6.836  -4.652  25.771  0.00  0.00    +0.273 A 
ATOM     15  C   UNL     1       5.715  -4.158  25.091  0.00  0.00    +0.088 A 
ATOM     16  C   UNL     1       5.874  -3.136  24.148  0.00  0.00    +0.052 A 
BRANCH  14  17
ATOM     17  N   UNL     1       6.673  -5.725  26.760  0.00  0.00    +0.080 N 
ATOM     18  O   UNL     1       7.461  -5.752  27.717  0.00  0.00    +0.041 OA
ATOM     19  O   UNL     1       5.755  -6.538  26.581  0.00  0.00    -0.576 OA
ENDBRANCH  14  17
ENDBRANCH  10  11
ENDBRANCH   4  10
BRANCH   1  20
ATOM     20  C   UNL     1      10.700   1.147  24.385  0.00  0.00    +0.190 C 
BRANCH  20  21
ATOM     21  O   UNL     1      10.407   0.449  25.590  0.00  0.00    -0.392 OA
ATOM     22  H   UNL     1      11.111   0.665  26.226  0.00  0.00    +0.210 HD
ENDBRANCH  20  21
ENDBRANCH   1  20
TORSDOF 7
ENDMDL
MODEL 5
REMARK VINA RESULT:      -6.0      3.450      7.279
REMARK  Name = 
REMARK  7 active torsions:
REMARK  status: ('A' for Active; 'I' for Inactive)
REMARK    1  A    between atoms: C_2  and  C_3
REMARK    2  A    between atoms: C_3  and  O_4
REMARK    3  A    between atoms: C_6  and  O_8
REMARK    4  A    between atoms: O_8  and  C_9
REMARK    5  A    between atoms: C_12  and  N_15
REMARK    6  A    between atoms: C_18  and  O_20
REMARK    7  A    between atoms: C_21  and  O_23
REMARK                            x       y       z     vdW  Elec       q    Type
REMARK                         _______ _______ _______ _____ _____    ______ ____
ROOT
ATOM      1  C   UNL     1       8.578   0.677  23.371  0.00  0.00    +0.179 C 
ATOM      2  C   UNL     1       9.457   0.485  22.133  0.00  0.00    +0.180 C 
ATOM      3  C   UNL     1       9.256  -0.966  21.712  0.00  0.00    +0.214 C 
ATOM      4  C   UNL     1       8.307  -1.540  22.770  0.00  0.00    +0.339 C 
ATOM      5  O   UNL     1       7.644  -0.422  23.379  0.00  0.00    -0.331 OA
ENDROOT
BRANCH   2   6
ATOM      6  O   UNL     1       8.982   1.351  21.085  0.00  0.00    -0.386 OA
ATOM      7  H   UNL     1       8.959   2.262  21.430  0.00  0.00    +0.210 HD
ENDBRANCH   2   6
BRANCH   3   8
ATOM      8  O   UNL     1      10.499  -1.672  21.666  0.00  0.00    -0.383 OA
ATOM      9  H   UNL     1      10.727  -1.917  22.579  0.00  0.00    +0.210 HD
ENDBRANCH   3   8
BRANCH   4  10
ATOM     10  O   UNL     1       7.388  -2.426  22.121  0.00  0.00    -0.461 OA
BRANCH  10  11
ATOM     11  C   UNL     1       6.907  -3.459  22.877  0.00  0.00    +0.124 A 
ATOM     12  C   UNL     1       5.570  -3.792  22.645  0.00  0.00    +0.052 A 
ATOM     13  C   UNL     1       4.963  -4.834  23.351  0.00  0.00    +0.088 A 
ATOM     14  C   UNL     1       5.704  -5.537  24.308  0.00  0.00    +0.273 A 
ATOM     15  C   UNL     1       7.039  -5.196  24.564  0.00  0.00    +0.088 A 
ATOM     16  C   UNL     1       7.634  -4.151  23.849  0.00  0.00    +0.052 A 
BRANCH  14  17
ATOM     17  N   UNL     1       5.077  -6.632  25.057  0.00  0.00    +0.080 N 
ATOM     18  O   UNL     1       5.371  -6.753  26.256  0.00  0.00    +0.041 OA
ATOM     19  O   UNL     1       4.289  -7.370  24.449  0.00  0.00    -0.576 OA
ENDBRANCH  14  17
ENDBRANCH  10  11
ENDBRANCH   4  10
BRANCH   1  20
ATOM     20  C   UNL     1       9.364   0.707  24.689  0.00  0.00    +0.190 C 
BRANCH  20  21
ATOM     21  O   UNL     1      10.763   0.537  24.494  0.00  0.00    -0.392 OA
ATOM     22  H   UNL     1      10.973   0.880  23.608  0.00  0.00    +0.210 HD
ENDBRANCH  20  21
ENDBRANCH   1  20
TORSDOF 7
ENDMDL
MODEL 6
REMARK VINA RESULT:      -5.8      3.215      6.605
REMARK  Name = 
REMARK  7 active torsions:
REMARK  status: ('A' for Active; 'I' for Inactive)
REMARK    1  A    between atoms: C_2  and  C_3
REMARK    2  A    between atoms: C_3  and  O_4
REMARK    3  A    between atoms: C_6  and  O_8
REMARK    4  A    between atoms: O_8  and  C_9
REMARK    5  A    between atoms: C_12  and  N_15
REMARK    6  A    between atoms: C_18  and  O_20
REMARK    7  A    between atoms: C_21  and  O_23
REMARK                            x       y       z     vdW  Elec       q    Type
REMARK                         _______ _______ _______ _____ _____    ______ ____
ROOT
ATOM      1  C   UNL     1       8.467  -0.101  24.340  0.00  0.00    +0.179 C 
ATOM      2  C   UNL     1       8.017  -0.273  22.888  0.00  0.00    +0.180 C 
ATOM      3  C   UNL     1       8.763  -1.498  22.373  0.00  0.00    +0.214 C 
ATOM      4  C   UNL     1       9.642  -1.931  23.551  0.00  0.00    +0.339 C 
ATOM      5  O   UNL     1       9.061  -1.357  24.731  0.00  0.00    -0.331 OA
ENDROOT
BRANCH   2   6
ATOM      6  O   UNL     1       6.602  -0.538  22.865  0.00  0.00    -0.386 OA
ATOM      7  H   UNL     1       6.216  -0.066  22.104  0.00  0.00    +0.210 HD
ENDBRANCH   2   6
BRANCH   3   8
ATOM      8  O   UNL     1       9.537  -1.187  21.211  0.00  0.00    -0.383 OA
ATOM      9  H   UNL     1       9.695  -0.228  21.217  0.00  0.00    +0.210 HD
ENDBRANCH   3   8
BRANCH   4  10
ATOM     10  O   UNL     1       9.662  -3.362  23.600  0.00  0.00    -0.461 OA
BRANCH  10  11
ATOM     11  C   UNL     1       8.792  -3.949  24.477  0.00  0.00    +0.124 A 
ATOM     12  C   UNL     1       9.372  -4.441  25.649  0.00  0.00    +0.052 A 
ATOM     13  C   UNL     1       8.587  -5.058  26.627  0.00  0.00    +0.088 A 
ATOM     14  C   UNL     1       7.211  -5.195  26.416  0.00  0.00    +0.273 A 
ATOM     15  C   UNL     1       6.623  -4.726  25.234  0.00  0.00    +0.088 A 
ATOM     16  C   UNL     1       7.420  -4.109  24.264  0.00  0.00    +0.052 A 
BRANCH  14  17
ATOM     17  N   UNL     1       6.376  -5.844  27.435  0.00  0.00    +0.080 N 
ATOM     18  O   UNL     1       5.577  -6.714  27.057  0.00  0.00    +0.041 OA
ATOM     19  O   UNL     1       6.522  -5.487  28.613  0.00  0.00    -0.576 OA
ENDBRANCH  14  17
ENDBRANCH  10  11
ENDBRANCH   4  10
BRANCH   1  20
ATOM     20  C   UNL     1       9.472   1.041  24.546  0.00  0.00    +0.190 C 
BRANCH  20  21
ATOM     21  O   UNL     1      10.558   0.668  25.385  0.00  0.00    -0.392 OA
ATOM     22  H   UNL     1      11.374   0.782  24.867  0.00  0.00    +0.210 HD
ENDBRANCH  20  21
ENDBRANCH   1  20
TORSDOF 7
ENDMDL
MODEL 7
REMARK VINA RESULT:      -5.7      1.434      2.473
REMARK  Name = 
REMARK  7 active torsions:
REMARK  status: ('A' for Active; 'I' for Inactive)
REMARK    1  A    between atoms: C_2  and  C_3
REMARK    2  A    between atoms: C_3  and  O_4
REMARK    3  A    between atoms: C_6  and  O_8
REMARK    4  A    between atoms: O_8  and  C_9
REMARK    5  A    between atoms: C_12  and  N_15
REMARK    6  A    between atoms: C_18  and  O_20
REMARK    7  A    between atoms: C_21  and  O_23
REMARK                            x       y       z     vdW  Elec       q    Type
REMARK                         _______ _______ _______ _____ _____    ______ ____
ROOT
ATOM      1  C   UNL     1       6.959  -4.036  25.340  0.00  0.00    +0.179 C 
ATOM      2  C   UNL     1       7.874  -5.153  25.845  0.00  0.00    +0.180 C 
ATOM      3  C   UNL     1       9.177  -4.992  25.070  0.00  0.00    +0.214 C 
ATOM      4  C   UNL     1       8.914  -3.817  24.123  0.00  0.00    +0.339 C 
ATOM      5  O   UNL     1       7.812  -3.081  24.677  0.00  0.00    -0.331 OA
ENDROOT
BRANCH   2   6
ATOM      6  O   UNL     1       8.131  -4.949  27.248  0.00  0.00    -0.386 OA
ATOM      7  H   UNL     1       7.580  -4.204  27.552  0.00  0.00    +0.210 HD
ENDBRANCH   2   6
BRANCH   3   8
ATOM      8  O   UNL     1       9.513  -6.189  24.362  0.00  0.00    -0.383 OA
ATOM      9  H   UNL     1       8.779  -6.380  23.752  0.00  0.00    +0.210 HD
ENDBRANCH   3   8
BRANCH   4  10
ATOM     10  O   UNL     1      10.104  -3.026  24.040  0.00  0.00    -0.461 OA
BRANCH  10  11
ATOM     11  C   UNL     1       9.945  -1.735  23.619  0.00  0.00    +0.124 A 
ATOM     12  C   UNL     1      10.009  -0.770  24.627  0.00  0.00    +0.052 A 
ATOM     13  C   UNL     1       9.865   0.586  24.324  0.00  0.00    +0.088 A 
ATOM     14  C   UNL     1       9.642   0.973  22.998  0.00  0.00    +0.273 A 
ATOM     15  C   UNL     1       9.554   0.012  21.983  0.00  0.00    +0.088 A 
ATOM     16  C   UNL     1       9.700  -1.343  22.300  0.00  0.00    +0.052 A 
BRANCH  14  17
ATOM     17  N   UNL     1       9.488   2.396  22.668  0.00  0.00    +0.080 N 
ATOM     18  O   UNL     1      10.314   3.190  23.142  0.00  0.00    +0.041 OA
ATOM     19  O   UNL     1       8.544   2.718  21.933  0.00  0.00    -0.576 OA
ENDBRANCH  14  17
ENDBRANCH  10  11
ENDBRANCH   4  10
BRANCH   1  20
ATOM     20  C   UNL     1       5.865  -4.520  24.378  0.00  0.00    +0.190 C 
BRANCH  20  21
ATOM     21  O   UNL     1       5.694  -5.932  24.412  0.00  0.00    -0.392 OA
ATOM     22  H   UNL     1       4.764  -6.104  24.642  0.00  0.00    +0.210 HD
ENDBRANCH  20  21
ENDBRANCH   1  20
TORSDOF 7
ENDMDL
MODEL 8
REMARK VINA RESULT:      -5.7      2.985      7.041
REMARK  Name = 
REMARK  7 active torsions:
REMARK  status: ('A' for Active; 'I' for Inactive)
REMARK    1  A    between atoms: C_2  and  C_3
REMARK    2  A    between atoms: C_3  and  O_4
REMARK    3  A    between atoms: C_6  and  O_8
REMARK    4  A    between atoms: O_8  and  C_9
REMARK    5  A    between atoms: C_12  and  N_15
REMARK    6  A    between atoms: C_18  and  O_20
REMARK    7  A    between atoms: C_21  and  O_23
REMARK                            x       y       z     vdW  Elec       q    Type
REMARK                         _______ _______ _______ _____ _____    ______ ____
ROOT
ATOM      1  C   UNL     1       8.259   1.699  22.951  0.00  0.00    +0.179 C 
ATOM      2  C   UNL     1       9.781   1.845  22.900  0.00  0.00    +0.180 C 
ATOM      3  C   UNL     1      10.335   0.540  23.459  0.00  0.00    +0.214 C 
ATOM      4  C   UNL     1       9.090  -0.265  23.848  0.00  0.00    +0.339 C 
ATOM      5  O   UNL     1       7.993   0.289  23.107  0.00  0.00    -0.331 OA
ENDROOT
BRANCH   2   6
ATOM      6  O   UNL     1      10.192   1.982  21.526  0.00  0.00    -0.386 OA
ATOM      7  H   UNL     1       9.782   1.262  21.013  0.00  0.00    +0.210 HD
ENDBRANCH   2   6
BRANCH   3   8
ATOM      8  O   UNL     1      11.194   0.775  24.578  0.00  0.00    -0.383 OA
ATOM      9  H   UNL     1      10.648   1.154  25.288  0.00  0.00    +0.210 HD
ENDBRANCH   3   8
BRANCH   4  10
ATOM     10  O   UNL     1       9.320  -1.641  23.525  0.00  0.00    -0.461 OA
BRANCH  10  11
ATOM     11  C   UNL     1       8.762  -2.561  24.368  0.00  0.00    +0.124 A 
ATOM     12  C   UNL     1       8.318  -3.736  23.754  0.00  0.00    +0.052 A 
ATOM     13  C   UNL     1       7.734  -4.756  24.509  0.00  0.00    +0.088 A 
ATOM     14  C   UNL     1       7.582  -4.587  25.890  0.00  0.00    +0.273 A 
ATOM     15  C   UNL     1       8.004  -3.405  26.512  0.00  0.00    +0.088 A 
ATOM     16  C   UNL     1       8.588  -2.391  25.744  0.00  0.00    +0.052 A 
BRANCH  14  17
ATOM     17  N   UNL     1       6.968  -5.652  26.693  0.00  0.00    +0.080 N 
ATOM     18  O   UNL     1       7.418  -5.847  27.833  0.00  0.00    +0.041 OA
ATOM     19  O   UNL     1       6.035  -6.291  26.188  0.00  0.00    -0.576 OA
ENDBRANCH  14  17
ENDBRANCH  10  11
ENDBRANCH   4  10
BRANCH   1  20
ATOM     20  C   UNL     1       7.599   2.487  24.090  0.00  0.00    +0.190 C 
BRANCH  20  21
ATOM     21  O   UNL     1       8.551   3.123  24.936  0.00  0.00    -0.392 OA
ATOM     22  H   UNL     1       8.773   2.492  25.643  0.00  0.00    +0.210 HD
ENDBRANCH  20  21
ENDBRANCH   1  20
TORSDOF 7
ENDMDL
MODEL 9
REMARK VINA RESULT:      -5.6      3.198      6.895
REMARK  Name = 
REMARK  7 active torsions:
REMARK  status: ('A' for Active; 'I' for Inactive)
REMARK    1  A    between atoms: C_2  and  C_3
REMARK    2  A    between atoms: C_3  and  O_4
REMARK    3  A    between atoms: C_6  and  O_8
REMARK    4  A    between atoms: O_8  and  C_9
REMARK    5  A    between atoms: C_12  and  N_15
REMARK    6  A    between atoms: C_18  and  O_20
REMARK    7  A    between atoms: C_21  and  O_23
REMARK                            x       y       z     vdW  Elec       q    Type
REMARK                         _______ _______ _______ _____ _____    ______ ____
ROOT
ATOM      1  C   UNL     1       8.832   0.133  21.934  0.00  0.00    +0.179 C 
ATOM      2  C   UNL     1      10.153  -0.357  22.529  0.00  0.00    +0.180 C 
ATOM      3  C   UNL     1       9.865  -0.613  24.004  0.00  0.00    +0.214 C 
ATOM      4  C   UNL     1       8.399  -0.204  24.181  0.00  0.00    +0.339 C 
ATOM      5  O   UNL     1       7.802  -0.234  22.876  0.00  0.00    -0.331 OA
ENDROOT
BRANCH   2   6
ATOM      6  O   UNL     1      10.519  -1.598  21.897  0.00  0.00    -0.386 OA
ATOM      7  H   UNL     1      10.813  -1.402  20.988  0.00  0.00    +0.210 HD
ENDBRANCH   2   6
BRANCH   3   8
ATOM      8  O   UNL     1      10.740   0.145  24.845  0.00  0.00    -0.383 OA
ATOM      9  H   UNL     1      11.335   0.650  24.264  0.00  0.00    +0.210 HD
ENDBRANCH   3   8
BRANCH   4  10
ATOM     10  O   UNL     1       7.777  -1.127  25.081  0.00  0.00    -0.461 OA
BRANCH  10  11
ATOM     11  C   UNL     1       7.378  -2.319  24.544  0.00  0.00    +0.124 A 
ATOM     12  C   UNL     1       6.007  -2.428  24.292  0.00  0.00    +0.052 A 
ATOM     13  C   UNL     1       5.476  -3.596  23.739  0.00  0.00    +0.088 A 
ATOM     14  C   UNL     1       6.328  -4.668  23.451  0.00  0.00    +0.273 A 
ATOM     15  C   UNL     1       7.700  -4.578  23.720  0.00  0.00    +0.088 A 
ATOM     16  C   UNL     1       8.219  -3.402  24.274  0.00  0.00    +0.052 A 
BRANCH  14  17
ATOM     17  N   UNL     1       5.781  -5.901  22.871  0.00  0.00    +0.080 N 
ATOM     18  O   UNL     1       5.027  -6.586  23.579  0.00  0.00    +0.041 OA
ATOM     19  O   UNL     1       6.101  -6.183  21.708  0.00  0.00    -0.576 OA
ENDBRANCH  14  17
ENDBRANCH  10  11
ENDBRANCH   4  10
BRANCH   1  20
ATOM     20  C   UNL     1       8.792   1.645  21.675  0.00  0.00    +0.190 C 
BRANCH  20  21
ATOM     21  O   UNL     1      10.092   2.218  21.586  0.00  0.00    -0.392 OA
ATOM     22  H   UNL     1      10.606   1.667  20.970  0.00  0.00    +0.210 HD
ENDBRANCH  20  21
ENDBRANCH   1  20
TORSDOF 7
ENDMDL
