MODEL 1
REMARK VINA RESULT:      -6.9      0.000      0.000
REMARK  Name = 
REMARK  13 active torsions:
REMARK  status: ('A' for Active; 'I' for Inactive)
REMARK    1  A    between atoms: C_1  and  C_2
REMARK    2  A    between atoms: C_2  and  C_3
REMARK    3  A    between atoms: C_3  and  C_4
REMARK    4  A    between atoms: C_4  and  C_5
REMARK    5  A    between atoms: C_8  and  C_9
REMARK    6  A    between atoms: C_10  and  C_11
REMARK    7  A    between atoms: C_10  and  C_17
REMARK    8  A    between atoms: C_11  and  C_12
REMARK    9  A    between atoms: C_17  and  O_18
REMARK   10  A    between atoms: N_20  and  C_21
REMARK   11  A    between atoms: C_21  and  C_22
REMARK   12  A    between atoms: C_25  and  C_28
REMARK   13  A    between atoms: C_28  and  O_29
REMARK                            x       y       z     vdW  Elec       q    Type
REMARK                         _______ _______ _______ _____ _____    ______ ____
ROOT
ATOM      1  C   UNL     1       9.170  -0.946  23.711  0.00  0.00    +0.110 A 
ATOM      2  N   UNL     1       7.814  -1.209  23.592  0.00  0.00    -0.324 N 
ATOM      3  C   UNL     1       7.661  -2.063  22.512  0.00  0.00    +0.062 A 
ATOM      4  C   UNL     1       8.883  -2.026  21.875  0.00  0.00    +0.138 A 
ATOM      5  N   UNL     1       9.801  -1.342  22.622  0.00  0.00    -0.240 NA
ENDROOT
BRANCH   3   6
ATOM      6  C   UNL     1       6.506  -2.857  22.313  0.00  0.00    +0.038 C 
ATOM      7  C   UNL     1       6.421  -4.182  22.524  0.00  0.00    +0.043 C 
BRANCH   7   8
ATOM      8  C   UNL     1       5.096  -4.852  22.390  0.00  0.00    +0.333 C 
ATOM      9  O   UNL     1       4.066  -4.379  22.842  0.00  0.00    -0.245 OA
BRANCH   8  10
ATOM     10  O   UNL     1       5.117  -6.059  21.790  0.00  0.00    -0.477 OA
ATOM     11  H   UNL     1       4.335  -6.625  21.911  0.00  0.00    +0.295 HD
ENDBRANCH   8  10
ENDBRANCH   7   8
BRANCH   7  12
ATOM     12  C   UNL     1       7.515  -5.086  23.055  0.00  0.00    +0.084 C 
BRANCH  12  13
ATOM     13  C   UNL     1       7.814  -5.039  24.541  0.00  0.00    -0.006 A 
ATOM     14  S   UNL     1       9.387  -4.552  25.043  0.00  0.00    -0.101 S 
ATOM     15  C   UNL     1       8.942  -4.569  26.691  0.00  0.00    +0.045 A 
ATOM     16  C   UNL     1       7.648  -4.998  26.871  0.00  0.00    +0.008 A 
ATOM     17  C   UNL     1       7.006  -5.298  25.632  0.00  0.00    +0.011 A 
ENDBRANCH  12  13
ENDBRANCH   7  12
ENDBRANCH   3   6
BRANCH   1  18
ATOM     18  C   UNL     1       9.822  -0.251  24.868  0.00  0.00    +0.074 C 
BRANCH  18  19
ATOM     19  C   UNL     1      10.924   0.739  24.452  0.00  0.00    +0.007 C 
BRANCH  19  21
ATOM     20  C   UNL     1      10.403   2.233  22.464  0.00  0.00    +0.004 C 
ATOM     21  C   UNL     1      10.393   2.099  23.984  0.00  0.00    -0.003 C 
ENDBRANCH  19  21
ENDBRANCH  18  19
ENDBRANCH   1  18
BRANCH   2  22
ATOM     22  C   UNL     1       6.758  -0.398  24.187  0.00  0.00    +0.158 C 
BRANCH  22  23
ATOM     23  C   UNL     1       6.710   1.056  23.794  0.00  0.00    -0.028 A 
ATOM     24  C   UNL     1       6.730   1.501  22.467  0.00  0.00    +0.006 A 
ATOM     25  C   UNL     1       6.870   2.864  22.186  0.00  0.00    +0.015 A 
ATOM     26  C   UNL     1       6.988   3.798  23.222  0.00  0.00    +0.059 A 
ATOM     27  C   UNL     1       6.955   3.365  24.551  0.00  0.00    +0.015 A 
ATOM     28  C   UNL     1       6.812   2.004  24.828  0.00  0.00    +0.006 A 
BRANCH  26  29
ATOM     29  C   UNL     1       7.242   5.216  22.869  0.00  0.00    +0.337 C 
ATOM     30  O   UNL     1       7.336   6.093  23.710  0.00  0.00    -0.245 OA
BRANCH  29  31
ATOM     31  O   UNL     1       7.381   5.437  21.546  0.00  0.00    -0.477 OA
ATOM     32  H   UNL     1       8.246   5.793  21.270  0.00  0.00    +0.295 HD
ENDBRANCH  29  31
ENDBRANCH  26  29
ENDBRANCH  22  23
ENDBRANCH   2  22
TORSDOF 12
ENDMDL
MODEL 2
REMARK VINA RESULT:      -6.7      3.152      4.752
REMARK  Name = 
REMARK  13 active torsions:
REMARK  status: ('A' for Active; 'I' for Inactive)
REMARK    1  A    between atoms: C_1  and  C_2
REMARK    2  A    between atoms: C_2  and  C_3
REMARK    3  A    between atoms: C_3  and  C_4
REMARK    4  A    between atoms: C_4  and  C_5
REMARK    5  A    between atoms: C_8  and  C_9
REMARK    6  A    between atoms: C_10  and  C_11
REMARK    7  A    between atoms: C_10  and  C_17
REMARK    8  A    between atoms: C_11  and  C_12
REMARK    9  A    between atoms: C_17  and  O_18
REMARK   10  A    between atoms: N_20  and  C_21
REMARK   11  A    between atoms: C_21  and  C_22
REMARK   12  A    between atoms: C_25  and  C_28
REMARK   13  A    between atoms: C_28  and  O_29
REMARK                            x       y       z     vdW  Elec       q    Type
REMARK                         _______ _______ _______ _____ _____    ______ ____
ROOT
ATOM      1  C   UNL     1       9.768   0.207  22.328  0.00  0.00    +0.110 A 
ATOM      2  N   UNL     1       9.693  -0.418  23.563  0.00  0.00    -0.324 N 
ATOM      3  C   UNL     1       9.558  -1.775  23.321  0.00  0.00    +0.062 A 
ATOM      4  C   UNL     1       9.265  -1.853  21.977  0.00  0.00    +0.138 A 
ATOM      5  N   UNL     1       9.402  -0.632  21.378  0.00  0.00    -0.240 NA
ENDROOT
BRANCH   3   6
ATOM      6  C   UNL     1       9.839  -2.765  24.294  0.00  0.00    +0.038 C 
ATOM      7  C   UNL     1       8.936  -3.585  24.859  0.00  0.00    +0.043 C 
BRANCH   7   8
ATOM      8  C   UNL     1       9.410  -4.662  25.775  0.00  0.00    +0.333 C 
ATOM      9  O   UNL     1       9.075  -4.731  26.946  0.00  0.00    -0.245 OA
BRANCH   8  10
ATOM     10  O   UNL     1      10.294  -5.528  25.240  0.00  0.00    -0.477 OA
ATOM     11  H   UNL     1      10.959  -5.905  25.841  0.00  0.00    +0.295 HD
ENDBRANCH   8  10
ENDBRANCH   7   8
BRANCH   7  12
ATOM     12  C   UNL     1       7.455  -3.654  24.547  0.00  0.00    +0.084 C 
BRANCH  12  13
ATOM     13  C   UNL     1       7.027  -4.407  23.303  0.00  0.00    -0.006 A 
ATOM     14  S   UNL     1       5.852  -3.685  22.273  0.00  0.00    -0.101 S 
ATOM     15  C   UNL     1       6.011  -4.924  21.108  0.00  0.00    +0.045 A 
ATOM     16  C   UNL     1       6.886  -5.904  21.514  0.00  0.00    +0.008 A 
ATOM     17  C   UNL     1       7.451  -5.621  22.794  0.00  0.00    +0.011 A 
ENDBRANCH  12  13
ENDBRANCH   7  12
ENDBRANCH   3   6
BRANCH   1  18
ATOM     18  C   UNL     1      10.139   1.642  22.102  0.00  0.00    +0.074 C 
BRANCH  18  19
ATOM     19  C   UNL     1       9.013   2.632  22.448  0.00  0.00    +0.007 C 
BRANCH  19  21
ATOM     20  C   UNL     1       6.585   3.315  22.141  0.00  0.00    +0.004 C 
ATOM     21  C   UNL     1       7.683   2.331  21.747  0.00  0.00    -0.003 C 
ENDBRANCH  19  21
ENDBRANCH  18  19
ENDBRANCH   1  18
BRANCH   2  22
ATOM     22  C   UNL     1       9.367   0.257  24.814  0.00  0.00    +0.158 C 
BRANCH  22  23
ATOM     23  C   UNL     1       8.010  -0.024  25.409  0.00  0.00    -0.028 A 
ATOM     24  C   UNL     1       7.821  -0.549  26.692  0.00  0.00    +0.006 A 
ATOM     25  C   UNL     1       6.547  -0.955  27.103  0.00  0.00    +0.015 A 
ATOM     26  C   UNL     1       5.449  -0.840  26.242  0.00  0.00    +0.059 A 
ATOM     27  C   UNL     1       5.626  -0.304  24.963  0.00  0.00    +0.015 A 
ATOM     28  C   UNL     1       6.899   0.103  24.557  0.00  0.00    +0.006 A 
BRANCH  26  29
ATOM     29  C   UNL     1       4.143  -1.385  26.686  0.00  0.00    +0.337 C 
ATOM     30  O   UNL     1       3.685  -1.164  27.794  0.00  0.00    -0.245 OA
BRANCH  29  31
ATOM     31  O   UNL     1       3.507  -2.121  25.753  0.00  0.00    -0.477 OA
ATOM     32  H   UNL     1       3.799  -3.048  25.682  0.00  0.00    +0.295 HD
ENDBRANCH  29  31
ENDBRANCH  26  29
ENDBRANCH  22  23
ENDBRANCH   2  22
TORSDOF 12
ENDMDL
MODEL 3
REMARK VINA RESULT:      -6.5      3.801      6.097
REMARK  Name = 
REMARK  13 active torsions:
REMARK  status: ('A' for Active; 'I' for Inactive)
REMARK    1  A    between atoms: C_1  and  C_2
REMARK    2  A    between atoms: C_2  and  C_3
REMARK    3  A    between atoms: C_3  and  C_4
REMARK    4  A    between atoms: C_4  and  C_5
REMARK    5  A    between atoms: C_8  and  C_9
REMARK    6  A    between atoms: C_10  and  C_11
REMARK    7  A    between atoms: C_10  and  C_17
REMARK    8  A    between atoms: C_11  and  C_12
REMARK    9  A    between atoms: C_17  and  O_18
REMARK   10  A    between atoms: N_20  and  C_21
REMARK   11  A    between atoms: C_21  and  C_22
REMARK   12  A    between atoms: C_25  and  C_28
REMARK   13  A    between atoms: C_28  and  O_29
REMARK                            x       y       z     vdW  Elec       q    Type
REMARK                         _______ _______ _______ _____ _____    ______ ____
ROOT
ATOM      1  C   UNL     1       8.393  -0.422  24.375  0.00  0.00    +0.110 A 
ATOM      2  N   UNL     1       8.419  -1.797  24.199  0.00  0.00    -0.324 N 
ATOM      3  C   UNL     1       7.491  -2.095  23.215  0.00  0.00    +0.062 A 
ATOM      4  C   UNL     1       6.762  -0.934  23.072  0.00  0.00    +0.138 A 
ATOM      5  N   UNL     1       7.328   0.086  23.785  0.00  0.00    -0.240 NA
ENDROOT
BRANCH   3   6
ATOM      6  C   UNL     1       7.499  -3.310  22.488  0.00  0.00    +0.038 C 
ATOM      7  C   UNL     1       6.467  -4.165  22.382  0.00  0.00    +0.043 C 
BRANCH   7   8
ATOM      8  C   UNL     1       6.591  -5.341  21.474  0.00  0.00    +0.333 C 
ATOM      9  O   UNL     1       5.934  -5.462  20.453  0.00  0.00    -0.245 OA
BRANCH   8  10
ATOM     10  O   UNL     1       7.438  -6.305  21.889  0.00  0.00    -0.477 OA
ATOM     11  H   UNL     1       8.348  -6.267  21.549  0.00  0.00    +0.295 HD
ENDBRANCH   8  10
ENDBRANCH   7   8
BRANCH   7  12
ATOM     12  C   UNL     1       5.082  -3.991  22.974  0.00  0.00    +0.084 C 
BRANCH  12  13
ATOM     13  C   UNL     1       4.467  -5.174  23.696  0.00  0.00    -0.006 A 
ATOM     14  S   UNL     1       2.808  -5.533  23.410  0.00  0.00    -0.101 S 
ATOM     15  C   UNL     1       2.886  -6.963  24.341  0.00  0.00    +0.045 A 
ATOM     16  C   UNL     1       4.123  -7.137  24.916  0.00  0.00    +0.008 A 
ATOM     17  C   UNL     1       5.028  -6.089  24.568  0.00  0.00    +0.011 A 
ENDBRANCH  12  13
ENDBRANCH   7  12
ENDBRANCH   3   6
BRANCH   1  18
ATOM     18  C   UNL     1       9.383   0.369  25.176  0.00  0.00    +0.074 C 
BRANCH  18  19
ATOM     19  C   UNL     1      10.663   0.724  24.399  0.00  0.00    +0.007 C 
BRANCH  19  21
ATOM     20  C   UNL     1      10.103   1.908  22.222  0.00  0.00    +0.004 C 
ATOM     21  C   UNL     1      10.589   2.066  23.660  0.00  0.00    -0.003 C 
ENDBRANCH  19  21
ENDBRANCH  18  19
ENDBRANCH   1  18
BRANCH   2  22
ATOM     22  C   UNL     1       8.969  -2.745  25.161  0.00  0.00    +0.158 C 
BRANCH  22  23
ATOM     23  C   UNL     1       7.983  -3.573  25.944  0.00  0.00    -0.028 A 
ATOM     24  C   UNL     1       6.821  -3.050  26.524  0.00  0.00    +0.006 A 
ATOM     25  C   UNL     1       6.054  -3.837  27.390  0.00  0.00    +0.015 A 
ATOM     26  C   UNL     1       6.434  -5.151  27.685  0.00  0.00    +0.059 A 
ATOM     27  C   UNL     1       7.585  -5.687  27.101  0.00  0.00    +0.015 A 
ATOM     28  C   UNL     1       8.347  -4.899  26.235  0.00  0.00    +0.006 A 
BRANCH  26  29
ATOM     29  C   UNL     1       5.647  -5.904  28.692  0.00  0.00    +0.337 C 
ATOM     30  O   UNL     1       4.913  -5.352  29.495  0.00  0.00    -0.245 OA
BRANCH  29  31
ATOM     31  O   UNL     1       5.800  -7.242  28.624  0.00  0.00    -0.477 OA
ATOM     32  H   UNL     1       4.977  -7.760  28.686  0.00  0.00    +0.295 HD
ENDBRANCH  29  31
ENDBRANCH  26  29
ENDBRANCH  22  23
ENDBRANCH   2  22
TORSDOF 12
ENDMDL
MODEL 4
REMARK VINA RESULT:      -6.5      2.646      4.232
REMARK  Name = 
REMARK  13 active torsions:
REMARK  status: ('A' for Active; 'I' for Inactive)
REMARK    1  A    between atoms: C_1  and  C_2
REMARK    2  A    between atoms: C_2  and  C_3
REMARK    3  A    between atoms: C_3  and  C_4
REMARK    4  A    between atoms: C_4  and  C_5
REMARK    5  A    between atoms: C_8  and  C_9
REMARK    6  A    between atoms: C_10  and  C_11
REMARK    7  A    between atoms: C_10  and  C_17
REMARK    8  A    between atoms: C_11  and  C_12
REMARK    9  A    between atoms: C_17  and  O_18
REMARK   10  A    between atoms: N_20  and  C_21
REMARK   11  A    between atoms: C_21  and  C_22
REMARK   12  A    between atoms: C_25  and  C_28
REMARK   13  A    between atoms: C_28  and  O_29
REMARK                            x       y       z     vdW  Elec       q    Type
REMARK                         _______ _______ _______ _____ _____    ______ ____
ROOT
ATOM      1  C   UNL     1       8.156  -3.159  26.408  0.00  0.00    +0.110 A 
ATOM      2  N   UNL     1       8.373  -3.675  25.140  0.00  0.00    -0.324 N 
ATOM      3  C   UNL     1       7.516  -4.752  24.991  0.00  0.00    +0.062 A 
ATOM      4  C   UNL     1       7.055  -4.999  26.266  0.00  0.00    +0.138 A 
ATOM      5  N   UNL     1       7.450  -4.012  27.125  0.00  0.00    -0.240 NA
ENDROOT
BRANCH   3   6
ATOM      6  C   UNL     1       7.161  -5.287  23.729  0.00  0.00    +0.038 C 
ATOM      7  C   UNL     1       6.188  -4.820  22.926  0.00  0.00    +0.043 C 
BRANCH   7   8
ATOM      8  C   UNL     1       6.022  -5.414  21.569  0.00  0.00    +0.333 C 
ATOM      9  O   UNL     1       5.921  -4.738  20.558  0.00  0.00    -0.245 OA
BRANCH   8  10
ATOM     10  O   UNL     1       5.922  -6.758  21.535  0.00  0.00    -0.477 OA
ATOM     11  H   UNL     1       5.026  -7.134  21.583  0.00  0.00    +0.295 HD
ENDBRANCH   8  10
ENDBRANCH   7   8
BRANCH   7  12
ATOM     12  C   UNL     1       5.308  -3.612  23.180  0.00  0.00    +0.084 C 
BRANCH  12  13
ATOM     13  C   UNL     1       4.150  -3.770  24.146  0.00  0.00    -0.006 A 
ATOM     14  S   UNL     1       2.983  -4.995  23.831  0.00  0.00    -0.101 S 
ATOM     15  C   UNL     1       2.176  -4.703  25.308  0.00  0.00    +0.045 A 
ATOM     16  C   UNL     1       2.734  -3.654  26.001  0.00  0.00    +0.008 A 
ATOM     17  C   UNL     1       3.856  -3.096  25.317  0.00  0.00    +0.011 A 
ENDBRANCH  12  13
ENDBRANCH   7  12
ENDBRANCH   3   6
BRANCH   1  18
ATOM     18  C   UNL     1       8.697  -1.859  26.922  0.00  0.00    +0.074 C 
BRANCH  18  19
ATOM     19  C   UNL     1       7.648  -0.734  26.985  0.00  0.00    +0.007 C 
BRANCH  19  21
ATOM     20  C   UNL     1       7.596   1.271  25.425  0.00  0.00    +0.004 C 
ATOM     21  C   UNL     1       7.229  -0.199  25.611  0.00  0.00    -0.003 C 
ENDBRANCH  19  21
ENDBRANCH  18  19
ENDBRANCH   1  18
BRANCH   2  22
ATOM     22  C   UNL     1       9.561  -3.417  24.334  0.00  0.00    +0.158 C 
BRANCH  22  23
ATOM     23  C   UNL     1       9.596  -2.124  23.562  0.00  0.00    -0.028 A 
ATOM     24  C   UNL     1      10.505  -1.091  23.820  0.00  0.00    +0.006 A 
ATOM     25  C   UNL     1      10.357   0.148  23.189  0.00  0.00    +0.015 A 
ATOM     26  C   UNL     1       9.305   0.372  22.293  0.00  0.00    +0.059 A 
ATOM     27  C   UNL     1       8.400  -0.658  22.018  0.00  0.00    +0.015 A 
ATOM     28  C   UNL     1       8.552  -1.895  22.648  0.00  0.00    +0.006 A 
BRANCH  26  29
ATOM     29  C   UNL     1       9.130   1.735  21.735  0.00  0.00    +0.337 C 
ATOM     30  O   UNL     1       8.034   2.201  21.477  0.00  0.00    -0.245 OA
BRANCH  29  31
ATOM     31  O   UNL     1      10.284   2.411  21.563  0.00  0.00    -0.477 OA
ATOM     32  H   UNL     1      10.540   2.994  22.301  0.00  0.00    +0.295 HD
ENDBRANCH  29  31
ENDBRANCH  26  29
ENDBRANCH  22  23
ENDBRANCH   2  22
TORSDOF 12
ENDMDL
MODEL 5
REMARK VINA RESULT:      -6.4      3.618      6.148
REMARK  Name = 
REMARK  13 active torsions:
REMARK  status: ('A' for Active; 'I' for Inactive)
REMARK    1  A    between atoms: C_1  and  C_2
REMARK    2  A    between atoms: C_2  and  C_3
REMARK    3  A    between atoms: C_3  and  C_4
REMARK    4  A    between atoms: C_4  and  C_5
REMARK    5  A    between atoms: C_8  and  C_9
REMARK    6  A    between atoms: C_10  and  C_11
REMARK    7  A    between atoms: C_10  and  C_17
REMARK    8  A    between atoms: C_11  and  C_12
REMARK    9  A    between atoms: C_17  and  O_18
REMARK   10  A    between atoms: N_20  and  C_21
REMARK   11  A    between atoms: C_21  and  C_22
REMARK   12  A    between atoms: C_25  and  C_28
REMARK   13  A    between atoms: C_28  and  O_29
REMARK                            x       y       z     vdW  Elec       q    Type
REMARK                         _______ _______ _______ _____ _____    ______ ____
ROOT
ATOM      1  C   UNL     1       8.477  -0.268  23.028  0.00  0.00    +0.110 A 
ATOM      2  N   UNL     1       8.405  -1.652  23.005  0.00  0.00    -0.324 N 
ATOM      3  C   UNL     1       9.373  -2.120  23.879  0.00  0.00    +0.062 A 
ATOM      4  C   UNL     1      10.153  -1.016  24.145  0.00  0.00    +0.138 A 
ATOM      5  N   UNL     1       9.591   0.115  23.621  0.00  0.00    -0.240 NA
ENDROOT
BRANCH   3   6
ATOM      6  C   UNL     1       9.355  -3.427  24.422  0.00  0.00    +0.038 C 
ATOM      7  C   UNL     1       8.922  -3.759  25.651  0.00  0.00    +0.043 C 
BRANCH   7   8
ATOM      8  C   UNL     1       8.848  -5.199  26.029  0.00  0.00    +0.333 C 
ATOM      9  O   UNL     1       7.988  -5.646  26.770  0.00  0.00    -0.245 OA
BRANCH   8  10
ATOM     10  O   UNL     1       9.840  -5.974  25.547  0.00  0.00    -0.477 OA
ATOM     11  H   UNL     1      10.018  -6.805  26.020  0.00  0.00    +0.295 HD
ENDBRANCH   8  10
ENDBRANCH   7   8
BRANCH   7  12
ATOM     12  C   UNL     1       8.329  -2.822  26.685  0.00  0.00    +0.084 C 
BRANCH  12  13
ATOM     13  C   UNL     1       6.934  -2.283  26.435  0.00  0.00    -0.006 A 
ATOM     14  S   UNL     1       5.588  -3.267  26.860  0.00  0.00    -0.101 S 
ATOM     15  C   UNL     1       4.475  -2.026  26.488  0.00  0.00    +0.045 A 
ATOM     16  C   UNL     1       5.099  -0.908  25.988  0.00  0.00    +0.008 A 
ATOM     17  C   UNL     1       6.516  -1.065  25.929  0.00  0.00    +0.011 A 
ENDBRANCH  12  13
ENDBRANCH   7  12
ENDBRANCH   3   6
BRANCH   1  18
ATOM     18  C   UNL     1       7.478   0.664  22.410  0.00  0.00    +0.074 C 
BRANCH  18  19
ATOM     19  C   UNL     1       8.117   1.862  21.686  0.00  0.00    +0.007 C 
BRANCH  19  21
ATOM     20  C   UNL     1       8.703   3.668  23.375  0.00  0.00    +0.004 C 
ATOM     21  C   UNL     1       7.736   3.223  22.281  0.00  0.00    -0.003 C 
ENDBRANCH  19  21
ENDBRANCH  18  19
ENDBRANCH   1  18
BRANCH   2  22
ATOM     22  C   UNL     1       7.766  -2.431  21.951  0.00  0.00    +0.158 C 
BRANCH  22  23
ATOM     23  C   UNL     1       6.784  -3.489  22.383  0.00  0.00    -0.028 A 
ATOM     24  C   UNL     1       6.918  -4.846  22.068  0.00  0.00    +0.006 A 
ATOM     25  C   UNL     1       5.875  -5.737  22.343  0.00  0.00    +0.015 A 
ATOM     26  C   UNL     1       4.690  -5.287  22.936  0.00  0.00    +0.059 A 
ATOM     27  C   UNL     1       4.551  -3.935  23.266  0.00  0.00    +0.015 A 
ATOM     28  C   UNL     1       5.596  -3.050  22.993  0.00  0.00    +0.006 A 
BRANCH  26  29
ATOM     29  C   UNL     1       3.576  -6.250  23.106  0.00  0.00    +0.337 C 
ATOM     30  O   UNL     1       2.445  -6.020  22.711  0.00  0.00    -0.245 OA
BRANCH  29  31
ATOM     31  O   UNL     1       3.931  -7.402  23.712  0.00  0.00    -0.477 OA
ATOM     32  H   UNL     1       4.546  -7.966  23.209  0.00  0.00    +0.295 HD
ENDBRANCH  29  31
ENDBRANCH  26  29
ENDBRANCH  22  23
ENDBRANCH   2  22
TORSDOF 12
ENDMDL
MODEL 6
REMARK VINA RESULT:      -6.4      2.515      7.636
REMARK  Name = 
REMARK  13 active torsions:
REMARK  status: ('A' for Active; 'I' for Inactive)
REMARK    1  A    between atoms: C_1  and  C_2
REMARK    2  A    between atoms: C_2  and  C_3
REMARK    3  A    between atoms: C_3  and  C_4
REMARK    4  A    between atoms: C_4  and  C_5
REMARK    5  A    between atoms: C_8  and  C_9
REMARK    6  A    between atoms: C_10  and  C_11
REMARK    7  A    between atoms: C_10  and  C_17
REMARK    8  A    between atoms: C_11  and  C_12
REMARK    9  A    between atoms: C_17  and  O_18
REMARK   10  A    between atoms: N_20  and  C_21
REMARK   11  A    between atoms: C_21  and  C_22
REMARK   12  A    between atoms: C_25  and  C_28
REMARK   13  A    between atoms: C_28  and  O_29
REMARK                            x       y       z     vdW  Elec       q    Type
REMARK                         _______ _______ _______ _____ _____    ______ ____
ROOT
ATOM      1  C   UNL     1       8.675  -3.184  25.764  0.00  0.00    +0.110 A 
ATOM      2  N   UNL     1       8.858  -2.489  24.579  0.00  0.00    -0.324 N 
ATOM      3  C   UNL     1       8.929  -1.145  24.906  0.00  0.00    +0.062 A 
ATOM      4  C   UNL     1       8.493  -1.090  26.212  0.00  0.00    +0.138 A 
ATOM      5  N   UNL     1       8.345  -2.347  26.729  0.00  0.00    -0.240 NA
ENDROOT
BRANCH   3   6
ATOM      6  C   UNL     1       9.491  -0.170  24.047  0.00  0.00    +0.038 C 
ATOM      7  C   UNL     1       8.828   0.510  23.096  0.00  0.00    +0.043 C 
BRANCH   7   8
ATOM      8  C   UNL     1       9.533   1.598  22.359  0.00  0.00    +0.333 C 
ATOM      9  O   UNL     1      10.446   2.243  22.846  0.00  0.00    -0.245 OA
BRANCH   8  10
ATOM     10  O   UNL     1       9.049   1.871  21.131  0.00  0.00    -0.477 OA
ATOM     11  H   UNL     1       9.238   2.755  20.771  0.00  0.00    +0.295 HD
ENDBRANCH   8  10
ENDBRANCH   7   8
BRANCH   7  12
ATOM     12  C   UNL     1       7.350   0.410  22.775  0.00  0.00    +0.084 C 
BRANCH  12  13
ATOM     13  C   UNL     1       6.388   1.246  23.596  0.00  0.00    -0.006 A 
ATOM     14  S   UNL     1       5.859   2.752  22.952  0.00  0.00    -0.101 S 
ATOM     15  C   UNL     1       4.764   2.997  24.240  0.00  0.00    +0.045 A 
ATOM     16  C   UNL     1       4.840   1.995  25.178  0.00  0.00    +0.008 A 
ATOM     17  C   UNL     1       5.799   0.999  24.822  0.00  0.00    +0.011 A 
ENDBRANCH  12  13
ENDBRANCH   7  12
ENDBRANCH   3   6
BRANCH   1  18
ATOM     18  C   UNL     1       8.765  -4.673  25.921  0.00  0.00    +0.074 C 
BRANCH  18  19
ATOM     19  C   UNL     1       7.734  -5.253  26.907  0.00  0.00    +0.007 C 
BRANCH  19  21
ATOM     20  C   UNL     1       5.421  -6.246  27.252  0.00  0.00    +0.004 C 
ATOM     21  C   UNL     1       6.382  -5.587  26.266  0.00  0.00    -0.003 C 
ENDBRANCH  19  21
ENDBRANCH  18  19
ENDBRANCH   1  18
BRANCH   2  22
ATOM     22  C   UNL     1       8.576  -3.026  23.252  0.00  0.00    +0.158 C 
BRANCH  22  23
ATOM     23  C   UNL     1       7.246  -3.709  23.061  0.00  0.00    -0.028 A 
ATOM     24  C   UNL     1       6.021  -3.136  23.420  0.00  0.00    +0.006 A 
ATOM     25  C   UNL     1       4.851  -3.901  23.385  0.00  0.00    +0.015 A 
ATOM     26  C   UNL     1       4.887  -5.243  22.989  0.00  0.00    +0.059 A 
ATOM     27  C   UNL     1       6.104  -5.822  22.616  0.00  0.00    +0.015 A 
ATOM     28  C   UNL     1       7.270  -5.054  22.650  0.00  0.00    +0.006 A 
BRANCH  26  29
ATOM     29  C   UNL     1       3.638  -6.038  23.074  0.00  0.00    +0.337 C 
ATOM     30  O   UNL     1       2.553  -5.588  22.750  0.00  0.00    -0.245 OA
BRANCH  29  31
ATOM     31  O   UNL     1       3.817  -7.299  23.518  0.00  0.00    -0.477 OA
ATOM     32  H   UNL     1       4.742  -7.605  23.546  0.00  0.00    +0.295 HD
ENDBRANCH  29  31
ENDBRANCH  26  29
ENDBRANCH  22  23
ENDBRANCH   2  22
TORSDOF 12
ENDMDL
MODEL 7
REMARK VINA RESULT:      -6.3      2.937      5.025
REMARK  Name = 
REMARK  13 active torsions:
REMARK  status: ('A' for Active; 'I' for Inactive)
REMARK    1  A    between atoms: C_1  and  C_2
REMARK    2  A    between atoms: C_2  and  C_3
REMARK    3  A    between atoms: C_3  and  C_4
REMARK    4  A    between atoms: C_4  and  C_5
REMARK    5  A    between atoms: C_8  and  C_9
REMARK    6  A    between atoms: C_10  and  C_11
REMARK    7  A    between atoms: C_10  and  C_17
REMARK    8  A    between atoms: C_11  and  C_12
REMARK    9  A    between atoms: C_17  and  O_18
REMARK   10  A    between atoms: N_20  and  C_21
REMARK   11  A    between atoms: C_21  and  C_22
REMARK   12  A    between atoms: C_25  and  C_28
REMARK   13  A    between atoms: C_28  and  O_29
REMARK                            x       y       z     vdW  Elec       q    Type
REMARK                         _______ _______ _______ _____ _____    ______ ____
ROOT
ATOM      1  C   UNL     1       6.880  -3.661  26.659  0.00  0.00    +0.110 A 
ATOM      2  N   UNL     1       7.753  -2.743  26.098  0.00  0.00    -0.324 N 
ATOM      3  C   UNL     1       8.617  -3.455  25.282  0.00  0.00    +0.062 A 
ATOM      4  C   UNL     1       8.403  -4.771  25.627  0.00  0.00    +0.138 A 
ATOM      5  N   UNL     1       7.332  -4.885  26.469  0.00  0.00    -0.240 NA
ENDROOT
BRANCH   3   6
ATOM      6  C   UNL     1       9.381  -2.851  24.254  0.00  0.00    +0.038 C 
ATOM      7  C   UNL     1       8.912  -2.461  23.056  0.00  0.00    +0.043 C 
BRANCH   7   8
ATOM      8  C   UNL     1       9.818  -1.723  22.129  0.00  0.00    +0.333 C 
ATOM      9  O   UNL     1      11.031  -1.715  22.256  0.00  0.00    -0.245 OA
BRANCH   8  10
ATOM     10  O   UNL     1       9.201  -1.003  21.171  0.00  0.00    -0.477 OA
ATOM     11  H   UNL     1       8.240  -0.884  21.260  0.00  0.00    +0.295 HD
ENDBRANCH   8  10
ENDBRANCH   7   8
BRANCH   7  12
ATOM     12  C   UNL     1       7.478  -2.544  22.574  0.00  0.00    +0.084 C 
BRANCH  12  13
ATOM     13  C   UNL     1       6.843  -3.918  22.473  0.00  0.00    -0.006 A 
ATOM     14  S   UNL     1       5.240  -4.123  23.066  0.00  0.00    -0.101 S 
ATOM     15  C   UNL     1       5.160  -5.729  22.491  0.00  0.00    +0.045 A 
ATOM     16  C   UNL     1       6.343  -6.132  21.918  0.00  0.00    +0.008 A 
ATOM     17  C   UNL     1       7.325  -5.096  21.933  0.00  0.00    +0.011 A 
ENDBRANCH  12  13
ENDBRANCH   7  12
ENDBRANCH   3   6
BRANCH   1  18
ATOM     18  C   UNL     1       5.640  -3.321  27.432  0.00  0.00    +0.074 C 
BRANCH  18  19
ATOM     19  C   UNL     1       4.417  -3.039  26.542  0.00  0.00    +0.007 C 
BRANCH  19  21
ATOM     20  C   UNL     1       3.245  -5.257  26.140  0.00  0.00    +0.004 C 
ATOM     21  C   UNL     1       3.200  -3.915  26.864  0.00  0.00    -0.003 C 
ENDBRANCH  19  21
ENDBRANCH  18  19
ENDBRANCH   1  18
BRANCH   2  22
ATOM     22  C   UNL     1       7.990  -1.401  26.617  0.00  0.00    +0.158 C 
BRANCH  22  23
ATOM     23  C   UNL     1       8.019  -0.276  25.615  0.00  0.00    -0.028 A 
ATOM     24  C   UNL     1       6.923   0.082  24.820  0.00  0.00    +0.006 A 
ATOM     25  C   UNL     1       7.080   1.010  23.786  0.00  0.00    +0.015 A 
ATOM     26  C   UNL     1       8.327   1.594  23.533  0.00  0.00    +0.059 A 
ATOM     27  C   UNL     1       9.424   1.253  24.330  0.00  0.00    +0.015 A 
ATOM     28  C   UNL     1       9.263   0.328  25.363  0.00  0.00    +0.006 A 
BRANCH  26  29
ATOM     29  C   UNL     1       8.463   2.488  22.358  0.00  0.00    +0.337 C 
ATOM     30  O   UNL     1       7.818   3.515  22.239  0.00  0.00    -0.245 OA
BRANCH  29  31
ATOM     31  O   UNL     1       9.372   2.073  21.452  0.00  0.00    -0.477 OA
ATOM     32  H   UNL     1       9.620   1.132  21.511  0.00  0.00    +0.295 HD
ENDBRANCH  29  31
ENDBRANCH  26  29
ENDBRANCH  22  23
ENDBRANCH   2  22
TORSDOF 12
ENDMDL
MODEL 8
REMARK VINA RESULT:      -6.3      2.150      6.930
REMARK  Name = 
REMARK  13 active torsions:
REMARK  status: ('A' for Active; 'I' for Inactive)
REMARK    1  A    between atoms: C_1  and  C_2
REMARK    2  A    between atoms: C_2  and  C_3
REMARK    3  A    between atoms: C_3  and  C_4
REMARK    4  A    between atoms: C_4  and  C_5
REMARK    5  A    between atoms: C_8  and  C_9
REMARK    6  A    between atoms: C_10  and  C_11
REMARK    7  A    between atoms: C_10  and  C_17
REMARK    8  A    between atoms: C_11  and  C_12
REMARK    9  A    between atoms: C_17  and  O_18
REMARK   10  A    between atoms: N_20  and  C_21
REMARK   11  A    between atoms: C_21  and  C_22
REMARK   12  A    between atoms: C_25  and  C_28
REMARK   13  A    between atoms: C_28  and  O_29
REMARK                            x       y       z     vdW  Elec       q    Type
REMARK                         _______ _______ _______ _____ _____    ______ ____
ROOT
ATOM      1  C   UNL     1       7.364  -1.507  26.570  0.00  0.00    +0.110 A 
ATOM      2  N   UNL     1       6.435  -0.934  25.715  0.00  0.00    -0.324 N 
ATOM      3  C   UNL     1       6.698   0.426  25.687  0.00  0.00    +0.062 A 
ATOM      4  C   UNL     1       7.565   0.626  26.739  0.00  0.00    +0.138 A 
ATOM      5  N   UNL     1       7.969  -0.567  27.270  0.00  0.00    -0.240 NA
ENDROOT
BRANCH   3   6
ATOM      6  C   UNL     1       6.237   1.280  24.656  0.00  0.00    +0.038 C 
ATOM      7  C   UNL     1       7.012   1.899  23.748  0.00  0.00    +0.043 C 
BRANCH   7   8
ATOM      8  C   UNL     1       6.363   2.665  22.646  0.00  0.00    +0.333 C 
ATOM      9  O   UNL     1       6.992   3.356  21.860  0.00  0.00    -0.245 OA
BRANCH   8  10
ATOM     10  O   UNL     1       5.017   2.599  22.610  0.00  0.00    -0.477 OA
ATOM     11  H   UNL     1       4.605   2.487  21.736  0.00  0.00    +0.295 HD
ENDBRANCH   8  10
ENDBRANCH   7   8
BRANCH   7  12
ATOM     12  C   UNL     1       8.516   1.781  23.610  0.00  0.00    +0.084 C 
BRANCH  12  13
ATOM     13  C   UNL     1       9.085   0.448  23.165  0.00  0.00    -0.006 A 
ATOM     14  S   UNL     1       9.068   0.073  21.485  0.00  0.00    -0.101 S 
ATOM     15  C   UNL     1       9.954  -1.367  21.728  0.00  0.00    +0.045 A 
ATOM     16  C   UNL     1      10.203  -1.601  23.060  0.00  0.00    +0.008 A 
ATOM     17  C   UNL     1       9.676  -0.568  23.892  0.00  0.00    +0.011 A 
ENDBRANCH  12  13
ENDBRANCH   7  12
ENDBRANCH   3   6
BRANCH   1  18
ATOM     18  C   UNL     1       7.601  -2.978  26.735  0.00  0.00    +0.074 C 
BRANCH  18  19
ATOM     19  C   UNL     1       8.556  -3.571  25.683  0.00  0.00    +0.007 C 
BRANCH  19  21
ATOM     20  C   UNL     1       7.061  -5.588  26.072  0.00  0.00    +0.004 C 
ATOM     21  C   UNL     1       8.169  -4.980  25.218  0.00  0.00    -0.003 C 
ENDBRANCH  19  21
ENDBRANCH  18  19
ENDBRANCH   1  18
BRANCH   2  22
ATOM     22  C   UNL     1       5.185  -1.565  25.307  0.00  0.00    +0.158 C 
BRANCH  22  23
ATOM     23  C   UNL     1       5.261  -2.571  24.188  0.00  0.00    -0.028 A 
ATOM     24  C   UNL     1       4.555  -3.780  24.184  0.00  0.00    +0.006 A 
ATOM     25  C   UNL     1       4.818  -4.742  23.203  0.00  0.00    +0.015 A 
ATOM     26  C   UNL     1       5.784  -4.511  22.216  0.00  0.00    +0.059 A 
ATOM     27  C   UNL     1       6.484  -3.301  22.204  0.00  0.00    +0.015 A 
ATOM     28  C   UNL     1       6.217  -2.341  23.183  0.00  0.00    +0.006 A 
BRANCH  26  29
ATOM     29  C   UNL     1       6.100  -5.606  21.268  0.00  0.00    +0.337 C 
ATOM     30  O   UNL     1       6.068  -5.454  20.058  0.00  0.00    -0.245 OA
BRANCH  29  31
ATOM     31  O   UNL     1       6.443  -6.767  21.861  0.00  0.00    -0.477 OA
ATOM     32  H   UNL     1       7.273  -7.167  21.546  0.00  0.00    +0.295 HD
ENDBRANCH  29  31
ENDBRANCH  26  29
ENDBRANCH  22  23
ENDBRANCH   2  22
TORSDOF 12
ENDMDL
MODEL 9
REMARK VINA RESULT:      -6.2      2.489      3.565
REMARK  Name = 
REMARK  13 active torsions:
REMARK  status: ('A' for Active; 'I' for Inactive)
REMARK    1  A    between atoms: C_1  and  C_2
REMARK    2  A    between atoms: C_2  and  C_3
REMARK    3  A    between atoms: C_3  and  C_4
REMARK    4  A    between atoms: C_4  and  C_5
REMARK    5  A    between atoms: C_8  and  C_9
REMARK    6  A    between atoms: C_10  and  C_11
REMARK    7  A    between atoms: C_10  and  C_17
REMARK    8  A    between atoms: C_11  and  C_12
REMARK    9  A    between atoms: C_17  and  O_18
REMARK   10  A    between atoms: N_20  and  C_21
REMARK   11  A    between atoms: C_21  and  C_22
REMARK   12  A    between atoms: C_25  and  C_28
REMARK   13  A    between atoms: C_28  and  O_29
REMARK                            x       y       z     vdW  Elec       q    Type
REMARK                         _______ _______ _______ _____ _____    ______ ____
ROOT
ATOM      1  C   UNL     1      10.242   0.092  23.624  0.00  0.00    +0.110 A 
ATOM      2  N   UNL     1       9.791  -0.844  24.542  0.00  0.00    -0.324 N 
ATOM      3  C   UNL     1       9.761  -2.066  23.890  0.00  0.00    +0.062 A 
ATOM      4  C   UNL     1       9.909  -1.745  22.559  0.00  0.00    +0.138 A 
ATOM      5  N   UNL     1      10.208  -0.420  22.408  0.00  0.00    -0.240 NA
ENDROOT
BRANCH   3   6
ATOM      6  C   UNL     1       9.737  -3.305  24.575  0.00  0.00    +0.038 C 
ATOM      7  C   UNL     1       8.630  -3.974  24.944  0.00  0.00    +0.043 C 
BRANCH   7   8
ATOM      8  C   UNL     1       8.771  -5.331  25.545  0.00  0.00    +0.333 C 
ATOM      9  O   UNL     1       7.984  -5.778  26.364  0.00  0.00    -0.245 OA
BRANCH   8  10
ATOM     10  O   UNL     1       9.870  -6.017  25.172  0.00  0.00    -0.477 OA
ATOM     11  H   UNL     1       9.728  -6.834  24.665  0.00  0.00    +0.295 HD
ENDBRANCH   8  10
ENDBRANCH   7   8
BRANCH   7  12
ATOM     12  C   UNL     1       7.195  -3.570  24.671  0.00  0.00    +0.084 C 
BRANCH  12  13
ATOM     13  C   UNL     1       6.394  -4.414  23.700  0.00  0.00    -0.006 A 
ATOM     14  S   UNL     1       7.081  -4.764  22.161  0.00  0.00    -0.101 S 
ATOM     15  C   UNL     1       5.794  -5.808  21.747  0.00  0.00    +0.045 A 
ATOM     16  C   UNL     1       4.826  -5.845  22.723  0.00  0.00    +0.008 A 
ATOM     17  C   UNL     1       5.157  -5.018  23.838  0.00  0.00    +0.011 A 
ENDBRANCH  12  13
ENDBRANCH   7  12
ENDBRANCH   3   6
BRANCH   1  18
ATOM     18  C   UNL     1      10.642   1.500  23.944  0.00  0.00    +0.074 C 
BRANCH  18  19
ATOM     19  C   UNL     1       9.870   2.560  23.139  0.00  0.00    +0.007 C 
BRANCH  19  21
ATOM     20  C   UNL     1       7.839   4.083  23.022  0.00  0.00    +0.004 C 
ATOM     21  C   UNL     1       8.720   3.215  23.915  0.00  0.00    -0.003 C 
ENDBRANCH  19  21
ENDBRANCH  18  19
ENDBRANCH   1  18
BRANCH   2  22
ATOM     22  C   UNL     1       9.076  -0.521  25.771  0.00  0.00    +0.158 C 
BRANCH  22  23
ATOM     23  C   UNL     1       7.730   0.140  25.624  0.00  0.00    -0.028 A 
ATOM     24  C   UNL     1       6.923   0.011  24.488  0.00  0.00    +0.006 A 
ATOM     25  C   UNL     1       5.776   0.799  24.348  0.00  0.00    +0.015 A 
ATOM     26  C   UNL     1       5.420   1.723  25.339  0.00  0.00    +0.059 A 
ATOM     27  C   UNL     1       6.212   1.850  26.483  0.00  0.00    +0.015 A 
ATOM     28  C   UNL     1       7.355   1.059  26.620  0.00  0.00    +0.006 A 
BRANCH  26  29
ATOM     29  C   UNL     1       4.257   2.609  25.091  0.00  0.00    +0.337 C 
ATOM     30  O   UNL     1       3.672   2.639  24.022  0.00  0.00    -0.245 OA
BRANCH  29  31
ATOM     31  O   UNL     1       3.897   3.356  26.155  0.00  0.00    -0.477 OA
ATOM     32  H   UNL     1       3.823   4.313  25.987  0.00  0.00    +0.295 HD
ENDBRANCH  29  31
ENDBRANCH  26  29
ENDBRANCH  22  23
ENDBRANCH   2  22
TORSDOF 12
ENDMDL
