MODEL 1
REMARK VINA RESULT:      -5.9      0.000      0.000
REMARK  Name = 
REMARK  7 active torsions:
REMARK  status: ('A' for Active; 'I' for Inactive)
REMARK    1  A    between atoms: S_1  and  C_2
REMARK    2  A    between atoms: C_2  and  C_3
REMARK    3  A    between atoms: C_3  and  C_4
REMARK    4  A    between atoms: C_4  and  C_5
REMARK    5  A    between atoms: N_7  and  C_8
REMARK    6  A    between atoms: N_11  and  C_12
REMARK    7  A    between atoms: C_12  and  C_13
REMARK                            x       y       z     vdW  Elec       q    Type
REMARK                         _______ _______ _______ _____ _____    ______ ____
ROOT
ATOM      1  C   UNL     1       8.210  -4.179  26.299  0.00  0.00    +0.075 C 
ATOM      2  C   UNL     1       8.278  -2.644  26.323  0.00  0.00    +0.037 C 
ATOM      3  C   UNL     1       7.850  -2.021  24.993  0.00  0.00    +0.086 C 
ATOM      4  N   UNL     1       8.548  -2.577  23.825  0.00  0.00    -0.298 NA
ATOM      5  C   UNL     1       8.375  -4.035  23.776  0.00  0.00    +0.086 C 
ATOM      6  C   UNL     1       8.855  -4.753  25.038  0.00  0.00    +0.037 C 
ENDROOT
BRANCH   1   8
ATOM      7  C   UNL     1       6.489  -5.559  27.416  0.00  0.00    +0.213 C 
ATOM      8  N   UNL     1       6.838  -4.655  26.437  0.00  0.00    -0.312 N 
ATOM      9  H   UNL     1       6.098  -4.126  25.990  0.00  0.00    +0.149 HD
ATOM     10  O   UNL     1       7.304  -6.113  28.147  0.00  0.00    -0.276 OA
BRANCH   7  11
ATOM     11  C   UNL     1       5.001  -5.834  27.477  0.00  0.00    +0.096 C 
BRANCH  11  12
ATOM     12  C   UNL     1       4.562  -6.810  26.385  0.00  0.00    +0.020 C 
BRANCH  12  13
ATOM     13  C   UNL     1       3.857  -6.156  25.193  0.00  0.00    +0.066 C 
BRANCH  13  14
ATOM     14  S   UNL     1       4.852  -6.211  23.673  0.00  0.00    -0.178 S 
ATOM     15  H   UNL     1       5.667  -5.194  23.989  0.00  0.00    +0.102 HD
ENDBRANCH  13  14
ENDBRANCH  12  13
ENDBRANCH  11  12
ENDBRANCH   7  11
ENDBRANCH   1   8
BRANCH   4  16
ATOM     16  C   UNL     1       9.958  -2.144  23.767  0.00  0.00    +0.119 C 
BRANCH  16  17
ATOM     17  C   UNL     1      10.109  -0.689  23.378  0.00  0.00    -0.033 A 
ATOM     18  C   UNL     1       9.729  -0.249  22.101  0.00  0.00    +0.005 A 
ATOM     19  C   UNL     1       9.772   1.110  21.782  0.00  0.00    +0.000 A 
ATOM     20  C   UNL     1      10.201   2.036  22.731  0.00  0.00    +0.000 A 
ATOM     21  C   UNL     1      10.604   1.606  23.993  0.00  0.00    +0.000 A 
ATOM     22  C   UNL     1      10.562   0.250  24.315  0.00  0.00    +0.005 A 
ENDBRANCH  16  17
ENDBRANCH   4  16
TORSDOF 7
ENDMDL
MODEL 2
REMARK VINA RESULT:      -5.7      2.567      4.221
REMARK  Name = 
REMARK  7 active torsions:
REMARK  status: ('A' for Active; 'I' for Inactive)
REMARK    1  A    between atoms: S_1  and  C_2
REMARK    2  A    between atoms: C_2  and  C_3
REMARK    3  A    between atoms: C_3  and  C_4
REMARK    4  A    between atoms: C_4  and  C_5
REMARK    5  A    between atoms: N_7  and  C_8
REMARK    6  A    between atoms: N_11  and  C_12
REMARK    7  A    between atoms: C_12  and  C_13
REMARK                            x       y       z     vdW  Elec       q    Type
REMARK                         _______ _______ _______ _____ _____    ______ ____
ROOT
ATOM      1  C   UNL     1       9.900  -1.606  23.329  0.00  0.00    +0.075 C 
ATOM      2  C   UNL     1      10.188  -0.633  24.483  0.00  0.00    +0.037 C 
ATOM      3  C   UNL     1       9.277   0.596  24.449  0.00  0.00    +0.086 C 
ATOM      4  N   UNL     1       9.258   1.284  23.151  0.00  0.00    -0.298 NA
ATOM      5  C   UNL     1       8.878   0.347  22.084  0.00  0.00    +0.086 C 
ATOM      6  C   UNL     1       9.787  -0.877  21.991  0.00  0.00    +0.037 C 
ENDROOT
BRANCH   1   8
ATOM      7  C   UNL     1       8.775  -3.621  24.216  0.00  0.00    +0.213 C 
ATOM      8  N   UNL     1       8.703  -2.399  23.585  0.00  0.00    -0.312 N 
ATOM      9  H   UNL     1       7.802  -1.937  23.539  0.00  0.00    +0.149 HD
ATOM     10  O   UNL     1       9.832  -4.178  24.494  0.00  0.00    -0.276 OA
BRANCH   7  11
ATOM     11  C   UNL     1       7.418  -4.231  24.502  0.00  0.00    +0.096 C 
BRANCH  11  12
ATOM     12  C   UNL     1       6.391  -3.848  23.436  0.00  0.00    +0.020 C 
BRANCH  12  13
ATOM     13  C   UNL     1       5.631  -5.031  22.829  0.00  0.00    +0.066 C 
BRANCH  13  14
ATOM     14  S   UNL     1       6.440  -5.696  21.343  0.00  0.00    -0.178 S 
ATOM     15  H   UNL     1       6.207  -6.989  21.611  0.00  0.00    +0.102 HD
ENDBRANCH  13  14
ENDBRANCH  12  13
ENDBRANCH  11  12
ENDBRANCH   7  11
ENDBRANCH   1   8
BRANCH   4  16
ATOM     16  C   UNL     1      10.519   2.003  22.887  0.00  0.00    +0.119 C 
BRANCH  16  17
ATOM     17  C   UNL     1      10.486   3.440  23.366  0.00  0.00    -0.033 A 
ATOM     18  C   UNL     1      11.651   4.221  23.359  0.00  0.00    +0.005 A 
ATOM     19  C   UNL     1      11.595   5.573  23.702  0.00  0.00    +0.000 A 
ATOM     20  C   UNL     1      10.380   6.151  24.061  0.00  0.00    +0.000 A 
ATOM     21  C   UNL     1       9.221   5.378  24.095  0.00  0.00    +0.000 A 
ATOM     22  C   UNL     1       9.274   4.028  23.753  0.00  0.00    +0.005 A 
ENDBRANCH  16  17
ENDBRANCH   4  16
TORSDOF 7
ENDMDL
MODEL 3
REMARK VINA RESULT:      -5.7      2.129      2.673
REMARK  Name = 
REMARK  7 active torsions:
REMARK  status: ('A' for Active; 'I' for Inactive)
REMARK    1  A    between atoms: S_1  and  C_2
REMARK    2  A    between atoms: C_2  and  C_3
REMARK    3  A    between atoms: C_3  and  C_4
REMARK    4  A    between atoms: C_4  and  C_5
REMARK    5  A    between atoms: N_7  and  C_8
REMARK    6  A    between atoms: N_11  and  C_12
REMARK    7  A    between atoms: C_12  and  C_13
REMARK                            x       y       z     vdW  Elec       q    Type
REMARK                         _______ _______ _______ _____ _____    ______ ____
ROOT
ATOM      1  C   UNL     1       7.479  -4.831  23.187  0.00  0.00    +0.075 C 
ATOM      2  C   UNL     1       8.605  -4.900  24.230  0.00  0.00    +0.037 C 
ATOM      3  C   UNL     1       8.613  -3.687  25.162  0.00  0.00    +0.086 C 
ATOM      4  N   UNL     1       8.604  -2.397  24.457  0.00  0.00    -0.298 NA
ATOM      5  C   UNL     1       7.454  -2.325  23.544  0.00  0.00    +0.086 C 
ATOM      6  C   UNL     1       7.411  -3.458  22.520  0.00  0.00    +0.037 C 
ENDROOT
BRANCH   1   8
ATOM      7  C   UNL     1       5.175  -5.711  23.002  0.00  0.00    +0.213 C 
ATOM      8  N   UNL     1       6.189  -5.184  23.771  0.00  0.00    -0.312 N 
ATOM      9  H   UNL     1       6.130  -5.289  24.777  0.00  0.00    +0.149 HD
ATOM     10  O   UNL     1       5.233  -5.808  21.780  0.00  0.00    -0.276 OA
BRANCH   7  11
ATOM     11  C   UNL     1       3.963  -6.127  23.809  0.00  0.00    +0.096 C 
BRANCH  11  12
ATOM     12  C   UNL     1       4.349  -7.025  24.986  0.00  0.00    +0.020 C 
BRANCH  12  13
ATOM     13  C   UNL     1       3.649  -6.682  26.304  0.00  0.00    +0.066 C 
BRANCH  13  14
ATOM     14  S   UNL     1       4.042  -5.009  26.894  0.00  0.00    -0.178 S 
ATOM     15  H   UNL     1       2.790  -4.532  26.839  0.00  0.00    +0.102 HD
ENDBRANCH  13  14
ENDBRANCH  12  13
ENDBRANCH  11  12
ENDBRANCH   7  11
ENDBRANCH   1   8
BRANCH   4  16
ATOM     16  C   UNL     1       9.898  -2.115  23.804  0.00  0.00    +0.119 C 
BRANCH  16  17
ATOM     17  C   UNL     1      10.081  -0.648  23.477  0.00  0.00    -0.033 A 
ATOM     18  C   UNL     1       9.882  -0.178  22.170  0.00  0.00    +0.005 A 
ATOM     19  C   UNL     1       9.950   1.189  21.895  0.00  0.00    +0.000 A 
ATOM     20  C   UNL     1      10.224   2.094  22.918  0.00  0.00    +0.000 A 
ATOM     21  C   UNL     1      10.447   1.634  24.215  0.00  0.00    +0.000 A 
ATOM     22  C   UNL     1      10.380   0.270  24.493  0.00  0.00    +0.005 A 
ENDBRANCH  16  17
ENDBRANCH   4  16
TORSDOF 7
ENDMDL
MODEL 4
REMARK VINA RESULT:      -5.6      2.911      4.344
REMARK  Name = 
REMARK  7 active torsions:
REMARK  status: ('A' for Active; 'I' for Inactive)
REMARK    1  A    between atoms: S_1  and  C_2
REMARK    2  A    between atoms: C_2  and  C_3
REMARK    3  A    between atoms: C_3  and  C_4
REMARK    4  A    between atoms: C_4  and  C_5
REMARK    5  A    between atoms: N_7  and  C_8
REMARK    6  A    between atoms: N_11  and  C_12
REMARK    7  A    between atoms: C_12  and  C_13
REMARK                            x       y       z     vdW  Elec       q    Type
REMARK                         _______ _______ _______ _____ _____    ______ ____
ROOT
ATOM      1  C   UNL     1       9.651  -1.748  23.043  0.00  0.00    +0.075 C 
ATOM      2  C   UNL     1       9.910  -1.019  24.370  0.00  0.00    +0.037 C 
ATOM      3  C   UNL     1       9.108   0.279  24.488  0.00  0.00    +0.086 C 
ATOM      4  N   UNL     1       9.261   1.178  23.335  0.00  0.00    -0.298 NA
ATOM      5  C   UNL     1       8.905   0.477  22.094  0.00  0.00    +0.086 C 
ATOM      6  C   UNL     1       9.718  -0.794  21.852  0.00  0.00    +0.037 C 
ENDROOT
BRANCH   1   8
ATOM      7  C   UNL     1       8.253  -3.693  23.658  0.00  0.00    +0.213 C 
ATOM      8  N   UNL     1       8.376  -2.456  23.063  0.00  0.00    -0.312 N 
ATOM      9  H   UNL     1       7.530  -1.929  22.878  0.00  0.00    +0.149 HD
ATOM     10  O   UNL     1       9.205  -4.331  24.095  0.00  0.00    -0.276 OA
BRANCH   7  11
ATOM     11  C   UNL     1       6.828  -4.207  23.686  0.00  0.00    +0.096 C 
BRANCH  11  12
ATOM     12  C   UNL     1       5.821  -3.095  23.392  0.00  0.00    +0.020 C 
BRANCH  12  13
ATOM     13  C   UNL     1       4.994  -2.649  24.601  0.00  0.00    +0.066 C 
BRANCH  13  14
ATOM     14  S   UNL     1       5.629  -1.127  25.364  0.00  0.00    -0.178 S 
ATOM     15  H   UNL     1       4.939  -1.233  26.510  0.00  0.00    +0.102 HD
ENDBRANCH  13  14
ENDBRANCH  12  13
ENDBRANCH  11  12
ENDBRANCH   7  11
ENDBRANCH   1   8
BRANCH   4  16
ATOM     16  C   UNL     1      10.595   1.808  23.299  0.00  0.00    +0.119 C 
BRANCH  16  17
ATOM     17  C   UNL     1      10.536   3.314  23.455  0.00  0.00    -0.033 A 
ATOM     18  C   UNL     1       9.337   3.947  23.817  0.00  0.00    +0.005 A 
ATOM     19  C   UNL     1       9.312   5.321  24.061  0.00  0.00    +0.000 A 
ATOM     20  C   UNL     1      10.478   6.073  23.939  0.00  0.00    +0.000 A 
ATOM     21  C   UNL     1      11.669   5.457  23.555  0.00  0.00    +0.000 A 
ATOM     22  C   UNL     1      11.697   4.085  23.311  0.00  0.00    +0.005 A 
ENDBRANCH  16  17
ENDBRANCH   4  16
TORSDOF 7
ENDMDL
MODEL 5
REMARK VINA RESULT:      -5.6      1.384      1.395
REMARK  Name = 
REMARK  7 active torsions:
REMARK  status: ('A' for Active; 'I' for Inactive)
REMARK    1  A    between atoms: S_1  and  C_2
REMARK    2  A    between atoms: C_2  and  C_3
REMARK    3  A    between atoms: C_3  and  C_4
REMARK    4  A    between atoms: C_4  and  C_5
REMARK    5  A    between atoms: N_7  and  C_8
REMARK    6  A    between atoms: N_11  and  C_12
REMARK    7  A    between atoms: C_12  and  C_13
REMARK                            x       y       z     vdW  Elec       q    Type
REMARK                         _______ _______ _______ _____ _____    ______ ____
ROOT
ATOM      1  C   UNL     1       8.219  -4.807  25.805  0.00  0.00    +0.075 C 
ATOM      2  C   UNL     1       8.493  -3.384  26.313  0.00  0.00    +0.037 C 
ATOM      3  C   UNL     1       7.951  -2.312  25.364  0.00  0.00    +0.086 C 
ATOM      4  N   UNL     1       8.380  -2.482  23.969  0.00  0.00    -0.298 NA
ATOM      5  C   UNL     1       8.009  -3.819  23.483  0.00  0.00    +0.086 C 
ATOM      6  C   UNL     1       8.578  -4.958  24.327  0.00  0.00    +0.037 C 
ENDROOT
BRANCH   1   8
ATOM      7  C   UNL     1       6.440  -5.755  27.238  0.00  0.00    +0.213 C 
ATOM      8  N   UNL     1       6.834  -5.201  26.040  0.00  0.00    -0.312 N 
ATOM      9  H   UNL     1       6.118  -4.826  25.429  0.00  0.00    +0.149 HD
ATOM     10  O   UNL     1       7.224  -6.065  28.129  0.00  0.00    -0.276 OA
BRANCH   7  11
ATOM     11  C   UNL     1       4.946  -5.979  27.334  0.00  0.00    +0.096 C 
BRANCH  11  12
ATOM     12  C   UNL     1       4.205  -5.368  26.144  0.00  0.00    +0.020 C 
BRANCH  12  13
ATOM     13  C   UNL     1       2.820  -4.806  26.476  0.00  0.00    +0.066 C 
BRANCH  13  14
ATOM     14  S   UNL     1       2.672  -4.282  28.210  0.00  0.00    -0.178 S 
ATOM     15  H   UNL     1       1.532  -3.590  28.061  0.00  0.00    +0.102 HD
ENDBRANCH  13  14
ENDBRANCH  12  13
ENDBRANCH  11  12
ENDBRANCH   7  11
ENDBRANCH   1   8
BRANCH   4  16
ATOM     16  C   UNL     1       9.808  -2.160  23.786  0.00  0.00    +0.119 C 
BRANCH  16  17
ATOM     17  C   UNL     1      10.039  -0.709  23.419  0.00  0.00    -0.033 A 
ATOM     18  C   UNL     1       9.738  -0.244  22.130  0.00  0.00    +0.005 A 
ATOM     19  C   UNL     1       9.853   1.114  21.826  0.00  0.00    +0.000 A 
ATOM     20  C   UNL     1      10.277   2.013  22.803  0.00  0.00    +0.000 A 
ATOM     21  C   UNL     1      10.603   1.557  24.079  0.00  0.00    +0.000 A 
ATOM     22  C   UNL     1      10.488   0.202  24.385  0.00  0.00    +0.005 A 
ENDBRANCH  16  17
ENDBRANCH   4  16
TORSDOF 7
ENDMDL
MODEL 6
REMARK VINA RESULT:      -5.6      4.916      8.575
REMARK  Name = 
REMARK  7 active torsions:
REMARK  status: ('A' for Active; 'I' for Inactive)
REMARK    1  A    between atoms: S_1  and  C_2
REMARK    2  A    between atoms: C_2  and  C_3
REMARK    3  A    between atoms: C_3  and  C_4
REMARK    4  A    between atoms: C_4  and  C_5
REMARK    5  A    between atoms: N_7  and  C_8
REMARK    6  A    between atoms: N_11  and  C_12
REMARK    7  A    between atoms: C_12  and  C_13
REMARK                            x       y       z     vdW  Elec       q    Type
REMARK                         _______ _______ _______ _____ _____    ______ ____
ROOT
ATOM      1  C   UNL     1       8.535   2.278  22.083  0.00  0.00    +0.075 C 
ATOM      2  C   UNL     1       7.400   1.409  22.644  0.00  0.00    +0.037 C 
ATOM      3  C   UNL     1       7.857   0.538  23.816  0.00  0.00    +0.086 C 
ATOM      4  N   UNL     1       9.059  -0.257  23.532  0.00  0.00    -0.298 NA
ATOM      5  C   UNL     1      10.156   0.619  23.097  0.00  0.00    +0.086 C 
ATOM      6  C   UNL     1       9.815   1.470  21.875  0.00  0.00    +0.037 C 
ENDROOT
BRANCH   1   8
ATOM      7  C   UNL     1       7.994   4.557  22.875  0.00  0.00    +0.213 C 
ATOM      8  N   UNL     1       8.791   3.436  22.933  0.00  0.00    -0.312 N 
ATOM      9  H   UNL     1       9.385   3.313  23.746  0.00  0.00    +0.149 HD
ATOM     10  O   UNL     1       7.107   4.715  22.042  0.00  0.00    -0.276 OA
BRANCH   7  11
ATOM     11  C   UNL     1       8.343   5.598  23.920  0.00  0.00    +0.096 C 
BRANCH  11  12
ATOM     12  C   UNL     1       9.560   6.426  23.507  0.00  0.00    +0.020 C 
BRANCH  12  13
ATOM     13  C   UNL     1      10.809   6.191  24.361  0.00  0.00    +0.066 C 
BRANCH  13  14
ATOM     14  S   UNL     1      12.159   5.405  23.432  0.00  0.00    -0.178 S 
ATOM     15  H   UNL     1      11.828   4.140  23.726  0.00  0.00    +0.102 HD
ENDBRANCH  13  14
ENDBRANCH  12  13
ENDBRANCH  11  12
ENDBRANCH   7  11
ENDBRANCH   1   8
BRANCH   4  16
ATOM     16  C   UNL     1       8.780  -1.366  22.598  0.00  0.00    +0.119 C 
BRANCH  16  17
ATOM     17  C   UNL     1       8.608  -2.695  23.303  0.00  0.00    -0.033 A 
ATOM     18  C   UNL     1       7.714  -3.655  22.807  0.00  0.00    +0.005 A 
ATOM     19  C   UNL     1       7.635  -4.918  23.398  0.00  0.00    +0.000 A 
ATOM     20  C   UNL     1       8.440  -5.227  24.492  0.00  0.00    +0.000 A 
ATOM     21  C   UNL     1       9.314  -4.271  25.008  0.00  0.00    +0.000 A 
ATOM     22  C   UNL     1       9.395  -3.010  24.420  0.00  0.00    +0.005 A 
ENDBRANCH  16  17
ENDBRANCH   4  16
TORSDOF 7
ENDMDL
MODEL 7
REMARK VINA RESULT:      -5.5      0.987      1.056
REMARK  Name = 
REMARK  7 active torsions:
REMARK  status: ('A' for Active; 'I' for Inactive)
REMARK    1  A    between atoms: S_1  and  C_2
REMARK    2  A    between atoms: C_2  and  C_3
REMARK    3  A    between atoms: C_3  and  C_4
REMARK    4  A    between atoms: C_4  and  C_5
REMARK    5  A    between atoms: N_7  and  C_8
REMARK    6  A    between atoms: N_11  and  C_12
REMARK    7  A    between atoms: C_12  and  C_13
REMARK                            x       y       z     vdW  Elec       q    Type
REMARK                         _______ _______ _______ _____ _____    ______ ____
ROOT
ATOM      1  C   UNL     1       7.472  -4.321  25.635  0.00  0.00    +0.075 C 
ATOM      2  C   UNL     1       7.594  -2.824  25.957  0.00  0.00    +0.037 C 
ATOM      3  C   UNL     1       7.383  -1.944  24.723  0.00  0.00    +0.086 C 
ATOM      4  N   UNL     1       8.218  -2.322  23.574  0.00  0.00    -0.298 NA
ATOM      5  C   UNL     1       7.999  -3.733  23.229  0.00  0.00    +0.086 C 
ATOM      6  C   UNL     1       8.267  -4.697  24.385  0.00  0.00    +0.037 C 
ENDROOT
BRANCH   1   8
ATOM      7  C   UNL     1       5.549  -5.745  26.259  0.00  0.00    +0.213 C 
ATOM      8  N   UNL     1       6.077  -4.726  25.498  0.00  0.00    -0.312 N 
ATOM      9  H   UNL     1       5.435  -4.090  25.041  0.00  0.00    +0.149 HD
ATOM     10  O   UNL     1       6.222  -6.453  27.002  0.00  0.00    -0.276 OA
BRANCH   7  11
ATOM     11  C   UNL     1       4.059  -5.933  26.063  0.00  0.00    +0.096 C 
BRANCH  11  12
ATOM     12  C   UNL     1       3.736  -7.308  25.476  0.00  0.00    +0.020 C 
BRANCH  12  13
ATOM     13  C   UNL     1       2.980  -7.270  24.145  0.00  0.00    +0.066 C 
BRANCH  13  14
ATOM     14  S   UNL     1       2.862  -5.593  23.452  0.00  0.00    -0.178 S 
ATOM     15  H   UNL     1       3.566  -4.982  24.416  0.00  0.00    +0.102 HD
ENDBRANCH  13  14
ENDBRANCH  12  13
ENDBRANCH  11  12
ENDBRANCH   7  11
ENDBRANCH   1   8
BRANCH   4  16
ATOM     16  C   UNL     1       9.638  -1.977  23.786  0.00  0.00    +0.119 C 
BRANCH  16  17
ATOM     17  C   UNL     1       9.951  -0.540  23.425  0.00  0.00    -0.033 A 
ATOM     18  C   UNL     1       9.690  -0.055  22.134  0.00  0.00    +0.005 A 
ATOM     19  C   UNL     1       9.883   1.295  21.836  0.00  0.00    +0.000 A 
ATOM     20  C   UNL     1      10.344   2.167  22.820  0.00  0.00    +0.000 A 
ATOM     21  C   UNL     1      10.630   1.690  24.098  0.00  0.00    +0.000 A 
ATOM     22  C   UNL     1      10.439   0.343  24.398  0.00  0.00    +0.005 A 
ENDBRANCH  16  17
ENDBRANCH   4  16
TORSDOF 7
ENDMDL
MODEL 8
REMARK VINA RESULT:      -5.5      2.856      4.421
REMARK  Name = 
REMARK  7 active torsions:
REMARK  status: ('A' for Active; 'I' for Inactive)
REMARK    1  A    between atoms: S_1  and  C_2
REMARK    2  A    between atoms: C_2  and  C_3
REMARK    3  A    between atoms: C_3  and  C_4
REMARK    4  A    between atoms: C_4  and  C_5
REMARK    5  A    between atoms: N_7  and  C_8
REMARK    6  A    between atoms: N_11  and  C_12
REMARK    7  A    between atoms: C_12  and  C_13
REMARK                            x       y       z     vdW  Elec       q    Type
REMARK                         _______ _______ _______ _____ _____    ______ ____
ROOT
ATOM      1  C   UNL     1       8.914  -1.157  23.913  0.00  0.00    +0.075 C 
ATOM      2  C   UNL     1      10.352  -0.634  23.773  0.00  0.00    +0.037 C 
ATOM      3  C   UNL     1      10.641   0.536  24.716  0.00  0.00    +0.086 C 
ATOM      4  N   UNL     1       9.656   1.624  24.631  0.00  0.00    -0.298 NA
ATOM      5  C   UNL     1       8.303   1.105  24.872  0.00  0.00    +0.086 C 
ATOM      6  C   UNL     1       7.897  -0.018  23.918  0.00  0.00    +0.037 C 
ENDROOT
BRANCH   1   8
ATOM      7  C   UNL     1       8.912  -3.355  25.045  0.00  0.00    +0.213 C 
ATOM      8  N   UNL     1       8.762  -1.988  25.103  0.00  0.00    -0.312 N 
ATOM      9  H   UNL     1       8.809  -1.540  26.011  0.00  0.00    +0.149 HD
ATOM     10  O   UNL     1       9.059  -3.977  23.997  0.00  0.00    -0.276 OA
BRANCH   7  11
ATOM     11  C   UNL     1       8.840  -4.026  26.401  0.00  0.00    +0.096 C 
BRANCH  11  12
ATOM     12  C   UNL     1       8.100  -5.362  26.332  0.00  0.00    +0.020 C 
BRANCH  12  13
ATOM     13  C   UNL     1       6.574  -5.249  26.400  0.00  0.00    +0.066 C 
BRANCH  13  14
ATOM     14  S   UNL     1       5.929  -5.468  28.085  0.00  0.00    -0.178 S 
ATOM     15  H   UNL     1       6.946  -6.213  28.541  0.00  0.00    +0.102 HD
ENDBRANCH  13  14
ENDBRANCH  12  13
ENDBRANCH  11  12
ENDBRANCH   7  11
ENDBRANCH   1   8
BRANCH   4  16
ATOM     16  C   UNL     1       9.783   2.387  23.374  0.00  0.00    +0.119 C 
BRANCH  16  17
ATOM     17  C   UNL     1      10.368   3.768  23.583  0.00  0.00    -0.033 A 
ATOM     18  C   UNL     1       9.589   4.797  24.131  0.00  0.00    +0.005 A 
ATOM     19  C   UNL     1      10.161   6.038  24.420  0.00  0.00    +0.000 A 
ATOM     20  C   UNL     1      11.511   6.261  24.155  0.00  0.00    +0.000 A 
ATOM     21  C   UNL     1      12.287   5.253  23.587  0.00  0.00    +0.000 A 
ATOM     22  C   UNL     1      11.719   4.014  23.299  0.00  0.00    +0.005 A 
ENDBRANCH  16  17
ENDBRANCH   4  16
TORSDOF 7
ENDMDL
MODEL 9
REMARK VINA RESULT:      -5.4      3.056      7.365
REMARK  Name = 
REMARK  7 active torsions:
REMARK  status: ('A' for Active; 'I' for Inactive)
REMARK    1  A    between atoms: S_1  and  C_2
REMARK    2  A    between atoms: C_2  and  C_3
REMARK    3  A    between atoms: C_3  and  C_4
REMARK    4  A    between atoms: C_4  and  C_5
REMARK    5  A    between atoms: N_7  and  C_8
REMARK    6  A    between atoms: N_11  and  C_12
REMARK    7  A    between atoms: C_12  and  C_13
REMARK                            x       y       z     vdW  Elec       q    Type
REMARK                         _______ _______ _______ _____ _____    ______ ____
ROOT
ATOM      1  C   UNL     1       9.342  -1.350  25.143  0.00  0.00    +0.075 C 
ATOM      2  C   UNL     1       9.741  -2.313  24.014  0.00  0.00    +0.037 C 
ATOM      3  C   UNL     1       8.546  -2.733  23.156  0.00  0.00    +0.086 C 
ATOM      4  N   UNL     1       7.411  -3.249  23.933  0.00  0.00    -0.298 NA
ATOM      5  C   UNL     1       6.988  -2.260  24.934  0.00  0.00    +0.086 C 
ATOM      6  C   UNL     1       8.103  -1.841  25.891  0.00  0.00    +0.037 C 
ENDROOT
BRANCH   1   8
ATOM      7  C   UNL     1      10.195   0.860  24.434  0.00  0.00    +0.213 C 
ATOM      8  N   UNL     1       9.136   0.004  24.642  0.00  0.00    -0.312 N 
ATOM      9  H   UNL     1       8.251   0.224  24.199  0.00  0.00    +0.149 HD
ATOM     10  O   UNL     1      11.349   0.600  24.761  0.00  0.00    -0.276 OA
BRANCH   7  11
ATOM     11  C   UNL     1       9.792   2.172  23.794  0.00  0.00    +0.096 C 
BRANCH  11  12
ATOM     12  C   UNL     1       9.927   2.123  22.272  0.00  0.00    +0.020 C 
BRANCH  12  13
ATOM     13  C   UNL     1       8.724   1.514  21.545  0.00  0.00    +0.066 C 
BRANCH  13  14
ATOM     14  S   UNL     1       7.136   2.137  22.171  0.00  0.00    -0.178 S 
ATOM     15  H   UNL     1       7.644   3.152  22.887  0.00  0.00    +0.102 HD
ENDBRANCH  13  14
ENDBRANCH  12  13
ENDBRANCH  11  12
ENDBRANCH   7  11
ENDBRANCH   1   8
BRANCH   4  16
ATOM     16  C   UNL     1       7.688  -4.584  24.498  0.00  0.00    +0.119 C 
BRANCH  16  17
ATOM     17  C   UNL     1       6.427  -5.363  24.807  0.00  0.00    -0.033 A 
ATOM     18  C   UNL     1       5.573  -5.778  23.774  0.00  0.00    +0.005 A 
ATOM     19  C   UNL     1       4.469  -6.584  24.053  0.00  0.00    +0.000 A 
ATOM     20  C   UNL     1       4.205  -6.975  25.364  0.00  0.00    +0.000 A 
ATOM     21  C   UNL     1       5.033  -6.548  26.401  0.00  0.00    +0.000 A 
ATOM     22  C   UNL     1       6.136  -5.743  26.125  0.00  0.00    +0.005 A 
ENDBRANCH  16  17
ENDBRANCH   4  16
TORSDOF 7
ENDMDL
