MODEL 1
REMARK VINA RESULT:      -5.9      0.000      0.000
REMARK  Name = 
REMARK  13 active torsions:
REMARK  status: ('A' for Active; 'I' for Inactive)
REMARK    1  A    between atoms: N_7  and  C_8
REMARK    2  A    between atoms: C_8  and  N_10
REMARK    3  A    between atoms: N_10  and  C_11
REMARK    4  A    between atoms: C_11  and  C_12
REMARK    5  A    between atoms: C_12  and  C_13
REMARK    6  A    between atoms: C_13  and  C_14
REMARK    7  A    between atoms: C_14  and  C_15
REMARK    8  A    between atoms: C_15  and  C_16
REMARK    9  A    between atoms: C_16  and  C_17
REMARK   10  A    between atoms: C_17  and  C_18
REMARK   11  A    between atoms: C_19  and  O_21
REMARK   12  A    between atoms: C_22  and  O_24
REMARK   13  A    between atoms: C_25  and  O_27
REMARK                            x       y       z     vdW  Elec       q    Type
REMARK                         _______ _______ _______ _____ _____    ______ ____
ROOT
ATOM      1  C   UNL     1       7.770  -3.398  26.492  0.00  0.00    +0.134 C 
ATOM      2  C   UNL     1       8.597  -4.708  26.481  0.00  0.00    +0.168 C 
ATOM      3  C   UNL     1       8.845  -5.325  25.064  0.00  0.00    +0.177 C 
ATOM      4  C   UNL     1       8.092  -4.687  23.861  0.00  0.00    +0.193 C 
ATOM      5  C   UNL     1       7.258  -3.452  24.275  0.00  0.00    +0.239 C 
ATOM      6  O   UNL     1       6.077  -3.924  24.964  0.00  0.00    -0.354 OA
ATOM      7  N   UNL     1       7.993  -2.676  25.255  0.00  0.00    -0.277 N 
ATOM      8  C   UNL     1       6.279  -3.663  26.363  0.00  0.00    +0.187 C 
ENDROOT
BRANCH   2   9
ATOM      9  O   UNL     1       8.007  -5.674  27.368  0.00  0.00    -0.387 OA
ATOM     10  H   UNL     1       7.808  -5.238  28.217  0.00  0.00    +0.210 HD
ENDBRANCH   2   9
BRANCH   3  11
ATOM     11  O   UNL     1      10.266  -5.273  24.798  0.00  0.00    -0.386 OA
ATOM     12  H   UNL     1      10.607  -6.186  24.797  0.00  0.00    +0.210 HD
ENDBRANCH   3  11
BRANCH   4  13
ATOM     13  O   UNL     1       7.272  -5.701  23.251  0.00  0.00    -0.385 OA
ATOM     14  H   UNL     1       7.744  -6.550  23.322  0.00  0.00    +0.210 HD
ENDBRANCH   4  13
BRANCH   7  15
ATOM     15  C   UNL     1       8.865  -1.643  24.970  0.00  0.00    +0.135 C 
ATOM     16  S   UNL     1       8.601  -0.064  25.489  0.00  0.00    -0.019 S 
BRANCH  15  17
ATOM     17  N   UNL     1       9.961  -2.003  24.213  0.00  0.00    -0.326 N 
ATOM     18  H   UNL     1      10.731  -2.431  24.703  0.00  0.00    +0.148 HD
BRANCH  17  19
ATOM     19  C   UNL     1      10.330  -1.380  22.937  0.00  0.00    +0.103 C 
BRANCH  19  20
ATOM     20  C   UNL     1       9.159  -1.260  21.962  0.00  0.00    +0.019 C 
BRANCH  20  21
ATOM     21  C   UNL     1       9.207   0.029  21.141  0.00  0.00    +0.002 C 
BRANCH  21  22
ATOM     22  C   UNL     1       9.865   1.165  21.926  0.00  0.00    +0.000 C 
BRANCH  22  23
ATOM     23  C   UNL     1       8.826   2.189  22.384  0.00  0.00    -0.000 C 
BRANCH  23  24
ATOM     24  C   UNL     1       9.427   3.192  23.370  0.00  0.00    -0.000 C 
BRANCH  24  25
ATOM     25  C   UNL     1      10.931   2.977  23.531  0.00  0.00    -0.003 C 
ATOM     26  C   UNL     1      11.701   4.274  23.339  0.00  0.00    +0.004 C 
ENDBRANCH  24  25
ENDBRANCH  23  24
ENDBRANCH  22  23
ENDBRANCH  21  22
ENDBRANCH  20  21
ENDBRANCH  19  20
ENDBRANCH  17  19
ENDBRANCH  15  17
ENDBRANCH   7  15
TORSDOF 12
ENDMDL
MODEL 2
REMARK VINA RESULT:      -5.9      0.955      1.490
REMARK  Name = 
REMARK  13 active torsions:
REMARK  status: ('A' for Active; 'I' for Inactive)
REMARK    1  A    between atoms: N_7  and  C_8
REMARK    2  A    between atoms: C_8  and  N_10
REMARK    3  A    between atoms: N_10  and  C_11
REMARK    4  A    between atoms: C_11  and  C_12
REMARK    5  A    between atoms: C_12  and  C_13
REMARK    6  A    between atoms: C_13  and  C_14
REMARK    7  A    between atoms: C_14  and  C_15
REMARK    8  A    between atoms: C_15  and  C_16
REMARK    9  A    between atoms: C_16  and  C_17
REMARK   10  A    between atoms: C_17  and  C_18
REMARK   11  A    between atoms: C_19  and  O_21
REMARK   12  A    between atoms: C_22  and  O_24
REMARK   13  A    between atoms: C_25  and  O_27
REMARK                            x       y       z     vdW  Elec       q    Type
REMARK                         _______ _______ _______ _____ _____    ______ ____
ROOT
ATOM      1  C   UNL     1       7.700  -3.433  26.493  0.00  0.00    +0.134 C 
ATOM      2  C   UNL     1       8.613  -4.685  26.470  0.00  0.00    +0.168 C 
ATOM      3  C   UNL     1       8.928  -5.252  25.045  0.00  0.00    +0.177 C 
ATOM      4  C   UNL     1       8.156  -4.639  23.842  0.00  0.00    +0.193 C 
ATOM      5  C   UNL     1       7.234  -3.471  24.264  0.00  0.00    +0.239 C 
ATOM      6  O   UNL     1       6.074  -4.036  24.920  0.00  0.00    -0.354 OA
ATOM      7  N   UNL     1       7.897  -2.670  25.275  0.00  0.00    -0.277 N 
ATOM      8  C   UNL     1       6.233  -3.794  26.329  0.00  0.00    +0.187 C 
ENDROOT
BRANCH   2   9
ATOM      9  O   UNL     1       8.072  -5.707  27.324  0.00  0.00    -0.387 OA
ATOM     10  H   UNL     1       8.606  -5.747  28.139  0.00  0.00    +0.210 HD
ENDBRANCH   2   9
BRANCH   3  11
ATOM     11  O   UNL     1      10.347  -5.100  24.809  0.00  0.00    -0.386 OA
ATOM     12  H   UNL     1      10.793  -5.041  25.673  0.00  0.00    +0.210 HD
ENDBRANCH   3  11
BRANCH   4  13
ATOM     13  O   UNL     1       7.417  -5.692  23.195  0.00  0.00    -0.385 OA
ATOM     14  H   UNL     1       8.059  -6.303  22.790  0.00  0.00    +0.210 HD
ENDBRANCH   4  13
BRANCH   7  15
ATOM     15  C   UNL     1       8.703  -1.575  25.029  0.00  0.00    +0.135 C 
ATOM     16  S   UNL     1       8.294  -0.020  25.523  0.00  0.00    -0.019 S 
BRANCH  15  17
ATOM     17  N   UNL     1       9.861  -1.854  24.333  0.00  0.00    -0.326 N 
ATOM     18  H   UNL     1      10.576  -2.365  24.827  0.00  0.00    +0.148 HD
BRANCH  17  19
ATOM     19  C   UNL     1      10.355  -1.070  23.196  0.00  0.00    +0.103 C 
BRANCH  19  20
ATOM     20  C   UNL     1       9.496  -1.216  21.941  0.00  0.00    +0.019 C 
BRANCH  20  21
ATOM     21  C   UNL     1       9.223   0.122  21.255  0.00  0.00    +0.002 C 
BRANCH  21  22
ATOM     22  C   UNL     1       9.947   1.268  21.964  0.00  0.00    +0.000 C 
BRANCH  22  23
ATOM     23  C   UNL     1       8.951   2.289  22.514  0.00  0.00    -0.000 C 
BRANCH  23  24
ATOM     24  C   UNL     1       7.646   2.283  21.718  0.00  0.00    -0.000 C 
BRANCH  24  25
ATOM     25  C   UNL     1       6.651   3.300  22.277  0.00  0.00    -0.003 C 
ATOM     26  C   UNL     1       7.224   4.708  22.252  0.00  0.00    +0.004 C 
ENDBRANCH  24  25
ENDBRANCH  23  24
ENDBRANCH  22  23
ENDBRANCH  21  22
ENDBRANCH  20  21
ENDBRANCH  19  20
ENDBRANCH  17  19
ENDBRANCH  15  17
ENDBRANCH   7  15
TORSDOF 12
ENDMDL
MODEL 3
REMARK VINA RESULT:      -5.7      2.367      3.950
REMARK  Name = 
REMARK  13 active torsions:
REMARK  status: ('A' for Active; 'I' for Inactive)
REMARK    1  A    between atoms: N_7  and  C_8
REMARK    2  A    between atoms: C_8  and  N_10
REMARK    3  A    between atoms: N_10  and  C_11
REMARK    4  A    between atoms: C_11  and  C_12
REMARK    5  A    between atoms: C_12  and  C_13
REMARK    6  A    between atoms: C_13  and  C_14
REMARK    7  A    between atoms: C_14  and  C_15
REMARK    8  A    between atoms: C_15  and  C_16
REMARK    9  A    between atoms: C_16  and  C_17
REMARK   10  A    between atoms: C_17  and  C_18
REMARK   11  A    between atoms: C_19  and  O_21
REMARK   12  A    between atoms: C_22  and  O_24
REMARK   13  A    between atoms: C_25  and  O_27
REMARK                            x       y       z     vdW  Elec       q    Type
REMARK                         _______ _______ _______ _____ _____    ______ ____
ROOT
ATOM      1  C   UNL     1       7.194  -4.736  22.479  0.00  0.00    +0.134 C 
ATOM      2  C   UNL     1       6.509  -3.480  21.883  0.00  0.00    +0.168 C 
ATOM      3  C   UNL     1       5.658  -2.644  22.897  0.00  0.00    +0.177 C 
ATOM      4  C   UNL     1       5.431  -3.248  24.313  0.00  0.00    +0.193 C 
ATOM      5  C   UNL     1       6.183  -4.584  24.513  0.00  0.00    +0.239 C 
ATOM      6  O   UNL     1       5.464  -5.611  23.791  0.00  0.00    -0.354 OA
ATOM      7  N   UNL     1       7.486  -4.507  23.882  0.00  0.00    -0.277 N 
ATOM      8  C   UNL     1       6.231  -5.904  22.610  0.00  0.00    +0.187 C 
ENDROOT
BRANCH   2   9
ATOM      9  O   UNL     1       5.730  -3.842  20.730  0.00  0.00    -0.387 OA
ATOM     10  H   UNL     1       5.324  -4.715  20.889  0.00  0.00    +0.210 HD
ENDBRANCH   2   9
BRANCH   3  11
ATOM     11  O   UNL     1       6.284  -1.349  23.042  0.00  0.00    -0.386 OA
ATOM     12  H   UNL     1       5.739  -0.694  22.568  0.00  0.00    +0.210 HD
ENDBRANCH   3  11
BRANCH   4  13
ATOM     13  O   UNL     1       4.013  -3.400  24.517  0.00  0.00    -0.385 OA
ATOM     14  H   UNL     1       3.872  -4.205  25.048  0.00  0.00    +0.210 HD
ENDBRANCH   4  13
BRANCH   7  15
ATOM     15  C   UNL     1       8.650  -4.083  24.493  0.00  0.00    +0.135 C 
ATOM     16  S   UNL     1       9.665  -5.128  25.333  0.00  0.00    -0.019 S 
BRANCH  15  17
ATOM     17  N   UNL     1       8.906  -2.732  24.374  0.00  0.00    -0.326 N 
ATOM     18  H   UNL     1       9.571  -2.456  23.668  0.00  0.00    +0.148 HD
BRANCH  17  19
ATOM     19  C   UNL     1       8.734  -1.756  25.455  0.00  0.00    +0.103 C 
BRANCH  19  20
ATOM     20  C   UNL     1       9.459  -0.435  25.201  0.00  0.00    +0.019 C 
BRANCH  20  21
ATOM     21  C   UNL     1       8.519   0.769  25.236  0.00  0.00    +0.002 C 
BRANCH  21  22
ATOM     22  C   UNL     1       9.091   1.946  24.444  0.00  0.00    +0.000 C 
BRANCH  22  23
ATOM     23  C   UNL     1      10.333   1.527  23.658  0.00  0.00    -0.000 C 
BRANCH  23  24
ATOM     24  C   UNL     1      10.192   1.859  22.172  0.00  0.00    -0.000 C 
BRANCH  24  25
ATOM     25  C   UNL     1       9.084   1.031  21.522  0.00  0.00    -0.003 C 
ATOM     26  C   UNL     1       9.443  -0.446  21.483  0.00  0.00    +0.004 C 
ENDBRANCH  24  25
ENDBRANCH  23  24
ENDBRANCH  22  23
ENDBRANCH  21  22
ENDBRANCH  20  21
ENDBRANCH  19  20
ENDBRANCH  17  19
ENDBRANCH  15  17
ENDBRANCH   7  15
TORSDOF 12
ENDMDL
MODEL 4
REMARK VINA RESULT:      -5.7      1.562      3.089
REMARK  Name = 
REMARK  13 active torsions:
REMARK  status: ('A' for Active; 'I' for Inactive)
REMARK    1  A    between atoms: N_7  and  C_8
REMARK    2  A    between atoms: C_8  and  N_10
REMARK    3  A    between atoms: N_10  and  C_11
REMARK    4  A    between atoms: C_11  and  C_12
REMARK    5  A    between atoms: C_12  and  C_13
REMARK    6  A    between atoms: C_13  and  C_14
REMARK    7  A    between atoms: C_14  and  C_15
REMARK    8  A    between atoms: C_15  and  C_16
REMARK    9  A    between atoms: C_16  and  C_17
REMARK   10  A    between atoms: C_17  and  C_18
REMARK   11  A    between atoms: C_19  and  O_21
REMARK   12  A    between atoms: C_22  and  O_24
REMARK   13  A    between atoms: C_25  and  O_27
REMARK                            x       y       z     vdW  Elec       q    Type
REMARK                         _______ _______ _______ _____ _____    ______ ____
ROOT
ATOM      1  C   UNL     1       6.547  -3.792  24.715  0.00  0.00    +0.134 C 
ATOM      2  C   UNL     1       6.271  -4.975  25.678  0.00  0.00    +0.168 C 
ATOM      3  C   UNL     1       7.517  -5.487  26.474  0.00  0.00    +0.177 C 
ATOM      4  C   UNL     1       8.907  -4.905  26.087  0.00  0.00    +0.193 C 
ATOM      5  C   UNL     1       8.807  -3.816  24.994  0.00  0.00    +0.239 C 
ATOM      6  O   UNL     1       8.557  -4.475  23.730  0.00  0.00    -0.354 OA
ATOM      7  N   UNL     1       7.638  -2.991  25.236  0.00  0.00    -0.277 N 
ATOM      8  C   UNL     1       7.174  -4.253  23.410  0.00  0.00    +0.187 C 
ENDROOT
BRANCH   2   9
ATOM      9  O   UNL     1       5.634  -6.051  24.968  0.00  0.00    -0.387 OA
ATOM     10  H   UNL     1       5.293  -5.709  24.122  0.00  0.00    +0.210 HD
ENDBRANCH   2   9
BRANCH   3  11
ATOM     11  O   UNL     1       7.284  -5.230  27.879  0.00  0.00    -0.386 OA
ATOM     12  H   UNL     1       8.049  -5.568  28.379  0.00  0.00    +0.210 HD
ENDBRANCH   3  11
BRANCH   4  13
ATOM     13  O   UNL     1       9.755  -5.994  25.675  0.00  0.00    -0.385 OA
ATOM     14  H   UNL     1       9.624  -6.728  26.302  0.00  0.00    +0.210 HD
ENDBRANCH   4  13
BRANCH   7  15
ATOM     15  C   UNL     1       7.614  -1.837  25.994  0.00  0.00    +0.135 C 
ATOM     16  S   UNL     1       6.233  -1.308  26.796  0.00  0.00    -0.019 S 
BRANCH  15  17
ATOM     17  N   UNL     1       8.807  -1.143  26.030  0.00  0.00    -0.326 N 
ATOM     18  H   UNL     1       9.370  -1.250  26.858  0.00  0.00    +0.148 HD
BRANCH  17  19
ATOM     19  C   UNL     1       9.077   0.083  25.270  0.00  0.00    +0.103 C 
BRANCH  19  20
ATOM     20  C   UNL     1      10.565   0.330  25.028  0.00  0.00    +0.019 C 
BRANCH  20  21
ATOM     21  C   UNL     1      10.823   1.544  24.137  0.00  0.00    +0.002 C 
BRANCH  21  22
ATOM     22  C   UNL     1       9.512   2.186  23.677  0.00  0.00    +0.000 C 
BRANCH  22  23
ATOM     23  C   UNL     1       9.416   2.205  22.151  0.00  0.00    -0.000 C 
BRANCH  23  24
ATOM     24  C   UNL     1       8.635   1.001  21.625  0.00  0.00    -0.000 C 
BRANCH  24  25
ATOM     25  C   UNL     1       9.561  -0.182  21.346  0.00  0.00    -0.003 C 
ATOM     26  C   UNL     1       8.972  -1.484  21.866  0.00  0.00    +0.004 C 
ENDBRANCH  24  25
ENDBRANCH  23  24
ENDBRANCH  22  23
ENDBRANCH  21  22
ENDBRANCH  20  21
ENDBRANCH  19  20
ENDBRANCH  17  19
ENDBRANCH  15  17
ENDBRANCH   7  15
TORSDOF 12
ENDMDL
MODEL 5
REMARK VINA RESULT:      -5.6      3.270      6.542
REMARK  Name = 
REMARK  13 active torsions:
REMARK  status: ('A' for Active; 'I' for Inactive)
REMARK    1  A    between atoms: N_7  and  C_8
REMARK    2  A    between atoms: C_8  and  N_10
REMARK    3  A    between atoms: N_10  and  C_11
REMARK    4  A    between atoms: C_11  and  C_12
REMARK    5  A    between atoms: C_12  and  C_13
REMARK    6  A    between atoms: C_13  and  C_14
REMARK    7  A    between atoms: C_14  and  C_15
REMARK    8  A    between atoms: C_15  and  C_16
REMARK    9  A    between atoms: C_16  and  C_17
REMARK   10  A    between atoms: C_17  and  C_18
REMARK   11  A    between atoms: C_19  and  O_21
REMARK   12  A    between atoms: C_22  and  O_24
REMARK   13  A    between atoms: C_25  and  O_27
REMARK                            x       y       z     vdW  Elec       q    Type
REMARK                         _______ _______ _______ _____ _____    ______ ____
ROOT
ATOM      1  C   UNL     1       9.097   0.963  24.440  0.00  0.00    +0.134 C 
ATOM      2  C   UNL     1       9.632   1.683  23.177  0.00  0.00    +0.168 C 
ATOM      3  C   UNL     1       9.608   0.829  21.865  0.00  0.00    +0.177 C 
ATOM      4  C   UNL     1       9.243  -0.677  21.996  0.00  0.00    +0.193 C 
ATOM      5  C   UNL     1       8.872  -1.072  23.444  0.00  0.00    +0.239 C 
ATOM      6  O   UNL     1      10.095  -1.142  24.214  0.00  0.00    -0.354 OA
ATOM      7  N   UNL     1       8.094  -0.010  24.053  0.00  0.00    -0.277 N 
ATOM      8  C   UNL     1      10.131   0.029  25.047  0.00  0.00    +0.187 C 
ENDROOT
BRANCH   2   9
ATOM      9  O   UNL     1      10.948   2.208  23.427  0.00  0.00    -0.387 OA
ATOM     10  H   UNL     1      11.292   1.809  24.247  0.00  0.00    +0.210 HD
ENDBRANCH   2   9
BRANCH   3  11
ATOM     11  O   UNL     1       8.680   1.451  20.947  0.00  0.00    -0.386 OA
ATOM     12  H   UNL     1       8.145   0.748  20.535  0.00  0.00    +0.210 HD
ENDBRANCH   3  11
BRANCH   4  13
ATOM     13  O   UNL     1      10.350  -1.455  21.501  0.00  0.00    -0.385 OA
ATOM     14  H   UNL     1      10.282  -1.488  20.530  0.00  0.00    +0.210 HD
ENDBRANCH   4  13
BRANCH   7  15
ATOM     15  C   UNL     1       6.716   0.092  24.024  0.00  0.00    +0.135 C 
ATOM     16  S   UNL     1       5.912   1.556  24.224  0.00  0.00    -0.019 S 
BRANCH  15  17
ATOM     17  N   UNL     1       6.051  -1.102  23.836  0.00  0.00    -0.326 N 
ATOM     18  H   UNL     1       5.723  -1.297  22.903  0.00  0.00    +0.148 HD
BRANCH  17  19
ATOM     19  C   UNL     1       5.340  -1.832  24.891  0.00  0.00    +0.103 C 
BRANCH  19  20
ATOM     20  C   UNL     1       6.203  -2.884  25.587  0.00  0.00    +0.019 C 
BRANCH  20  21
ATOM     21  C   UNL     1       5.740  -4.311  25.295  0.00  0.00    +0.002 C 
BRANCH  21  22
ATOM     22  C   UNL     1       6.927  -5.234  25.012  0.00  0.00    +0.000 C 
BRANCH  22  23
ATOM     23  C   UNL     1       7.975  -4.532  24.149  0.00  0.00    -0.000 C 
BRANCH  23  24
ATOM     24  C   UNL     1       7.550  -4.485  22.681  0.00  0.00    -0.000 C 
BRANCH  24  25
ATOM     25  C   UNL     1       7.255  -5.885  22.145  0.00  0.00    -0.003 C 
ATOM     26  C   UNL     1       6.038  -5.885  21.234  0.00  0.00    +0.004 C 
ENDBRANCH  24  25
ENDBRANCH  23  24
ENDBRANCH  22  23
ENDBRANCH  21  22
ENDBRANCH  20  21
ENDBRANCH  19  20
ENDBRANCH  17  19
ENDBRANCH  15  17
ENDBRANCH   7  15
TORSDOF 12
ENDMDL
MODEL 6
REMARK VINA RESULT:      -5.6      3.223      6.273
REMARK  Name = 
REMARK  13 active torsions:
REMARK  status: ('A' for Active; 'I' for Inactive)
REMARK    1  A    between atoms: N_7  and  C_8
REMARK    2  A    between atoms: C_8  and  N_10
REMARK    3  A    between atoms: N_10  and  C_11
REMARK    4  A    between atoms: C_11  and  C_12
REMARK    5  A    between atoms: C_12  and  C_13
REMARK    6  A    between atoms: C_13  and  C_14
REMARK    7  A    between atoms: C_14  and  C_15
REMARK    8  A    between atoms: C_15  and  C_16
REMARK    9  A    between atoms: C_16  and  C_17
REMARK   10  A    between atoms: C_17  and  C_18
REMARK   11  A    between atoms: C_19  and  O_21
REMARK   12  A    between atoms: C_22  and  O_24
REMARK   13  A    between atoms: C_25  and  O_27
REMARK                            x       y       z     vdW  Elec       q    Type
REMARK                         _______ _______ _______ _____ _____    ______ ____
ROOT
ATOM      1  C   UNL     1       9.207  -1.002  24.226  0.00  0.00    +0.134 C 
ATOM      2  C   UNL     1       9.509   0.407  24.796  0.00  0.00    +0.168 C 
ATOM      3  C   UNL     1       9.161   1.598  23.842  0.00  0.00    +0.177 C 
ATOM      4  C   UNL     1       8.743   1.252  22.384  0.00  0.00    +0.193 C 
ATOM      5  C   UNL     1       8.660  -0.273  22.140  0.00  0.00    +0.239 C 
ATOM      6  O   UNL     1      10.011  -0.781  22.038  0.00  0.00    -0.354 OA
ATOM      7  N   UNL     1       8.090  -0.921  23.305  0.00  0.00    -0.277 N 
ATOM      8  C   UNL     1      10.289  -1.473  23.268  0.00  0.00    +0.187 C 
ENDROOT
BRANCH   2   9
ATOM      9  O   UNL     1      10.876   0.481  25.236  0.00  0.00    -0.387 OA
ATOM     10  H   UNL     1      11.100  -0.348  25.698  0.00  0.00    +0.210 HD
ENDBRANCH   2   9
BRANCH   3  11
ATOM     11  O   UNL     1       8.099   2.365  24.456  0.00  0.00    -0.386 OA
ATOM     12  H   UNL     1       8.359   3.304  24.445  0.00  0.00    +0.210 HD
ENDBRANCH   3  11
BRANCH   4  13
ATOM     13  O   UNL     1       9.674   1.884  21.485  0.00  0.00    -0.385 OA
ATOM     14  H   UNL     1       9.811   1.287  20.727  0.00  0.00    +0.210 HD
ENDBRANCH   4  13
BRANCH   7  15
ATOM     15  C   UNL     1       6.745  -1.163  23.511  0.00  0.00    +0.135 C 
ATOM     16  S   UNL     1       5.959  -0.752  24.940  0.00  0.00    -0.019 S 
BRANCH  15  17
ATOM     17  N   UNL     1       6.101  -1.783  22.459  0.00  0.00    -0.326 N 
ATOM     18  H   UNL     1       5.518  -1.202  21.878  0.00  0.00    +0.148 HD
BRANCH  17  19
ATOM     19  C   UNL     1       5.766  -3.210  22.417  0.00  0.00    +0.103 C 
BRANCH  19  20
ATOM     20  C   UNL     1       6.987  -4.114  22.253  0.00  0.00    +0.019 C 
BRANCH  20  21
ATOM     21  C   UNL     1       6.930  -5.349  23.152  0.00  0.00    +0.002 C 
BRANCH  21  22
ATOM     22  C   UNL     1       5.968  -5.141  24.324  0.00  0.00    +0.000 C 
BRANCH  22  23
ATOM     23  C   UNL     1       6.684  -5.327  25.662  0.00  0.00    -0.000 C 
BRANCH  23  24
ATOM     24  C   UNL     1       7.516  -4.098  26.026  0.00  0.00    -0.000 C 
BRANCH  24  25
ATOM     25  C   UNL     1       8.896  -4.497  26.549  0.00  0.00    -0.003 C 
ATOM     26  C   UNL     1       9.794  -4.990  25.425  0.00  0.00    +0.004 C 
ENDBRANCH  24  25
ENDBRANCH  23  24
ENDBRANCH  22  23
ENDBRANCH  21  22
ENDBRANCH  20  21
ENDBRANCH  19  20
ENDBRANCH  17  19
ENDBRANCH  15  17
ENDBRANCH   7  15
TORSDOF 12
ENDMDL
MODEL 7
REMARK VINA RESULT:      -5.6      2.250      3.051
REMARK  Name = 
REMARK  13 active torsions:
REMARK  status: ('A' for Active; 'I' for Inactive)
REMARK    1  A    between atoms: N_7  and  C_8
REMARK    2  A    between atoms: C_8  and  N_10
REMARK    3  A    between atoms: N_10  and  C_11
REMARK    4  A    between atoms: C_11  and  C_12
REMARK    5  A    between atoms: C_12  and  C_13
REMARK    6  A    between atoms: C_13  and  C_14
REMARK    7  A    between atoms: C_14  and  C_15
REMARK    8  A    between atoms: C_15  and  C_16
REMARK    9  A    between atoms: C_16  and  C_17
REMARK   10  A    between atoms: C_17  and  C_18
REMARK   11  A    between atoms: C_19  and  O_21
REMARK   12  A    between atoms: C_22  and  O_24
REMARK   13  A    between atoms: C_25  and  O_27
REMARK                            x       y       z     vdW  Elec       q    Type
REMARK                         _______ _______ _______ _____ _____    ______ ____
ROOT
ATOM      1  C   UNL     1       5.477  -3.758  25.010  0.00  0.00    +0.134 C 
ATOM      2  C   UNL     1       6.217  -2.914  26.079  0.00  0.00    +0.168 C 
ATOM      3  C   UNL     1       7.491  -3.586  26.690  0.00  0.00    +0.177 C 
ATOM      4  C   UNL     1       7.768  -5.072  26.318  0.00  0.00    +0.193 C 
ATOM      5  C   UNL     1       6.742  -5.627  25.303  0.00  0.00    +0.239 C 
ATOM      6  O   UNL     1       5.504  -5.873  26.011  0.00  0.00    -0.354 OA
ATOM      7  N   UNL     1       6.429  -4.607  24.321  0.00  0.00    -0.277 N 
ATOM      8  C   UNL     1       4.595  -4.825  25.636  0.00  0.00    +0.187 C 
ENDROOT
BRANCH   2   9
ATOM      9  O   UNL     1       5.301  -2.510  27.111  0.00  0.00    -0.387 OA
ATOM     10  H   UNL     1       5.768  -1.915  27.726  0.00  0.00    +0.210 HD
ENDBRANCH   2   9
BRANCH   3  11
ATOM     11  O   UNL     1       8.639  -2.794  26.309  0.00  0.00    -0.386 OA
ATOM     12  H   UNL     1       8.387  -2.241  25.547  0.00  0.00    +0.210 HD
ENDBRANCH   3  11
BRANCH   4  13
ATOM     13  O   UNL     1       7.786  -5.846  27.532  0.00  0.00    -0.385 OA
ATOM     14  H   UNL     1       8.231  -6.691  27.342  0.00  0.00    +0.210 HD
ENDBRANCH   4  13
BRANCH   7  15
ATOM     15  C   UNL     1       7.091  -4.416  23.124  0.00  0.00    +0.135 C 
ATOM     16  S   UNL     1       6.638  -5.196  21.704  0.00  0.00    -0.019 S 
BRANCH  15  17
ATOM     17  N   UNL     1       8.163  -3.549  23.187  0.00  0.00    -0.326 N 
ATOM     18  H   UNL     1       8.839  -3.715  23.915  0.00  0.00    +0.148 HD
BRANCH  17  19
ATOM     19  C   UNL     1       8.147  -2.173  22.678  0.00  0.00    +0.103 C 
BRANCH  19  20
ATOM     20  C   UNL     1       9.509  -1.699  22.172  0.00  0.00    +0.019 C 
BRANCH  20  21
ATOM     21  C   UNL     1       9.398  -0.541  21.181  0.00  0.00    +0.002 C 
BRANCH  21  22
ATOM     22  C   UNL     1       8.896   0.731  21.865  0.00  0.00    +0.000 C 
BRANCH  22  23
ATOM     23  C   UNL     1      10.042   1.714  22.108  0.00  0.00    -0.000 C 
BRANCH  23  24
ATOM     24  C   UNL     1      10.171   2.066  23.590  0.00  0.00    -0.000 C 
BRANCH  24  25
ATOM     25  C   UNL     1      10.952   0.994  24.348  0.00  0.00    -0.003 C 
ATOM     26  C   UNL     1      10.042   0.179  25.253  0.00  0.00    +0.004 C 
ENDBRANCH  24  25
ENDBRANCH  23  24
ENDBRANCH  22  23
ENDBRANCH  21  22
ENDBRANCH  20  21
ENDBRANCH  19  20
ENDBRANCH  17  19
ENDBRANCH  15  17
ENDBRANCH   7  15
TORSDOF 12
ENDMDL
MODEL 8
REMARK VINA RESULT:      -5.5      3.392      5.088
REMARK  Name = 
REMARK  13 active torsions:
REMARK  status: ('A' for Active; 'I' for Inactive)
REMARK    1  A    between atoms: N_7  and  C_8
REMARK    2  A    between atoms: C_8  and  N_10
REMARK    3  A    between atoms: N_10  and  C_11
REMARK    4  A    between atoms: C_11  and  C_12
REMARK    5  A    between atoms: C_12  and  C_13
REMARK    6  A    between atoms: C_13  and  C_14
REMARK    7  A    between atoms: C_14  and  C_15
REMARK    8  A    between atoms: C_15  and  C_16
REMARK    9  A    between atoms: C_16  and  C_17
REMARK   10  A    between atoms: C_17  and  C_18
REMARK   11  A    between atoms: C_19  and  O_21
REMARK   12  A    between atoms: C_22  and  O_24
REMARK   13  A    between atoms: C_25  and  O_27
REMARK                            x       y       z     vdW  Elec       q    Type
REMARK                         _______ _______ _______ _____ _____    ______ ____
ROOT
ATOM      1  C   UNL     1       9.035   0.703  24.663  0.00  0.00    +0.134 C 
ATOM      2  C   UNL     1      10.188   1.236  23.776  0.00  0.00    +0.168 C 
ATOM      3  C   UNL     1      10.156   0.757  22.287  0.00  0.00    +0.177 C 
ATOM      4  C   UNL     1       9.113  -0.332  21.904  0.00  0.00    +0.193 C 
ATOM      5  C   UNL     1       8.194  -0.711  23.089  0.00  0.00    +0.239 C 
ATOM      6  O   UNL     1       8.958  -1.540  23.996  0.00  0.00    -0.354 OA
ATOM      7  N   UNL     1       7.859   0.481  23.844  0.00  0.00    -0.277 N 
ATOM      8  C   UNL     1       9.287  -0.721  25.131  0.00  0.00    +0.187 C 
ENDROOT
BRANCH   2   9
ATOM      9  O   UNL     1      11.457   0.943  24.386  0.00  0.00    -0.387 OA
ATOM     10  H   UNL     1      11.792   0.104  24.020  0.00  0.00    +0.210 HD
ENDBRANCH   2   9
BRANCH   3  11
ATOM     11  O   UNL     1       9.940   1.917  21.450  0.00  0.00    -0.386 OA
ATOM     12  H   UNL     1      10.774   2.419  21.406  0.00  0.00    +0.210 HD
ENDBRANCH   3  11
BRANCH   4  13
ATOM     13  O   UNL     1       9.822  -1.477  21.394  0.00  0.00    -0.385 OA
ATOM     14  H   UNL     1      10.741  -1.207  21.218  0.00  0.00    +0.210 HD
ENDBRANCH   4  13
BRANCH   7  15
ATOM     15  C   UNL     1       6.764   1.292  23.617  0.00  0.00    +0.135 C 
ATOM     16  S   UNL     1       5.485   1.413  24.704  0.00  0.00    -0.019 S 
BRANCH  15  17
ATOM     17  N   UNL     1       6.793   1.983  22.423  0.00  0.00    -0.326 N 
ATOM     18  H   UNL     1       7.374   1.603  21.693  0.00  0.00    +0.148 HD
BRANCH  17  19
ATOM     19  C   UNL     1       6.508   3.415  22.286  0.00  0.00    +0.103 C 
BRANCH  19  20
ATOM     20  C   UNL     1       7.679   4.307  22.697  0.00  0.00    +0.019 C 
BRANCH  20  21
ATOM     21  C   UNL     1       7.526   4.862  24.113  0.00  0.00    +0.002 C 
BRANCH  21  22
ATOM     22  C   UNL     1       8.883   5.003  24.805  0.00  0.00    +0.000 C 
BRANCH  22  23
ATOM     23  C   UNL     1      10.029   4.779  23.818  0.00  0.00    -0.000 C 
BRANCH  23  24
ATOM     24  C   UNL     1      10.993   5.965  23.802  0.00  0.00    -0.000 C 
BRANCH  24  25
ATOM     25  C   UNL     1      12.447   5.497  23.765  0.00  0.00    -0.003 C 
ATOM     26  C   UNL     1      13.031   5.608  22.366  0.00  0.00    +0.004 C 
ENDBRANCH  24  25
ENDBRANCH  23  24
ENDBRANCH  22  23
ENDBRANCH  21  22
ENDBRANCH  20  21
ENDBRANCH  19  20
ENDBRANCH  17  19
ENDBRANCH  15  17
ENDBRANCH   7  15
TORSDOF 12
ENDMDL
MODEL 9
REMARK VINA RESULT:      -5.5      3.387      6.977
REMARK  Name = 
REMARK  13 active torsions:
REMARK  status: ('A' for Active; 'I' for Inactive)
REMARK    1  A    between atoms: N_7  and  C_8
REMARK    2  A    between atoms: C_8  and  N_10
REMARK    3  A    between atoms: N_10  and  C_11
REMARK    4  A    between atoms: C_11  and  C_12
REMARK    5  A    between atoms: C_12  and  C_13
REMARK    6  A    between atoms: C_13  and  C_14
REMARK    7  A    between atoms: C_14  and  C_15
REMARK    8  A    between atoms: C_15  and  C_16
REMARK    9  A    between atoms: C_16  and  C_17
REMARK   10  A    between atoms: C_17  and  C_18
REMARK   11  A    between atoms: C_19  and  O_21
REMARK   12  A    between atoms: C_22  and  O_24
REMARK   13  A    between atoms: C_25  and  O_27
REMARK                            x       y       z     vdW  Elec       q    Type
REMARK                         _______ _______ _______ _____ _____    ______ ____
ROOT
ATOM      1  C   UNL     1       9.343  -0.124  24.906  0.00  0.00    +0.134 C 
ATOM      2  C   UNL     1       8.194   0.890  24.676  0.00  0.00    +0.168 C 
ATOM      3  C   UNL     1       7.932   1.268  23.181  0.00  0.00    +0.177 C 
ATOM      4  C   UNL     1       8.948   0.755  22.121  0.00  0.00    +0.193 C 
ATOM      5  C   UNL     1      10.042  -0.146  22.739  0.00  0.00    +0.239 C 
ATOM      6  O   UNL     1      10.973   0.707  23.446  0.00  0.00    -0.354 OA
ATOM      7  N   UNL     1       9.453  -0.998  23.754  0.00  0.00    -0.277 N 
ATOM      8  C   UNL     1      10.709   0.539  24.849  0.00  0.00    +0.187 C 
ENDROOT
BRANCH   2   9
ATOM      9  O   UNL     1       8.405   2.066  25.477  0.00  0.00    -0.387 OA
ATOM     10  H   UNL     1       9.067   1.862  26.163  0.00  0.00    +0.210 HD
ENDBRANCH   2   9
BRANCH   3  11
ATOM     11  O   UNL     1       6.613   0.790  22.825  0.00  0.00    -0.386 OA
ATOM     12  H   UNL     1       6.469   0.975  21.880  0.00  0.00    +0.210 HD
ENDBRANCH   3  11
BRANCH   4  13
ATOM     13  O   UNL     1       9.516   1.895  21.449  0.00  0.00    -0.385 OA
ATOM     14  H   UNL     1       9.555   1.694  20.497  0.00  0.00    +0.210 HD
ENDBRANCH   4  13
BRANCH   7  15
ATOM     15  C   UNL     1       8.931  -2.259  23.538  0.00  0.00    +0.135 C 
ATOM     16  S   UNL     1       7.762  -2.567  22.367  0.00  0.00    -0.019 S 
BRANCH  15  17
ATOM     17  N   UNL     1       9.430  -3.242  24.368  0.00  0.00    -0.326 N 
ATOM     18  H   UNL     1      10.424  -3.235  24.534  0.00  0.00    +0.148 HD
BRANCH  17  19
ATOM     19  C   UNL     1       8.789  -4.542  24.593  0.00  0.00    +0.103 C 
BRANCH  19  20
ATOM     20  C   UNL     1       8.778  -4.966  26.061  0.00  0.00    +0.019 C 
BRANCH  20  21
ATOM     21  C   UNL     1       7.367  -5.223  26.589  0.00  0.00    +0.002 C 
BRANCH  21  22
ATOM     22  C   UNL     1       6.316  -5.001  25.499  0.00  0.00    +0.000 C 
BRANCH  22  23
ATOM     23  C   UNL     1       5.296  -6.140  25.481  0.00  0.00    -0.000 C 
BRANCH  23  24
ATOM     24  C   UNL     1       4.953  -6.560  24.051  0.00  0.00    -0.000 C 
BRANCH  24  25
ATOM     25  C   UNL     1       5.509  -5.565  23.033  0.00  0.00    -0.003 C 
ATOM     26  C   UNL     1       6.464  -6.240  22.061  0.00  0.00    +0.004 C 
ENDBRANCH  24  25
ENDBRANCH  23  24
ENDBRANCH  22  23
ENDBRANCH  21  22
ENDBRANCH  20  21
ENDBRANCH  19  20
ENDBRANCH  17  19
ENDBRANCH  15  17
ENDBRANCH   7  15
TORSDOF 12
ENDMDL
