MODEL 1
REMARK VINA RESULT:      -6.5      0.000      0.000
REMARK  Name = 
REMARK  16 active torsions:
REMARK  status: ('A' for Active; 'I' for Inactive)
REMARK    1  A    between atoms: CB_1  and  CA_2
REMARK    2  A    between atoms: CA_2  and  N_4
REMARK    3  A    between atoms: CA_2  and  C_38
REMARK    4  A    between atoms: N_4  and  C_5
REMARK    5  A    between atoms: C_5  and  C_7
REMARK    6  A    between atoms: C_5  and  C_15
REMARK    7  A    between atoms: C_7  and  C_8
REMARK    8  A    between atoms: C_8  and  C_9
REMARK    9  A    between atoms: N_17  and  C_18
REMARK   10  A    between atoms: C_18  and  C_20
REMARK   11  A    between atoms: C_18  and  C_29
REMARK   12  A    between atoms: C_20  and  C_21
REMARK   13  A    between atoms: C_21  and  C_22
REMARK   14  A    between atoms: C_22  and  N_23
REMARK   15  A    between atoms: N_31  and  C_32
REMARK   16  A    between atoms: C_38  and  O_39
REMARK                            x       y       z     vdW  Elec       q    Type
REMARK                         _______ _______ _______ _____ _____    ______ ____
ROOT
ATOM      1  C   UNK A   0       6.111  -1.249  25.719  0.00  0.00    +0.159 C 
ENDROOT
BRANCH   1   3
ATOM      2  C   UNK A   0       8.354  -2.164  25.157  0.00  0.00    +0.231 C 
ATOM      3  N   UNK A   0       7.009  -2.060  24.881  0.00  0.00    -0.303 N 
ATOM      4  H   UNK A   0       6.620  -2.615  24.133  0.00  0.00    +0.149 HD
ATOM      5  O   UNK A   0       8.856  -1.532  26.088  0.00  0.00    -0.274 OA
BRANCH   2   6
ATOM      6  C   UNK A   0       9.174  -3.099  24.224  0.00  0.00    +0.141 C 
BRANCH   6   7
ATOM      7  N   ALA A   1       9.589  -4.352  24.917  0.00  0.00    -0.294 NA
ATOM      8  H   ALA A   1      10.483  -4.629  24.504  0.00  0.00    +0.123 HD
BRANCH   7  10
ATOM      9  CB  ALA A   1       7.720  -5.407  23.593  0.00  0.00    +0.036 C 
ATOM     10  CA  ALA A   1       8.649  -5.496  24.801  0.00  0.00    +0.161 C 
BRANCH  10  11
ATOM     11  C   ALA A   1       7.805  -5.530  26.094  0.00  0.00    +0.322 C 
ATOM     12  OXT ALA A   1       6.686  -6.025  26.167  0.00  0.00    -0.249 OA
BRANCH  11  13
ATOM     13  O   ALA A   1       8.479  -5.111  27.192  0.00  0.00    -0.480 OA
ATOM     14  H   ALA A   1       8.775  -5.865  27.746  0.00  0.00    +0.295 HD
ENDBRANCH  11  13
ENDBRANCH  10  11
ENDBRANCH   7  10
ENDBRANCH   6   7
BRANCH   6  15
ATOM     15  C   UNK A   0      10.293  -2.299  23.533  0.00  0.00    +0.033 C 
BRANCH  15  16
ATOM     16  C   UNK A   0       9.840  -1.407  22.375  0.00  0.00    +0.037 C 
BRANCH  16  17
ATOM     17  C   UNK A   0      10.076   0.055  22.687  0.00  0.00    -0.047 A 
ATOM     18  C   UNK A   0      10.561   0.447  23.942  0.00  0.00    +0.003 A 
ATOM     19  C   UNK A   0      10.796   1.795  24.221  0.00  0.00    +0.000 A 
ATOM     20  C   UNK A   0      10.555   2.765  23.249  0.00  0.00    +0.000 A 
ATOM     21  C   UNK A   0      10.082   2.386  21.995  0.00  0.00    +0.000 A 
ATOM     22  C   UNK A   0       9.845   1.038  21.714  0.00  0.00    +0.003 A 
ENDBRANCH  16  17
ENDBRANCH  15  16
ENDBRANCH   6  15
ENDBRANCH   2   6
ENDBRANCH   1   3
BRANCH   1  23
ATOM     23  C   UNK A   0       5.898   0.204  25.200  0.00  0.00    +0.238 C 
ATOM     24  N   UNK A   0       7.020   0.852  24.731  0.00  0.00    -0.284 N 
ATOM     25  H   UNK A   0       7.910   0.572  25.145  0.00  0.00    +0.155 HD
ATOM     26  O   UNK A   0       4.805   0.761  25.331  0.00  0.00    -0.273 OA
BRANCH  24  27
ATOM     27  C   UNK A   0       6.956   2.091  24.069  0.00  0.00    +0.033 A 
ATOM     28  C   UNK A   0       7.320   3.278  24.716  0.00  0.00    +0.023 A 
ATOM     29  C   UNK A   0       7.261   4.496  24.040  0.00  0.00    +0.002 A 
ATOM     30  C   UNK A   0       6.861   4.525  22.707  0.00  0.00    +0.000 A 
ATOM     31  C   UNK A   0       6.488   3.345  22.063  0.00  0.00    +0.002 A 
ATOM     32  C   UNK A   0       6.504   2.131  22.752  0.00  0.00    +0.023 A 
ENDBRANCH  24  27
ENDBRANCH   1  23
BRANCH   1  33
ATOM     33  C   UNK A   0       4.698  -1.857  25.792  0.00  0.00    +0.035 C 
BRANCH  33  34
ATOM     34  C   UNK A   0       4.599  -3.374  25.835  0.00  0.00    +0.039 C 
BRANCH  34  35
ATOM     35  C   UNK A   0       3.403  -3.804  24.985  0.00  0.00    +0.196 C 
BRANCH  35  36
ATOM     36  N   UNK A   0       3.833  -4.478  23.761  0.00  0.00    -0.279 N 
ATOM     37  H   UNK A   0       3.970  -3.923  22.921  0.00  0.00    +0.258 HD
ATOM     38  C   UNK A   0       4.070  -5.795  23.681  0.00  0.00    +0.341 C 
ATOM     39  N   UNK A   0       4.447  -6.320  22.515  0.00  0.00    -0.292 N 
ATOM     40  H   UNK A   0       4.641  -7.310  22.419  0.00  0.00    +0.255 HD
ATOM     41  H   UNK A   0       4.570  -5.749  21.687  0.00  0.00    +0.255 HD
ATOM     42  N   UNK A   0       3.931  -6.606  24.735  0.00  0.00    -0.292 N 
ATOM     43  H   UNK A   0       4.110  -7.598  24.672  0.00  0.00    +0.255 HD
ATOM     44  H   UNK A   0       3.661  -6.250  25.638  0.00  0.00    +0.255 HD
ENDBRANCH  35  36
ENDBRANCH  34  35
ENDBRANCH  33  34
ENDBRANCH   1  33
TORSDOF 15
ENDMDL
MODEL 2
REMARK VINA RESULT:      -6.4      2.414      6.791
REMARK  Name = 
REMARK  16 active torsions:
REMARK  status: ('A' for Active; 'I' for Inactive)
REMARK    1  A    between atoms: CB_1  and  CA_2
REMARK    2  A    between atoms: CA_2  and  N_4
REMARK    3  A    between atoms: CA_2  and  C_38
REMARK    4  A    between atoms: N_4  and  C_5
REMARK    5  A    between atoms: C_5  and  C_7
REMARK    6  A    between atoms: C_5  and  C_15
REMARK    7  A    between atoms: C_7  and  C_8
REMARK    8  A    between atoms: C_8  and  C_9
REMARK    9  A    between atoms: N_17  and  C_18
REMARK   10  A    between atoms: C_18  and  C_20
REMARK   11  A    between atoms: C_18  and  C_29
REMARK   12  A    between atoms: C_20  and  C_21
REMARK   13  A    between atoms: C_21  and  C_22
REMARK   14  A    between atoms: C_22  and  N_23
REMARK   15  A    between atoms: N_31  and  C_32
REMARK   16  A    between atoms: C_38  and  O_39
REMARK                            x       y       z     vdW  Elec       q    Type
REMARK                         _______ _______ _______ _____ _____    ______ ____
ROOT
ATOM      1  C   UNK A   0       5.619  -0.505  24.936  0.00  0.00    +0.159 C 
ENDROOT
BRANCH   1   3
ATOM      2  C   UNK A   0       5.709   1.750  23.894  0.00  0.00    +0.231 C 
ATOM      3  N   UNK A   0       6.274   0.512  24.098  0.00  0.00    -0.303 N 
ATOM      4  H   UNK A   0       7.194   0.328  23.727  0.00  0.00    +0.149 HD
ATOM      5  O   UNK A   0       4.604   2.023  24.367  0.00  0.00    -0.274 OA
BRANCH   2   6
ATOM      6  C   UNK A   0       6.535   2.748  23.035  0.00  0.00    +0.141 C 
BRANCH   6   7
ATOM      7  N   ALA A   1       5.749   3.964  22.683  0.00  0.00    -0.294 NA
ATOM      8  H   ALA A   1       5.817   4.070  21.668  0.00  0.00    +0.123 HD
BRANCH   7  10
ATOM      9  CB  ALA A   1       5.233   6.394  23.123  0.00  0.00    +0.036 C 
ATOM     10  CA  ALA A   1       6.202   5.231  23.314  0.00  0.00    +0.161 C 
BRANCH  10  11
ATOM     11  C   ALA A   1       7.566   5.593  22.687  0.00  0.00    +0.322 C 
ATOM     12  OXT ALA A   1       8.644   5.396  23.236  0.00  0.00    -0.249 OA
BRANCH  11  13
ATOM     13  O   ALA A   1       7.479   6.000  21.398  0.00  0.00    -0.480 OA
ATOM     14  H   ALA A   1       6.878   6.769  21.299  0.00  0.00    +0.295 HD
ENDBRANCH  11  13
ENDBRANCH  10  11
ENDBRANCH   7  10
ENDBRANCH   6   7
BRANCH   6  15
ATOM     15  C   UNK A   0       7.202   2.004  21.864  0.00  0.00    +0.033 C 
BRANCH  15  16
ATOM     16  C   UNK A   0       8.731   2.038  21.852  0.00  0.00    +0.037 C 
BRANCH  16  17
ATOM     17  C   UNK A   0       9.311   0.721  22.321  0.00  0.00    -0.047 A 
ATOM     18  C   UNK A   0       9.901   0.613  23.587  0.00  0.00    +0.003 A 
ATOM     19  C   UNK A   0      10.418  -0.609  24.026  0.00  0.00    +0.000 A 
ATOM     20  C   UNK A   0      10.345  -1.735  23.209  0.00  0.00    +0.000 A 
ATOM     21  C   UNK A   0       9.750  -1.642  21.952  0.00  0.00    +0.000 A 
ATOM     22  C   UNK A   0       9.235  -0.421  21.511  0.00  0.00    +0.003 A 
ENDBRANCH  16  17
ENDBRANCH  15  16
ENDBRANCH   6  15
ENDBRANCH   2   6
ENDBRANCH   1   3
BRANCH   1  23
ATOM     23  C   UNK A   0       5.560  -1.920  24.287  0.00  0.00    +0.238 C 
ATOM     24  N   UNK A   0       6.415  -2.140  23.229  0.00  0.00    -0.284 N 
ATOM     25  H   UNK A   0       6.664  -1.322  22.672  0.00  0.00    +0.155 HD
ATOM     26  O   UNK A   0       4.701  -2.734  24.638  0.00  0.00    -0.273 OA
BRANCH  24  27
ATOM     27  C   UNK A   0       6.604  -3.413  22.661  0.00  0.00    +0.033 A 
ATOM     28  C   UNK A   0       7.451  -4.355  23.258  0.00  0.00    +0.023 A 
ATOM     29  C   UNK A   0       7.617  -5.615  22.686  0.00  0.00    +0.002 A 
ATOM     30  C   UNK A   0       6.917  -5.944  21.529  0.00  0.00    +0.000 A 
ATOM     31  C   UNK A   0       6.080  -5.004  20.927  0.00  0.00    +0.002 A 
ATOM     32  C   UNK A   0       5.948  -3.726  21.473  0.00  0.00    +0.023 A 
ENDBRANCH  24  27
ENDBRANCH   1  23
BRANCH   1  33
ATOM     33  C   UNK A   0       6.364  -0.710  26.268  0.00  0.00    +0.035 C 
BRANCH  33  34
ATOM     34  C   UNK A   0       7.770  -1.284  26.193  0.00  0.00    +0.039 C 
BRANCH  34  35
ATOM     35  C   UNK A   0       7.728  -2.731  26.688  0.00  0.00    +0.196 C 
BRANCH  35  36
ATOM     36  N   UNK A   0       8.895  -3.484  26.233  0.00  0.00    -0.279 N 
ATOM     37  H   UNK A   0       9.663  -2.980  25.798  0.00  0.00    +0.258 HD
ATOM     38  C   UNK A   0       9.021  -4.812  26.365  0.00  0.00    +0.341 C 
ATOM     39  N   UNK A   0      10.120  -5.412  25.907  0.00  0.00    -0.292 N 
ATOM     40  H   UNK A   0      10.251  -6.413  25.995  0.00  0.00    +0.255 HD
ATOM     41  H   UNK A   0      10.870  -4.891  25.469  0.00  0.00    +0.255 HD
ATOM     42  N   UNK A   0       8.072  -5.561  26.936  0.00  0.00    -0.292 N 
ATOM     43  H   UNK A   0       8.169  -6.562  27.034  0.00  0.00    +0.255 HD
ATOM     44  H   UNK A   0       7.231  -5.149  27.307  0.00  0.00    +0.255 HD
ENDBRANCH  35  36
ENDBRANCH  34  35
ENDBRANCH  33  34
ENDBRANCH   1  33
TORSDOF 15
ENDMDL
MODEL 3
REMARK VINA RESULT:      -6.4      2.066      5.695
REMARK  Name = 
REMARK  16 active torsions:
REMARK  status: ('A' for Active; 'I' for Inactive)
REMARK    1  A    between atoms: CB_1  and  CA_2
REMARK    2  A    between atoms: CA_2  and  N_4
REMARK    3  A    between atoms: CA_2  and  C_38
REMARK    4  A    between atoms: N_4  and  C_5
REMARK    5  A    between atoms: C_5  and  C_7
REMARK    6  A    between atoms: C_5  and  C_15
REMARK    7  A    between atoms: C_7  and  C_8
REMARK    8  A    between atoms: C_8  and  C_9
REMARK    9  A    between atoms: N_17  and  C_18
REMARK   10  A    between atoms: C_18  and  C_20
REMARK   11  A    between atoms: C_18  and  C_29
REMARK   12  A    between atoms: C_20  and  C_21
REMARK   13  A    between atoms: C_21  and  C_22
REMARK   14  A    between atoms: C_22  and  N_23
REMARK   15  A    between atoms: N_31  and  C_32
REMARK   16  A    between atoms: C_38  and  O_39
REMARK                            x       y       z     vdW  Elec       q    Type
REMARK                         _______ _______ _______ _____ _____    ______ ____
ROOT
ATOM      1  C   UNK A   0       8.299  -4.766  24.096  0.00  0.00    +0.159 C 
ENDROOT
BRANCH   1   3
ATOM      2  C   UNK A   0       8.932  -2.443  23.476  0.00  0.00    +0.231 C 
ATOM      3  N   UNK A   0       7.958  -3.387  23.715  0.00  0.00    -0.303 N 
ATOM      4  H   UNK A   0       6.993  -3.144  23.548  0.00  0.00    +0.149 HD
ATOM      5  O   UNK A   0      10.124  -2.717  23.630  0.00  0.00    -0.274 OA
BRANCH   2   6
ATOM      6  C   UNK A   0       8.433  -1.042  23.025  0.00  0.00    +0.141 C 
BRANCH   6   7
ATOM      7  N   ALA A   1       6.945  -0.957  23.016  0.00  0.00    -0.294 NA
ATOM      8  H   ALA A   1       6.689  -0.444  22.169  0.00  0.00    +0.123 HD
BRANCH   7  10
ATOM      9  CB  ALA A   1       7.345   0.413  25.096  0.00  0.00    +0.036 C 
ATOM     10  CA  ALA A   1       6.332  -0.267  24.181  0.00  0.00    +0.161 C 
BRANCH  10  11
ATOM     11  C   ALA A   1       5.549  -1.329  24.983  0.00  0.00    +0.322 C 
ATOM     12  OXT ALA A   1       5.166  -2.395  24.514  0.00  0.00    -0.249 OA
BRANCH  11  13
ATOM     13  O   ALA A   1       5.465  -1.055  26.307  0.00  0.00    -0.480 OA
ATOM     14  H   ALA A   1       4.814  -1.635  26.758  0.00  0.00    +0.295 HD
ENDBRANCH  11  13
ENDBRANCH  10  11
ENDBRANCH   7  10
ENDBRANCH   6   7
BRANCH   6  15
ATOM     15  C   UNK A   0       9.148  -0.624  21.728  0.00  0.00    +0.033 C 
BRANCH  15  16
ATOM     16  C   UNK A   0      10.064   0.597  21.848  0.00  0.00    +0.037 C 
BRANCH  16  17
ATOM     17  C   UNK A   0       9.297   1.808  22.332  0.00  0.00    -0.047 A 
ATOM     18  C   UNK A   0       9.791   2.591  23.384  0.00  0.00    +0.003 A 
ATOM     19  C   UNK A   0       9.091   3.720  23.816  0.00  0.00    +0.000 A 
ATOM     20  C   UNK A   0       7.895   4.083  23.199  0.00  0.00    +0.000 A 
ATOM     21  C   UNK A   0       7.399   3.318  22.146  0.00  0.00    +0.000 A 
ATOM     22  C   UNK A   0       8.097   2.187  21.713  0.00  0.00    +0.003 A 
ENDBRANCH  16  17
ENDBRANCH  15  16
ENDBRANCH   6  15
ENDBRANCH   2   6
ENDBRANCH   1   3
BRANCH   1  23
ATOM     23  C   UNK A   0       7.717  -5.207  25.471  0.00  0.00    +0.238 C 
ATOM     24  N   UNK A   0       6.452  -4.750  25.770  0.00  0.00    -0.284 N 
ATOM     25  H   UNK A   0       6.184  -3.858  25.354  0.00  0.00    +0.155 HD
ATOM     26  O   UNK A   0       8.417  -5.825  26.278  0.00  0.00    -0.273 OA
BRANCH  24  27
ATOM     27  C   UNK A   0       5.726  -5.206  26.886  0.00  0.00    +0.033 A 
ATOM     28  C   UNK A   0       5.093  -6.455  26.877  0.00  0.00    +0.023 A 
ATOM     29  C   UNK A   0       4.388  -6.895  27.996  0.00  0.00    +0.002 A 
ATOM     30  C   UNK A   0       4.336  -6.098  29.135  0.00  0.00    +0.000 A 
ATOM     31  C   UNK A   0       4.958  -4.848  29.143  0.00  0.00    +0.002 A 
ATOM     32  C   UNK A   0       5.626  -4.387  28.007  0.00  0.00    +0.023 A 
ENDBRANCH  24  27
ENDBRANCH   1  23
BRANCH   1  33
ATOM     33  C   UNK A   0       7.748  -5.788  23.084  0.00  0.00    +0.035 C 
BRANCH  33  34
ATOM     34  C   UNK A   0       7.118  -5.235  21.816  0.00  0.00    +0.039 C 
BRANCH  34  35
ATOM     35  C   UNK A   0       5.661  -5.697  21.758  0.00  0.00    +0.196 C 
BRANCH  35  36
ATOM     36  N   UNK A   0       4.821  -4.929  22.675  0.00  0.00    -0.279 N 
ATOM     37  H   UNK A   0       4.973  -3.928  22.753  0.00  0.00    +0.258 HD
ATOM     38  C   UNK A   0       3.846  -5.469  23.419  0.00  0.00    +0.341 C 
ATOM     39  N   UNK A   0       3.140  -4.687  24.237  0.00  0.00    -0.292 N 
ATOM     40  H   UNK A   0       2.392  -5.060  24.809  0.00  0.00    +0.255 HD
ATOM     41  H   UNK A   0       3.314  -3.692  24.305  0.00  0.00    +0.255 HD
ATOM     42  N   UNK A   0       3.560  -6.775  23.375  0.00  0.00    -0.292 N 
ATOM     43  H   UNK A   0       2.825  -7.179  23.938  0.00  0.00    +0.255 HD
ATOM     44  H   UNK A   0       4.059  -7.400  22.763  0.00  0.00    +0.255 HD
ENDBRANCH  35  36
ENDBRANCH  34  35
ENDBRANCH  33  34
ENDBRANCH   1  33
TORSDOF 15
ENDMDL
MODEL 4
REMARK VINA RESULT:      -6.3      3.408      7.933
REMARK  Name = 
REMARK  16 active torsions:
REMARK  status: ('A' for Active; 'I' for Inactive)
REMARK    1  A    between atoms: CB_1  and  CA_2
REMARK    2  A    between atoms: CA_2  and  N_4
REMARK    3  A    between atoms: CA_2  and  C_38
REMARK    4  A    between atoms: N_4  and  C_5
REMARK    5  A    between atoms: C_5  and  C_7
REMARK    6  A    between atoms: C_5  and  C_15
REMARK    7  A    between atoms: C_7  and  C_8
REMARK    8  A    between atoms: C_8  and  C_9
REMARK    9  A    between atoms: N_17  and  C_18
REMARK   10  A    between atoms: C_18  and  C_20
REMARK   11  A    between atoms: C_18  and  C_29
REMARK   12  A    between atoms: C_20  and  C_21
REMARK   13  A    between atoms: C_21  and  C_22
REMARK   14  A    between atoms: C_22  and  N_23
REMARK   15  A    between atoms: N_31  and  C_32
REMARK   16  A    between atoms: C_38  and  O_39
REMARK                            x       y       z     vdW  Elec       q    Type
REMARK                         _______ _______ _______ _____ _____    ______ ____
ROOT
ATOM      1  C   UNK A   0       5.961   2.136  23.904  0.00  0.00    +0.159 C 
ENDROOT
BRANCH   1   3
ATOM      2  C   UNK A   0       8.176   3.076  23.278  0.00  0.00    +0.231 C 
ATOM      3  N   UNK A   0       7.328   2.569  24.237  0.00  0.00    -0.303 N 
ATOM      4  H   UNK A   0       7.625   2.567  25.201  0.00  0.00    +0.149 HD
ATOM      5  O   UNK A   0       7.830   3.131  22.097  0.00  0.00    -0.274 OA
BRANCH   2   6
ATOM      6  C   UNK A   0       9.570   3.549  23.779  0.00  0.00    +0.141 C 
BRANCH   6   7
ATOM      7  N   ALA A   1       9.814   4.987  23.471  0.00  0.00    -0.294 NA
ATOM      8  H   ALA A   1      10.331   5.010  22.589  0.00  0.00    +0.123 HD
BRANCH   7  10
ATOM      9  CB  ALA A   1      10.003   7.107  24.825  0.00  0.00    +0.036 C 
ATOM     10  CA  ALA A   1      10.593   5.741  24.487  0.00  0.00    +0.161 C 
BRANCH  10  11
ATOM     11  C   ALA A   1      12.020   5.925  23.927  0.00  0.00    +0.322 C 
ATOM     12  OXT ALA A   1      12.345   5.647  22.778  0.00  0.00    -0.249 OA
BRANCH  11  13
ATOM     13  O   ALA A   1      12.853   6.580  24.771  0.00  0.00    -0.480 OA
ATOM     14  H   ALA A   1      12.358   7.088  25.449  0.00  0.00    +0.295 HD
ENDBRANCH  11  13
ENDBRANCH  10  11
ENDBRANCH   7  10
ENDBRANCH   6   7
BRANCH   6  15
ATOM     15  C   UNK A   0      10.655   2.559  23.318  0.00  0.00    +0.033 C 
BRANCH  15  16
ATOM     16  C   UNK A   0      10.811   1.308  24.186  0.00  0.00    +0.037 C 
BRANCH  16  17
ATOM     17  C   UNK A   0      10.187   0.101  23.521  0.00  0.00    -0.047 A 
ATOM     18  C   UNK A   0       9.849   0.130  22.161  0.00  0.00    +0.003 A 
ATOM     19  C   UNK A   0       9.291  -0.992  21.545  0.00  0.00    +0.000 A 
ATOM     20  C   UNK A   0       9.071  -2.157  22.277  0.00  0.00    +0.000 A 
ATOM     21  C   UNK A   0       9.412  -2.203  23.627  0.00  0.00    +0.000 A 
ATOM     22  C   UNK A   0       9.969  -1.080  24.245  0.00  0.00    +0.003 A 
ENDBRANCH  16  17
ENDBRANCH  15  16
ENDBRANCH   6  15
ENDBRANCH   2   6
ENDBRANCH   1   3
BRANCH   1  23
ATOM     23  C   UNK A   0       5.549   0.781  24.553  0.00  0.00    +0.238 C 
ATOM     24  N   UNK A   0       6.192  -0.341  24.079  0.00  0.00    -0.284 N 
ATOM     25  H   UNK A   0       6.510  -0.304  23.109  0.00  0.00    +0.155 HD
ATOM     26  O   UNK A   0       4.610   0.731  25.352  0.00  0.00    -0.273 OA
BRANCH  24  27
ATOM     27  C   UNK A   0       6.058  -1.603  24.685  0.00  0.00    +0.033 A 
ATOM     28  C   UNK A   0       6.591  -1.857  25.955  0.00  0.00    +0.023 A 
ATOM     29  C   UNK A   0       6.439  -3.110  26.546  0.00  0.00    +0.002 A 
ATOM     30  C   UNK A   0       5.732  -4.105  25.878  0.00  0.00    +0.000 A 
ATOM     31  C   UNK A   0       5.208  -3.858  24.608  0.00  0.00    +0.002 A 
ATOM     32  C   UNK A   0       5.399  -2.617  23.996  0.00  0.00    +0.023 A 
ENDBRANCH  24  27
ENDBRANCH   1  23
BRANCH   1  33
ATOM     33  C   UNK A   0       4.909   3.148  24.393  0.00  0.00    +0.035 C 
BRANCH  33  34
ATOM     34  C   UNK A   0       3.992   3.755  23.342  0.00  0.00    +0.039 C 
BRANCH  34  35
ATOM     35  C   UNK A   0       4.362   5.229  23.172  0.00  0.00    +0.196 C 
BRANCH  35  36
ATOM     36  N   UNK A   0       5.434   5.401  22.193  0.00  0.00    -0.279 N 
ATOM     37  H   UNK A   0       5.314   5.008  21.264  0.00  0.00    +0.258 HD
ATOM     38  C   UNK A   0       6.574   6.060  22.447  0.00  0.00    +0.341 C 
ATOM     39  N   UNK A   0       7.499   6.153  21.491  0.00  0.00    -0.292 N 
ATOM     40  H   UNK A   0       8.370   6.648  21.646  0.00  0.00    +0.255 HD
ATOM     41  H   UNK A   0       7.362   5.747  20.574  0.00  0.00    +0.255 HD
ATOM     42  N   UNK A   0       6.818   6.623  23.634  0.00  0.00    -0.292 N 
ATOM     43  H   UNK A   0       7.678   7.119  23.823  0.00  0.00    +0.255 HD
ATOM     44  H   UNK A   0       6.142   6.588  24.380  0.00  0.00    +0.255 HD
ENDBRANCH  35  36
ENDBRANCH  34  35
ENDBRANCH  33  34
ENDBRANCH   1  33
TORSDOF 15
ENDMDL
MODEL 5
REMARK VINA RESULT:      -6.3      1.722      2.348
REMARK  Name = 
REMARK  16 active torsions:
REMARK  status: ('A' for Active; 'I' for Inactive)
REMARK    1  A    between atoms: CB_1  and  CA_2
REMARK    2  A    between atoms: CA_2  and  N_4
REMARK    3  A    between atoms: CA_2  and  C_38
REMARK    4  A    between atoms: N_4  and  C_5
REMARK    5  A    between atoms: C_5  and  C_7
REMARK    6  A    between atoms: C_5  and  C_15
REMARK    7  A    between atoms: C_7  and  C_8
REMARK    8  A    between atoms: C_8  and  C_9
REMARK    9  A    between atoms: N_17  and  C_18
REMARK   10  A    between atoms: C_18  and  C_20
REMARK   11  A    between atoms: C_18  and  C_29
REMARK   12  A    between atoms: C_20  and  C_21
REMARK   13  A    between atoms: C_21  and  C_22
REMARK   14  A    between atoms: C_22  and  N_23
REMARK   15  A    between atoms: N_31  and  C_32
REMARK   16  A    between atoms: C_38  and  O_39
REMARK                            x       y       z     vdW  Elec       q    Type
REMARK                         _______ _______ _______ _____ _____    ______ ____
ROOT
ATOM      1  C   UNK A   0       6.177  -1.088  26.234  0.00  0.00    +0.159 C 
ENDROOT
BRANCH   1   3
ATOM      2  C   UNK A   0       7.717  -2.590  24.988  0.00  0.00    +0.231 C 
ATOM      3  N   UNK A   0       6.580  -1.814  25.019  0.00  0.00    -0.303 N 
ATOM      4  H   UNK A   0       5.971  -1.808  24.215  0.00  0.00    +0.149 HD
ATOM      5  O   UNK A   0       8.463  -2.653  25.967  0.00  0.00    -0.274 OA
BRANCH   2   6
ATOM      6  C   UNK A   0       7.993  -3.348  23.659  0.00  0.00    +0.141 C 
BRANCH   6   7
ATOM      7  N   ALA A   1       7.927  -4.826  23.837  0.00  0.00    -0.294 NA
ATOM      8  H   ALA A   1       8.841  -5.192  23.560  0.00  0.00    +0.123 HD
BRANCH   7  10
ATOM      9  CB  ALA A   1       7.206  -5.613  21.551  0.00  0.00    +0.036 C 
ATOM     10  CA  ALA A   1       6.886  -5.526  23.040  0.00  0.00    +0.161 C 
BRANCH  10  11
ATOM     11  C   ALA A   1       5.563  -4.753  23.234  0.00  0.00    +0.322 C 
ATOM     12  OXT ALA A   1       5.039  -4.558  24.325  0.00  0.00    -0.249 OA
BRANCH  11  13
ATOM     13  O   ALA A   1       5.111  -4.159  22.104  0.00  0.00    -0.480 OA
ATOM     14  H   ALA A   1       5.005  -4.804  21.372  0.00  0.00    +0.295 HD
ENDBRANCH  11  13
ENDBRANCH  10  11
ENDBRANCH   7  10
ENDBRANCH   6   7
BRANCH   6  15
ATOM     15  C   UNK A   0       9.269  -2.797  22.997  0.00  0.00    +0.033 C 
BRANCH  15  16
ATOM     16  C   UNK A   0       9.052  -1.640  22.019  0.00  0.00    +0.037 C 
BRANCH  16  17
ATOM     17  C   UNK A   0       9.580  -0.340  22.585  0.00  0.00    -0.047 A 
ATOM     18  C   UNK A   0      10.199  -0.309  23.842  0.00  0.00    +0.003 A 
ATOM     19  C   UNK A   0      10.703   0.889  24.354  0.00  0.00    +0.000 A 
ATOM     20  C   UNK A   0      10.601   2.066  23.615  0.00  0.00    +0.000 A 
ATOM     21  C   UNK A   0       9.997   2.046  22.360  0.00  0.00    +0.000 A 
ATOM     22  C   UNK A   0       9.491   0.849  21.847  0.00  0.00    +0.003 A 
ENDBRANCH  16  17
ENDBRANCH  15  16
ENDBRANCH   6  15
ENDBRANCH   2   6
ENDBRANCH   1   3
BRANCH   1  23
ATOM     23  C   UNK A   0       6.131   0.460  26.062  0.00  0.00    +0.238 C 
ATOM     24  N   UNK A   0       7.208   1.032  25.421  0.00  0.00    -0.284 N 
ATOM     25  H   UNK A   0       8.100   0.545  25.513  0.00  0.00    +0.155 HD
ATOM     26  O   UNK A   0       5.234   1.122  26.590  0.00  0.00    -0.273 OA
BRANCH  24  27
ATOM     27  C   UNK A   0       7.228   2.384  25.035  0.00  0.00    +0.033 A 
ATOM     28  C   UNK A   0       7.812   3.363  25.849  0.00  0.00    +0.023 A 
ATOM     29  C   UNK A   0       7.832   4.697  25.444  0.00  0.00    +0.002 A 
ATOM     30  C   UNK A   0       7.289   5.051  24.213  0.00  0.00    +0.000 A 
ATOM     31  C   UNK A   0       6.697   4.079  23.403  0.00  0.00    +0.002 A 
ATOM     32  C   UNK A   0       6.637   2.750  23.828  0.00  0.00    +0.023 A 
ENDBRANCH  24  27
ENDBRANCH   1  23
BRANCH   1  33
ATOM     33  C   UNK A   0       4.758  -1.479  26.686  0.00  0.00    +0.035 C 
BRANCH  33  34
ATOM     34  C   UNK A   0       4.642  -2.317  27.950  0.00  0.00    +0.039 C 
BRANCH  34  35
ATOM     35  C   UNK A   0       4.780  -3.791  27.567  0.00  0.00    +0.196 C 
BRANCH  35  36
ATOM     36  N   UNK A   0       6.182  -4.197  27.504  0.00  0.00    -0.279 N 
ATOM     37  H   UNK A   0       6.896  -3.532  27.788  0.00  0.00    +0.258 HD
ATOM     38  C   UNK A   0       6.588  -5.409  27.101  0.00  0.00    +0.341 C 
ATOM     39  N   UNK A   0       7.893  -5.682  27.066  0.00  0.00    -0.292 N 
ATOM     40  H   UNK A   0       8.235  -6.589  26.772  0.00  0.00    +0.255 HD
ATOM     41  H   UNK A   0       8.588  -5.001  27.346  0.00  0.00    +0.255 HD
ATOM     42  N   UNK A   0       5.724  -6.357  26.722  0.00  0.00    -0.292 N 
ATOM     43  H   UNK A   0       6.033  -7.270  26.417  0.00  0.00    +0.255 HD
ATOM     44  H   UNK A   0       4.730  -6.199  26.744  0.00  0.00    +0.255 HD
ENDBRANCH  35  36
ENDBRANCH  34  35
ENDBRANCH  33  34
ENDBRANCH   1  33
TORSDOF 15
ENDMDL
MODEL 6
REMARK VINA RESULT:      -6.2      2.434      6.663
REMARK  Name = 
REMARK  16 active torsions:
REMARK  status: ('A' for Active; 'I' for Inactive)
REMARK    1  A    between atoms: CB_1  and  CA_2
REMARK    2  A    between atoms: CA_2  and  N_4
REMARK    3  A    between atoms: CA_2  and  C_38
REMARK    4  A    between atoms: N_4  and  C_5
REMARK    5  A    between atoms: C_5  and  C_7
REMARK    6  A    between atoms: C_5  and  C_15
REMARK    7  A    between atoms: C_7  and  C_8
REMARK    8  A    between atoms: C_8  and  C_9
REMARK    9  A    between atoms: N_17  and  C_18
REMARK   10  A    between atoms: C_18  and  C_20
REMARK   11  A    between atoms: C_18  and  C_29
REMARK   12  A    between atoms: C_20  and  C_21
REMARK   13  A    between atoms: C_21  and  C_22
REMARK   14  A    between atoms: C_22  and  N_23
REMARK   15  A    between atoms: N_31  and  C_32
REMARK   16  A    between atoms: C_38  and  O_39
REMARK                            x       y       z     vdW  Elec       q    Type
REMARK                         _______ _______ _______ _____ _____    ______ ____
ROOT
ATOM      1  C   UNK A   0       6.104  -0.421  24.704  0.00  0.00    +0.159 C 
ENDROOT
BRANCH   1   3
ATOM      2  C   UNK A   0       5.479   1.897  24.056  0.00  0.00    +0.231 C 
ATOM      3  N   UNK A   0       5.945   0.649  23.706  0.00  0.00    -0.303 N 
ATOM      4  H   UNK A   0       6.257   0.493  22.760  0.00  0.00    +0.149 HD
ATOM      5  O   UNK A   0       5.127   2.135  25.213  0.00  0.00    -0.274 OA
BRANCH   2   6
ATOM      6  C   UNK A   0       5.415   2.949  22.914  0.00  0.00    +0.141 C 
BRANCH   6   7
ATOM      7  N   ALA A   1       4.077   2.979  22.258  0.00  0.00    -0.294 NA
ATOM      8  H   ALA A   1       4.248   3.090  21.255  0.00  0.00    +0.123 HD
BRANCH   7  10
ATOM      9  CB  ALA A   1       3.808   5.048  23.676  0.00  0.00    +0.036 C 
ATOM     10  CA  ALA A   1       3.167   4.068  22.697  0.00  0.00    +0.161 C 
BRANCH  10  11
ATOM     11  C   ALA A   1       1.945   3.403  23.366  0.00  0.00    +0.322 C 
ATOM     12  OXT ALA A   1       0.845   3.301  22.834  0.00  0.00    -0.249 OA
BRANCH  11  13
ATOM     13  O   ALA A   1       2.236   2.787  24.537  0.00  0.00    -0.480 OA
ATOM     14  H   ALA A   1       3.192   2.578  24.610  0.00  0.00    +0.295 HD
ENDBRANCH  11  13
ENDBRANCH  10  11
ENDBRANCH   7  10
ENDBRANCH   6   7
BRANCH   6  15
ATOM     15  C   UNK A   0       6.629   2.784  21.982  0.00  0.00    +0.033 C 
BRANCH  15  16
ATOM     16  C   UNK A   0       7.943   3.367  22.507  0.00  0.00    +0.037 C 
BRANCH  16  17
ATOM     17  C   UNK A   0       8.925   2.270  22.856  0.00  0.00    -0.047 A 
ATOM     18  C   UNK A   0       9.643   2.311  24.058  0.00  0.00    +0.003 A 
ATOM     19  C   UNK A   0      10.535   1.287  24.387  0.00  0.00    +0.000 A 
ATOM     20  C   UNK A   0      10.715   0.209  23.521  0.00  0.00    +0.000 A 
ATOM     21  C   UNK A   0       9.999   0.152  22.327  0.00  0.00    +0.000 A 
ATOM     22  C   UNK A   0       9.107   1.176  21.997  0.00  0.00    +0.003 A 
ENDBRANCH  16  17
ENDBRANCH  15  16
ENDBRANCH   6  15
ENDBRANCH   2   6
ENDBRANCH   1   3
BRANCH   1  23
ATOM     23  C   UNK A   0       5.904  -1.856  24.133  0.00  0.00    +0.238 C 
ATOM     24  N   UNK A   0       6.733  -2.217  23.093  0.00  0.00    -0.284 N 
ATOM     25  H   UNK A   0       7.062  -1.459  22.494  0.00  0.00    +0.155 HD
ATOM     26  O   UNK A   0       4.968  -2.560  24.522  0.00  0.00    -0.273 OA
BRANCH  24  27
ATOM     27  C   UNK A   0       6.795  -3.531  22.596  0.00  0.00    +0.033 A 
ATOM     28  C   UNK A   0       7.607  -4.498  23.201  0.00  0.00    +0.023 A 
ATOM     29  C   UNK A   0       7.646  -5.799  22.701  0.00  0.00    +0.002 A 
ATOM     30  C   UNK A   0       6.854  -6.141  21.609  0.00  0.00    +0.000 A 
ATOM     31  C   UNK A   0       6.051  -5.177  20.997  0.00  0.00    +0.002 A 
ATOM     32  C   UNK A   0       6.045  -3.863  21.470  0.00  0.00    +0.023 A 
ENDBRANCH  24  27
ENDBRANCH   1  23
BRANCH   1  33
ATOM     33  C   UNK A   0       7.519  -0.428  25.310  0.00  0.00    +0.035 C 
BRANCH  33  34
ATOM     34  C   UNK A   0       7.716  -1.211  26.598  0.00  0.00    +0.039 C 
BRANCH  34  35
ATOM     35  C   UNK A   0       8.547  -2.456  26.284  0.00  0.00    +0.196 C 
BRANCH  35  36
ATOM     36  N   UNK A   0       7.869  -3.675  26.722  0.00  0.00    -0.279 N 
ATOM     37  H   UNK A   0       6.911  -3.608  27.054  0.00  0.00    +0.258 HD
ATOM     38  C   UNK A   0       8.437  -4.889  26.704  0.00  0.00    +0.341 C 
ATOM     39  N   UNK A   0       7.740  -5.941  27.136  0.00  0.00    -0.292 N 
ATOM     40  H   UNK A   0       8.135  -6.874  27.131  0.00  0.00    +0.255 HD
ATOM     41  H   UNK A   0       6.788  -5.850  27.470  0.00  0.00    +0.255 HD
ATOM     42  N   UNK A   0       9.687  -5.081  26.272  0.00  0.00    -0.292 N 
ATOM     43  H   UNK A   0      10.113  -5.998  26.261  0.00  0.00    +0.255 HD
ATOM     44  H   UNK A   0      10.245  -4.318  25.926  0.00  0.00    +0.255 HD
ENDBRANCH  35  36
ENDBRANCH  34  35
ENDBRANCH  33  34
ENDBRANCH   1  33
TORSDOF 15
ENDMDL
MODEL 7
REMARK VINA RESULT:      -6.2      2.436      7.711
REMARK  Name = 
REMARK  16 active torsions:
REMARK  status: ('A' for Active; 'I' for Inactive)
REMARK    1  A    between atoms: CB_1  and  CA_2
REMARK    2  A    between atoms: CA_2  and  N_4
REMARK    3  A    between atoms: CA_2  and  C_38
REMARK    4  A    between atoms: N_4  and  C_5
REMARK    5  A    between atoms: C_5  and  C_7
REMARK    6  A    between atoms: C_5  and  C_15
REMARK    7  A    between atoms: C_7  and  C_8
REMARK    8  A    between atoms: C_8  and  C_9
REMARK    9  A    between atoms: N_17  and  C_18
REMARK   10  A    between atoms: C_18  and  C_20
REMARK   11  A    between atoms: C_18  and  C_29
REMARK   12  A    between atoms: C_20  and  C_21
REMARK   13  A    between atoms: C_21  and  C_22
REMARK   14  A    between atoms: C_22  and  N_23
REMARK   15  A    between atoms: N_31  and  C_32
REMARK   16  A    between atoms: C_38  and  O_39
REMARK                            x       y       z     vdW  Elec       q    Type
REMARK                         _______ _______ _______ _____ _____    ______ ____
ROOT
ATOM      1  C   UNK A   0       9.835  -0.735  24.453  0.00  0.00    +0.159 C 
ENDROOT
BRANCH   1   3
ATOM      2  C   UNK A   0       8.215  -0.343  26.298  0.00  0.00    +0.231 C 
ATOM      3  N   UNK A   0       8.679  -0.037  25.038  0.00  0.00    -0.303 N 
ATOM      4  H   UNK A   0       8.265   0.736  24.540  0.00  0.00    +0.149 HD
ATOM      5  O   UNK A   0       8.725  -1.254  26.953  0.00  0.00    -0.274 OA
BRANCH   2   6
ATOM      6  C   UNK A   0       7.024   0.512  26.816  0.00  0.00    +0.141 C 
BRANCH   6   7
ATOM      7  N   ALA A   1       7.467   1.558  27.781  0.00  0.00    -0.294 NA
ATOM      8  H   ALA A   1       7.089   1.290  28.693  0.00  0.00    +0.123 HD
BRANCH   7  10
ATOM      9  CB  ALA A   1       5.564   3.212  27.851  0.00  0.00    +0.036 C 
ATOM     10  CA  ALA A   1       7.020   2.943  27.481  0.00  0.00    +0.161 C 
BRANCH  10  11
ATOM     11  C   ALA A   1       7.212   3.170  25.966  0.00  0.00    +0.322 C 
ATOM     12  OXT ALA A   1       6.320   3.539  25.211  0.00  0.00    -0.249 OA
BRANCH  11  13
ATOM     13  O   ALA A   1       8.503   3.086  25.565  0.00  0.00    -0.480 OA
ATOM     14  H   ALA A   1       9.051   3.804  25.948  0.00  0.00    +0.295 HD
ENDBRANCH  11  13
ENDBRANCH  10  11
ENDBRANCH   7  10
ENDBRANCH   6   7
BRANCH   6  15
ATOM     15  C   UNK A   0       5.884  -0.410  27.284  0.00  0.00    +0.033 C 
BRANCH  15  16
ATOM     16  C   UNK A   0       4.933  -0.886  26.184  0.00  0.00    +0.037 C 
BRANCH  16  17
ATOM     17  C   UNK A   0       5.029  -2.384  25.991  0.00  0.00    -0.047 A 
ATOM     18  C   UNK A   0       5.801  -3.167  26.859  0.00  0.00    +0.003 A 
ATOM     19  C   UNK A   0       5.872  -4.552  26.690  0.00  0.00    +0.000 A 
ATOM     20  C   UNK A   0       5.168  -5.170  25.658  0.00  0.00    +0.000 A 
ATOM     21  C   UNK A   0       4.388  -4.403  24.795  0.00  0.00    +0.000 A 
ATOM     22  C   UNK A   0       4.317  -3.017  24.962  0.00  0.00    +0.003 A 
ENDBRANCH  16  17
ENDBRANCH  15  16
ENDBRANCH   6  15
ENDBRANCH   2   6
ENDBRANCH   1   3
BRANCH   1  23
ATOM     23  C   UNK A   0       9.470  -2.054  23.710  0.00  0.00    +0.238 C 
ATOM     24  N   UNK A   0       8.200  -2.543  23.928  0.00  0.00    -0.284 N 
ATOM     25  H   UNK A   0       7.779  -2.320  24.830  0.00  0.00    +0.155 HD
ATOM     26  O   UNK A   0      10.327  -2.671  23.072  0.00  0.00    -0.273 OA
BRANCH  24  27
ATOM     27  C   UNK A   0       7.666  -3.617  23.193  0.00  0.00    +0.033 A 
ATOM     28  C   UNK A   0       6.780  -3.400  22.131  0.00  0.00    +0.023 A 
ATOM     29  C   UNK A   0       6.270  -4.477  21.407  0.00  0.00    +0.002 A 
ATOM     30  C   UNK A   0       6.666  -5.772  21.728  0.00  0.00    +0.000 A 
ATOM     31  C   UNK A   0       7.542  -5.992  22.792  0.00  0.00    +0.002 A 
ATOM     32  C   UNK A   0       8.018  -4.917  23.547  0.00  0.00    +0.023 A 
ENDBRANCH  24  27
ENDBRANCH   1  23
BRANCH   1  33
ATOM     33  C   UNK A   0      10.548   0.131  23.398  0.00  0.00    +0.035 C 
BRANCH  33  34
ATOM     34  C   UNK A   0       9.811   0.374  22.090  0.00  0.00    +0.039 C 
BRANCH  34  35
ATOM     35  C   UNK A   0       9.572   1.877  21.943  0.00  0.00    +0.196 C 
BRANCH  35  36
ATOM     36  N   UNK A   0       8.152   2.178  21.772  0.00  0.00    -0.279 N 
ATOM     37  H   UNK A   0       7.552   1.475  21.349  0.00  0.00    +0.258 HD
ATOM     38  C   UNK A   0       7.585   3.332  22.152  0.00  0.00    +0.341 C 
ATOM     39  N   UNK A   0       6.281   3.517  21.942  0.00  0.00    -0.292 N 
ATOM     40  H   UNK A   0       5.818   4.374  22.221  0.00  0.00    +0.255 HD
ATOM     41  H   UNK A   0       5.703   2.807  21.511  0.00  0.00    +0.255 HD
ATOM     42  N   UNK A   0       8.288   4.311  22.730  0.00  0.00    -0.292 N 
ATOM     43  H   UNK A   0       7.858   5.180  23.015  0.00  0.00    +0.255 HD
ATOM     44  H   UNK A   0       9.272   4.209  22.919  0.00  0.00    +0.255 HD
ENDBRANCH  35  36
ENDBRANCH  34  35
ENDBRANCH  33  34
ENDBRANCH   1  33
TORSDOF 15
ENDMDL
MODEL 8
REMARK VINA RESULT:      -6.1      1.522      2.171
REMARK  Name = 
REMARK  16 active torsions:
REMARK  status: ('A' for Active; 'I' for Inactive)
REMARK    1  A    between atoms: CB_1  and  CA_2
REMARK    2  A    between atoms: CA_2  and  N_4
REMARK    3  A    between atoms: CA_2  and  C_38
REMARK    4  A    between atoms: N_4  and  C_5
REMARK    5  A    between atoms: C_5  and  C_7
REMARK    6  A    between atoms: C_5  and  C_15
REMARK    7  A    between atoms: C_7  and  C_8
REMARK    8  A    between atoms: C_8  and  C_9
REMARK    9  A    between atoms: N_17  and  C_18
REMARK   10  A    between atoms: C_18  and  C_20
REMARK   11  A    between atoms: C_18  and  C_29
REMARK   12  A    between atoms: C_20  and  C_21
REMARK   13  A    between atoms: C_21  and  C_22
REMARK   14  A    between atoms: C_22  and  N_23
REMARK   15  A    between atoms: N_31  and  C_32
REMARK   16  A    between atoms: C_38  and  O_39
REMARK                            x       y       z     vdW  Elec       q    Type
REMARK                         _______ _______ _______ _____ _____    ______ ____
ROOT
ATOM      1  C   UNK A   0       5.907  -1.023  26.053  0.00  0.00    +0.159 C 
ENDROOT
BRANCH   1   3
ATOM      2  C   UNK A   0       8.084  -2.068  25.461  0.00  0.00    +0.231 C 
ATOM      3  N   UNK A   0       6.725  -1.962  25.268  0.00  0.00    -0.303 N 
ATOM      4  H   UNK A   0       6.272  -2.597  24.629  0.00  0.00    +0.149 HD
ATOM      5  O   UNK A   0       8.665  -1.335  26.264  0.00  0.00    -0.274 OA
BRANCH   2   6
ATOM      6  C   UNK A   0       8.817  -3.139  24.605  0.00  0.00    +0.141 C 
BRANCH   6   7
ATOM      7  N   ALA A   1       9.045  -4.400  25.367  0.00  0.00    -0.294 NA
ATOM      8  H   ALA A   1       9.977  -4.732  25.105  0.00  0.00    +0.123 HD
BRANCH   7  10
ATOM      9  CB  ALA A   1       7.246  -5.297  23.844  0.00  0.00    +0.036 C 
ATOM     10  CA  ALA A   1       8.072  -5.493  25.112  0.00  0.00    +0.161 C 
BRANCH  10  11
ATOM     11  C   ALA A   1       7.129  -5.563  26.332  0.00  0.00    +0.322 C 
ATOM     12  OXT ALA A   1       6.139  -6.283  26.390  0.00  0.00    -0.249 OA
BRANCH  11  13
ATOM     13  O   ALA A   1       7.583  -4.878  27.408  0.00  0.00    -0.480 OA
ATOM     14  H   ALA A   1       7.130  -4.014  27.508  0.00  0.00    +0.295 HD
ENDBRANCH  11  13
ENDBRANCH  10  11
ENDBRANCH   7  10
ENDBRANCH   6   7
BRANCH   6  15
ATOM     15  C   UNK A   0      10.052  -2.516  23.931  0.00  0.00    +0.033 C 
BRANCH  15  16
ATOM     16  C   UNK A   0       9.777  -1.761  22.629  0.00  0.00    +0.037 C 
BRANCH  16  17
ATOM     17  C   UNK A   0      10.031  -0.279  22.792  0.00  0.00    -0.047 A 
ATOM     18  C   UNK A   0       9.727   0.615  21.757  0.00  0.00    +0.003 A 
ATOM     19  C   UNK A   0       9.944   1.986  21.919  0.00  0.00    +0.000 A 
ATOM     20  C   UNK A   0      10.461   2.478  23.116  0.00  0.00    +0.000 A 
ATOM     21  C   UNK A   0      10.757   1.600  24.156  0.00  0.00    +0.000 A 
ATOM     22  C   UNK A   0      10.541   0.229  23.996  0.00  0.00    +0.003 A 
ENDBRANCH  16  17
ENDBRANCH  15  16
ENDBRANCH   6  15
ENDBRANCH   2   6
ENDBRANCH   1   3
BRANCH   1  23
ATOM     23  C   UNK A   0       5.734   0.376  25.390  0.00  0.00    +0.238 C 
ATOM     24  N   UNK A   0       6.888   0.984  24.946  0.00  0.00    -0.284 N 
ATOM     25  H   UNK A   0       7.745   0.748  25.447  0.00  0.00    +0.155 HD
ATOM     26  O   UNK A   0       4.635   0.937  25.390  0.00  0.00    -0.273 OA
BRANCH  24  27
ATOM     27  C   UNK A   0       6.874   2.158  24.171  0.00  0.00    +0.033 A 
ATOM     28  C   UNK A   0       6.456   2.140  22.835  0.00  0.00    +0.023 A 
ATOM     29  C   UNK A   0       6.438   3.316  22.086  0.00  0.00    +0.002 A 
ATOM     30  C   UNK A   0       6.815   4.516  22.680  0.00  0.00    +0.000 A 
ATOM     31  C   UNK A   0       7.241   4.536  24.009  0.00  0.00    +0.002 A 
ATOM     32  C   UNK A   0       7.302   3.352  24.746  0.00  0.00    +0.023 A 
ENDBRANCH  24  27
ENDBRANCH   1  23
BRANCH   1  33
ATOM     33  C   UNK A   0       4.473  -1.549  26.252  0.00  0.00    +0.035 C 
BRANCH  33  34
ATOM     34  C   UNK A   0       4.091  -2.817  25.504  0.00  0.00    +0.039 C 
BRANCH  34  35
ATOM     35  C   UNK A   0       3.557  -3.832  26.516  0.00  0.00    +0.196 C 
BRANCH  35  36
ATOM     36  N   UNK A   0       4.392  -3.879  27.716  0.00  0.00    -0.279 N 
ATOM     37  H   UNK A   0       5.024  -3.106  27.901  0.00  0.00    +0.258 HD
ATOM     38  C   UNK A   0       4.368  -4.887  28.599  0.00  0.00    +0.341 C 
ATOM     39  N   UNK A   0       5.177  -4.846  29.658  0.00  0.00    -0.292 N 
ATOM     40  H   UNK A   0       5.181  -5.587  30.349  0.00  0.00    +0.255 HD
ATOM     41  H   UNK A   0       5.805  -4.068  29.819  0.00  0.00    +0.255 HD
ATOM     42  N   UNK A   0       3.560  -5.942  28.449  0.00  0.00    -0.292 N 
ATOM     43  H   UNK A   0       3.545  -6.701  29.116  0.00  0.00    +0.255 HD
ATOM     44  H   UNK A   0       2.924  -6.009  27.672  0.00  0.00    +0.255 HD
ENDBRANCH  35  36
ENDBRANCH  34  35
ENDBRANCH  33  34
ENDBRANCH   1  33
TORSDOF 15
ENDMDL
MODEL 9
REMARK VINA RESULT:      -5.9      2.711      5.840
REMARK  Name = 
REMARK  16 active torsions:
REMARK  status: ('A' for Active; 'I' for Inactive)
REMARK    1  A    between atoms: CB_1  and  CA_2
REMARK    2  A    between atoms: CA_2  and  N_4
REMARK    3  A    between atoms: CA_2  and  C_38
REMARK    4  A    between atoms: N_4  and  C_5
REMARK    5  A    between atoms: C_5  and  C_7
REMARK    6  A    between atoms: C_5  and  C_15
REMARK    7  A    between atoms: C_7  and  C_8
REMARK    8  A    between atoms: C_8  and  C_9
REMARK    9  A    between atoms: N_17  and  C_18
REMARK   10  A    between atoms: C_18  and  C_20
REMARK   11  A    between atoms: C_18  and  C_29
REMARK   12  A    between atoms: C_20  and  C_21
REMARK   13  A    between atoms: C_21  and  C_22
REMARK   14  A    between atoms: C_22  and  N_23
REMARK   15  A    between atoms: N_31  and  C_32
REMARK   16  A    between atoms: C_38  and  O_39
REMARK                            x       y       z     vdW  Elec       q    Type
REMARK                         _______ _______ _______ _____ _____    ______ ____
ROOT
ATOM      1  C   UNK A   0       8.728  -0.026  23.507  0.00  0.00    +0.159 C 
ENDROOT
BRANCH   1   3
ATOM      2  C   UNK A   0       6.393   0.182  24.334  0.00  0.00    +0.231 C 
ATOM      3  N   UNK A   0       7.646  -0.377  24.441  0.00  0.00    -0.303 N 
ATOM      4  H   UNK A   0       7.801  -1.100  25.127  0.00  0.00    +0.149 HD
ATOM      5  O   UNK A   0       6.157   1.040  23.481  0.00  0.00    -0.274 OA
BRANCH   2   6
ATOM      6  C   UNK A   0       5.329  -0.321  25.350  0.00  0.00    +0.141 C 
BRANCH   6   7
ATOM      7  N   ALA A   1       5.244   0.560  26.550  0.00  0.00    -0.294 NA
ATOM      8  H   ALA A   1       5.763   1.411  26.321  0.00  0.00    +0.123 HD
BRANCH   7  10
ATOM      9  CB  ALA A   1       4.825   0.011  28.976  0.00  0.00    +0.036 C 
ATOM     10  CA  ALA A   1       5.804  -0.004  27.805  0.00  0.00    +0.161 C 
BRANCH  10  11
ATOM     11  C   ALA A   1       7.050   0.832  28.168  0.00  0.00    +0.322 C 
ATOM     12  OXT ALA A   1       7.286   1.251  29.296  0.00  0.00    -0.249 OA
BRANCH  11  13
ATOM     13  O   ALA A   1       7.953   0.924  27.163  0.00  0.00    -0.480 OA
ATOM     14  H   ALA A   1       8.070   1.851  26.863  0.00  0.00    +0.295 HD
ENDBRANCH  11  13
ENDBRANCH  10  11
ENDBRANCH   7  10
ENDBRANCH   6   7
BRANCH   6  15
ATOM     15  C   UNK A   0       5.531  -1.823  25.619  0.00  0.00    +0.033 C 
BRANCH  15  16
ATOM     16  C   UNK A   0       4.480  -2.747  25.000  0.00  0.00    +0.037 C 
BRANCH  16  17
ATOM     17  C   UNK A   0       5.081  -3.600  23.904  0.00  0.00    -0.047 A 
ATOM     18  C   UNK A   0       5.127  -4.995  24.031  0.00  0.00    +0.003 A 
ATOM     19  C   UNK A   0       5.664  -5.782  23.009  0.00  0.00    +0.000 A 
ATOM     20  C   UNK A   0       6.156  -5.186  21.849  0.00  0.00    +0.000 A 
ATOM     21  C   UNK A   0       6.107  -3.800  21.708  0.00  0.00    +0.000 A 
ATOM     22  C   UNK A   0       5.570  -3.012  22.729  0.00  0.00    +0.003 A 
ENDBRANCH  16  17
ENDBRANCH  15  16
ENDBRANCH   6  15
ENDBRANCH   2   6
ENDBRANCH   1   3
BRANCH   1  23
ATOM     23  C   UNK A   0       9.580   1.199  23.954  0.00  0.00    +0.238 C 
ATOM     24  N   UNK A   0       9.618   2.264  23.080  0.00  0.00    -0.284 N 
ATOM     25  H   UNK A   0       9.507   2.040  22.091  0.00  0.00    +0.155 HD
ATOM     26  O   UNK A   0      10.270   1.142  24.975  0.00  0.00    -0.273 OA
BRANCH  24  27
ATOM     27  C   UNK A   0      10.192   3.502  23.421  0.00  0.00    +0.033 A 
ATOM     28  C   UNK A   0      11.550   3.758  23.193  0.00  0.00    +0.023 A 
ATOM     29  C   UNK A   0      12.099   4.996  23.527  0.00  0.00    +0.002 A 
ATOM     30  C   UNK A   0      11.285   5.987  24.066  0.00  0.00    +0.000 A 
ATOM     31  C   UNK A   0       9.934   5.731  24.303  0.00  0.00    +0.002 A 
ATOM     32  C   UNK A   0       9.393   4.477  24.011  0.00  0.00    +0.023 A 
ENDBRANCH  24  27
ENDBRANCH   1  23
BRANCH   1  33
ATOM     33  C   UNK A   0       9.739  -1.177  23.350  0.00  0.00    +0.035 C 
BRANCH  33  34
ATOM     34  C   UNK A   0       9.790  -2.210  24.465  0.00  0.00    +0.039 C 
BRANCH  34  35
ATOM     35  C   UNK A   0       9.053  -3.465  23.994  0.00  0.00    +0.196 C 
BRANCH  35  36
ATOM     36  N   UNK A   0       8.365  -4.127  25.101  0.00  0.00    -0.279 N 
ATOM     37  H   UNK A   0       7.436  -3.809  25.358  0.00  0.00    +0.258 HD
ATOM     38  C   UNK A   0       8.888  -5.146  25.798  0.00  0.00    +0.341 C 
ATOM     39  N   UNK A   0       8.187  -5.677  26.801  0.00  0.00    -0.292 N 
ATOM     40  H   UNK A   0       8.548  -6.451  27.346  0.00  0.00    +0.255 HD
ATOM     41  H   UNK A   0       7.265  -5.338  27.046  0.00  0.00    +0.255 HD
ATOM     42  N   UNK A   0      10.098  -5.644  25.527  0.00  0.00    -0.292 N 
ATOM     43  H   UNK A   0      10.490  -6.412  26.054  0.00  0.00    +0.255 HD
ATOM     44  H   UNK A   0      10.657  -5.282  24.771  0.00  0.00    +0.255 HD
ENDBRANCH  35  36
ENDBRANCH  34  35
ENDBRANCH  33  34
ENDBRANCH   1  33
TORSDOF 15
ENDMDL
