MODEL 1
REMARK VINA RESULT:      -8.1      0.000      0.000
REMARK  Name = 
REMARK  9 active torsions:
REMARK  status: ('A' for Active; 'I' for Inactive)
REMARK    1  A    between atoms: O_1  and  C_2
REMARK    2  A    between atoms: C_3  and  C_4
REMARK    3  A    between atoms: C_4  and  N_5
REMARK    4  A    between atoms: N_5  and  C_6
REMARK    5  A    between atoms: N_9  and  S_12
REMARK    6  A    between atoms: S_12  and  N_15
REMARK    7  A    between atoms: N_15  and  C_16
REMARK    8  A    between atoms: C_18  and  O_19
REMARK    9  A    between atoms: O_19  and  C_20
REMARK                            x       y       z     vdW  Elec       q    Type
REMARK                         _______ _______ _______ _____ _____    ______ ____
ROOT
ATOM      1  S   UNL     1       8.836  -2.310  23.387  0.00  0.00    +0.112 S 
ATOM      2  O   UNL     1      10.146  -2.768  23.790  0.00  0.00    -0.138 OA
ATOM      3  O   UNL     1       8.450  -2.260  21.999  0.00  0.00    -0.138 OA
ENDROOT
BRANCH   1   7
ATOM      4  C   UNL     1       9.685   1.007  22.031  0.00  0.00    +0.056 C 
ATOM      5  C   UNL     1       8.158   0.717  22.067  0.00  0.00    +0.036 C 
ATOM      6  C   UNL     1       7.577   0.071  23.329  0.00  0.00    +0.112 C 
ATOM      7  N   UNL     1       8.560  -0.775  24.049  0.00  0.00    -0.164 NA
ATOM      8  C   UNL     1       9.722   0.050  24.404  0.00  0.00    +0.112 C 
ATOM      9  C   UNL     1      10.520   0.405  23.177  0.00  0.00    +0.036 C 
BRANCH   4  10
ATOM     10  N   UNL     1      10.051   2.447  21.879  0.00  0.00    -0.309 NA
ATOM     11  H   UNL     1      10.643   2.550  21.049  0.00  0.00    +0.123 HD
BRANCH  10  12
ATOM     12  C   UNL     1      10.897   2.817  23.044  0.00  0.00    +0.120 C 
BRANCH  12  18
ATOM     13  C   UNL     1       9.530   4.641  24.198  0.00  0.00    +0.121 A 
ATOM     14  C   UNL     1       9.487   5.846  24.895  0.00  0.00    +0.046 A 
ATOM     15  C   UNL     1      10.625   6.652  24.964  0.00  0.00    +0.004 A 
ATOM     16  C   UNL     1      11.797   6.255  24.326  0.00  0.00    +0.001 A 
ATOM     17  C   UNL     1      11.837   5.045  23.637  0.00  0.00    +0.008 A 
ATOM     18  C   UNL     1      10.706   4.213  23.570  0.00  0.00    +0.008 A 
BRANCH  13  19
ATOM     19  O   UNL     1       8.394   3.880  24.181  0.00  0.00    -0.506 OA
ATOM     20  H   UNL     1       7.671   4.455  24.507  0.00  0.00    +0.292 HD
ENDBRANCH  13  19
ENDBRANCH  12  18
ENDBRANCH  10  12
ENDBRANCH   4  10
ENDBRANCH   1   7
BRANCH   1  21
ATOM     21  N   UNL     1       7.628  -3.187  24.202  0.00  0.00    -0.206 N 
ATOM     22  H   UNL     1       6.996  -2.490  24.596  0.00  0.00    +0.175 HD
BRANCH  21  23
ATOM     23  C   UNL     1       6.946  -4.162  23.403  0.00  0.00    +0.053 A 
ATOM     24  C   UNL     1       7.668  -5.147  22.728  0.00  0.00    +0.025 A 
ATOM     25  C   UNL     1       6.993  -6.137  22.013  0.00  0.00    +0.005 A 
ATOM     26  C   UNL     1       5.601  -6.168  22.003  0.00  0.00    +0.046 A 
ATOM     27  C   UNL     1       4.877  -5.225  22.741  0.00  0.00    +0.130 A 
ATOM     28  C   UNL     1       5.548  -4.192  23.404  0.00  0.00    +0.070 A 
BRANCH  27  29
ATOM     29  O   UNL     1       3.499  -5.229  22.829  0.00  0.00    -0.456 OA
BRANCH  29  30
ATOM     30  C   UNL     1       2.866  -6.351  23.324  0.00  0.00    +0.129 A 
ATOM     31  C   UNL     1       1.777  -6.821  22.583  0.00  0.00    +0.049 A 
ATOM     32  C   UNL     1       1.071  -7.949  23.009  0.00  0.00    +0.042 A 
ATOM     33  C   UNL     1       1.454  -8.596  24.179  0.00  0.00    +0.124 A 
ATOM     34  F   UNL     1       0.783  -9.681  24.584  0.00  0.00    -0.205 F 
ATOM     35  C   UNL     1       2.517  -8.124  24.941  0.00  0.00    +0.042 A 
ATOM     36  C   UNL     1       3.213  -6.986  24.525  0.00  0.00    +0.049 A 
ENDBRANCH  29  30
ENDBRANCH  27  29
ENDBRANCH  21  23
ENDBRANCH   1  21
TORSDOF 9
ENDMDL
MODEL 2
REMARK VINA RESULT:      -8.0      4.188      6.369
REMARK  Name = 
REMARK  9 active torsions:
REMARK  status: ('A' for Active; 'I' for Inactive)
REMARK    1  A    between atoms: O_1  and  C_2
REMARK    2  A    between atoms: C_3  and  C_4
REMARK    3  A    between atoms: C_4  and  N_5
REMARK    4  A    between atoms: N_5  and  C_6
REMARK    5  A    between atoms: N_9  and  S_12
REMARK    6  A    between atoms: S_12  and  N_15
REMARK    7  A    between atoms: N_15  and  C_16
REMARK    8  A    between atoms: C_18  and  O_19
REMARK    9  A    between atoms: O_19  and  C_20
REMARK                            x       y       z     vdW  Elec       q    Type
REMARK                         _______ _______ _______ _____ _____    ______ ____
ROOT
ATOM      1  S   UNL     1       5.172  -1.371  26.256  0.00  0.00    +0.112 S 
ATOM      2  O   UNL     1       5.087  -1.523  24.821  0.00  0.00    -0.138 OA
ATOM      3  O   UNL     1       3.992  -1.358  27.083  0.00  0.00    -0.138 OA
ENDROOT
BRANCH   1   7
ATOM      4  C   UNL     1       5.277   1.848  24.471  0.00  0.00    +0.056 C 
ATOM      5  C   UNL     1       4.595   1.926  25.865  0.00  0.00    +0.036 C 
ATOM      6  C   UNL     1       5.267   1.204  27.038  0.00  0.00    +0.112 C 
ATOM      7  N   UNL     1       6.061   0.026  26.611  0.00  0.00    -0.164 NA
ATOM      8  C   UNL     1       7.080   0.467  25.649  0.00  0.00    +0.112 C 
ATOM      9  C   UNL     1       6.446   0.854  24.340  0.00  0.00    +0.036 C 
BRANCH   4  10
ATOM     10  N   UNL     1       5.699   3.161  23.899  0.00  0.00    -0.309 NA
ATOM     11  H   UNL     1       5.028   3.436  23.175  0.00  0.00    +0.123 HD
BRANCH  10  12
ATOM     12  C   UNL     1       6.997   2.948  23.206  0.00  0.00    +0.120 C 
BRANCH  12  18
ATOM     13  C   UNL     1       7.531   5.370  22.595  0.00  0.00    +0.121 A 
ATOM     14  C   UNL     1       8.301   6.515  22.794  0.00  0.00    +0.046 A 
ATOM     15  C   UNL     1       9.475   6.443  23.546  0.00  0.00    +0.004 A 
ATOM     16  C   UNL     1       9.880   5.225  24.088  0.00  0.00    +0.001 A 
ATOM     17  C   UNL     1       9.102   4.086  23.893  0.00  0.00    +0.008 A 
ATOM     18  C   UNL     1       7.909   4.143  23.151  0.00  0.00    +0.008 A 
BRANCH  13  19
ATOM     19  O   UNL     1       6.380   5.501  21.869  0.00  0.00    -0.506 OA
ATOM     20  H   UNL     1       5.796   6.097  22.383  0.00  0.00    +0.292 HD
ENDBRANCH  13  19
ENDBRANCH  12  18
ENDBRANCH  10  12
ENDBRANCH   4  10
ENDBRANCH   1   7
BRANCH   1  21
ATOM     21  N   UNL     1       6.218  -2.542  26.911  0.00  0.00    -0.206 N 
ATOM     22  H   UNL     1       5.643  -3.112  27.532  0.00  0.00    +0.175 HD
BRANCH  21  23
ATOM     23  C   UNL     1       6.930  -3.326  25.944  0.00  0.00    +0.053 A 
ATOM     24  C   UNL     1       6.346  -4.470  25.400  0.00  0.00    +0.025 A 
ATOM     25  C   UNL     1       7.013  -5.185  24.405  0.00  0.00    +0.005 A 
ATOM     26  C   UNL     1       8.242  -4.740  23.926  0.00  0.00    +0.046 A 
ATOM     27  C   UNL     1       8.792  -3.551  24.419  0.00  0.00    +0.130 A 
ATOM     28  C   UNL     1       8.160  -2.867  25.463  0.00  0.00    +0.070 A 
BRANCH  27  29
ATOM     29  O   UNL     1       9.975  -3.014  23.951  0.00  0.00    -0.456 OA
BRANCH  29  30
ATOM     30  C   UNL     1       9.962  -1.746  23.404  0.00  0.00    +0.129 A 
ATOM     31  C   UNL     1       9.508  -1.650  22.084  0.00  0.00    +0.049 A 
ATOM     32  C   UNL     1       9.464  -0.408  21.445  0.00  0.00    +0.042 A 
ATOM     33  C   UNL     1       9.879   0.730  22.129  0.00  0.00    +0.124 A 
ATOM     34  F   UNL     1       9.829   1.921  21.520  0.00  0.00    -0.205 F 
ATOM     35  C   UNL     1      10.357   0.646  23.431  0.00  0.00    +0.042 A 
ATOM     36  C   UNL     1      10.419  -0.598  24.065  0.00  0.00    +0.049 A 
ENDBRANCH  29  30
ENDBRANCH  27  29
ENDBRANCH  21  23
ENDBRANCH   1  21
TORSDOF 9
ENDMDL
MODEL 3
REMARK VINA RESULT:      -8.0      3.971     11.109
REMARK  Name = 
REMARK  9 active torsions:
REMARK  status: ('A' for Active; 'I' for Inactive)
REMARK    1  A    between atoms: O_1  and  C_2
REMARK    2  A    between atoms: C_3  and  C_4
REMARK    3  A    between atoms: C_4  and  N_5
REMARK    4  A    between atoms: N_5  and  C_6
REMARK    5  A    between atoms: N_9  and  S_12
REMARK    6  A    between atoms: S_12  and  N_15
REMARK    7  A    between atoms: N_15  and  C_16
REMARK    8  A    between atoms: C_18  and  O_19
REMARK    9  A    between atoms: O_19  and  C_20
REMARK                            x       y       z     vdW  Elec       q    Type
REMARK                         _______ _______ _______ _____ _____    ______ ____
ROOT
ATOM      1  S   UNL     1       8.426  -2.692  24.976  0.00  0.00    +0.112 S 
ATOM      2  O   UNL     1       8.632  -2.450  26.386  0.00  0.00    -0.138 OA
ATOM      3  O   UNL     1       7.278  -2.165  24.282  0.00  0.00    -0.138 OA
ENDROOT
BRANCH   1   7
ATOM      4  C   UNL     1       5.757  -5.203  25.337  0.00  0.00    +0.056 C 
ATOM      5  C   UNL     1       6.172  -4.938  23.864  0.00  0.00    +0.036 C 
ATOM      6  C   UNL     1       7.667  -4.843  23.543  0.00  0.00    +0.112 C 
ATOM      7  N   UNL     1       8.474  -4.361  24.691  0.00  0.00    -0.164 NA
ATOM      8  C   UNL     1       8.267  -5.269  25.827  0.00  0.00    +0.112 C 
ATOM      9  C   UNL     1       6.879  -5.113  26.388  0.00  0.00    +0.036 C 
BRANCH   4  10
ATOM     10  N   UNL     1       4.992  -6.466  25.561  0.00  0.00    -0.309 NA
ATOM     11  H   UNL     1       5.004  -7.017  24.698  0.00  0.00    +0.123 HD
BRANCH  10  12
ATOM     12  C   UNL     1       3.573  -6.092  25.797  0.00  0.00    +0.120 C 
BRANCH  12  18
ATOM     13  C   UNL     1       2.389  -7.171  23.807  0.00  0.00    +0.121 A 
ATOM     14  C   UNL     1       1.382  -7.131  22.846  0.00  0.00    +0.046 A 
ATOM     15  C   UNL     1       0.674  -5.947  22.627  0.00  0.00    +0.004 A 
ATOM     16  C   UNL     1       0.985  -4.806  23.363  0.00  0.00    +0.001 A 
ATOM     17  C   UNL     1       1.988  -4.855  24.328  0.00  0.00    +0.008 A 
ATOM     18  C   UNL     1       2.700  -6.042  24.573  0.00  0.00    +0.008 A 
BRANCH  13  19
ATOM     19  O   UNL     1       3.035  -8.361  23.996  0.00  0.00    -0.506 OA
ATOM     20  H   UNL     1       3.952  -8.233  23.674  0.00  0.00    +0.292 HD
ENDBRANCH  13  19
ENDBRANCH  12  18
ENDBRANCH  10  12
ENDBRANCH   4  10
ENDBRANCH   1   7
BRANCH   1  21
ATOM     21  N   UNL     1       9.798  -2.217  24.090  0.00  0.00    -0.206 N 
ATOM     22  H   UNL     1      10.070  -3.033  23.542  0.00  0.00    +0.175 HD
BRANCH  21  23
ATOM     23  C   UNL     1       9.621  -1.044  23.285  0.00  0.00    +0.053 A 
ATOM     24  C   UNL     1       9.506  -1.154  21.899  0.00  0.00    +0.025 A 
ATOM     25  C   UNL     1       9.259  -0.017  21.130  0.00  0.00    +0.005 A 
ATOM     26  C   UNL     1       9.088   1.221  21.743  0.00  0.00    +0.046 A 
ATOM     27  C   UNL     1       9.128   1.319  23.138  0.00  0.00    +0.130 A 
ATOM     28  C   UNL     1       9.442   0.194  23.909  0.00  0.00    +0.070 A 
BRANCH  27  29
ATOM     29  O   UNL     1       8.909   2.499  23.821  0.00  0.00    -0.456 OA
BRANCH  29  30
ATOM     30  C   UNL     1       9.871   3.488  23.769  0.00  0.00    +0.129 A 
ATOM     31  C   UNL     1       9.455   4.771  24.140  0.00  0.00    +0.049 A 
ATOM     32  C   UNL     1      10.359   5.837  24.114  0.00  0.00    +0.042 A 
ATOM     33  C   UNL     1      11.671   5.614  23.712  0.00  0.00    +0.124 A 
ATOM     34  F   UNL     1      12.539   6.632  23.696  0.00  0.00    -0.205 F 
ATOM     35  C   UNL     1      12.091   4.349  23.316  0.00  0.00    +0.042 A 
ATOM     36  C   UNL     1      11.184   3.286  23.323  0.00  0.00    +0.049 A 
ENDBRANCH  29  30
ENDBRANCH  27  29
ENDBRANCH  21  23
ENDBRANCH   1  21
TORSDOF 9
ENDMDL
MODEL 4
REMARK VINA RESULT:      -7.9      3.427      5.681
REMARK  Name = 
REMARK  9 active torsions:
REMARK  status: ('A' for Active; 'I' for Inactive)
REMARK    1  A    between atoms: O_1  and  C_2
REMARK    2  A    between atoms: C_3  and  C_4
REMARK    3  A    between atoms: C_4  and  N_5
REMARK    4  A    between atoms: N_5  and  C_6
REMARK    5  A    between atoms: N_9  and  S_12
REMARK    6  A    between atoms: S_12  and  N_15
REMARK    7  A    between atoms: N_15  and  C_16
REMARK    8  A    between atoms: C_18  and  O_19
REMARK    9  A    between atoms: O_19  and  C_20
REMARK                            x       y       z     vdW  Elec       q    Type
REMARK                         _______ _______ _______ _____ _____    ______ ____
ROOT
ATOM      1  S   UNL     1       6.130  -5.595  27.808  0.00  0.00    +0.112 S 
ATOM      2  O   UNL     1       5.418  -4.824  28.801  0.00  0.00    -0.138 OA
ATOM      3  O   UNL     1       7.515  -5.954  27.985  0.00  0.00    -0.138 OA
ENDROOT
BRANCH   1   7
ATOM      4  C   UNL     1       7.528  -2.376  26.695  0.00  0.00    +0.056 C 
ATOM      5  C   UNL     1       8.170  -3.610  26.002  0.00  0.00    +0.036 C 
ATOM      6  C   UNL     1       7.240  -4.725  25.513  0.00  0.00    +0.112 C 
ATOM      7  N   UNL     1       5.990  -4.825  26.306  0.00  0.00    -0.164 NA
ATOM      8  C   UNL     1       5.291  -3.534  26.248  0.00  0.00    +0.112 C 
ATOM      9  C   UNL     1       6.031  -2.489  27.040  0.00  0.00    +0.036 C 
BRANCH   4  10
ATOM     10  N   UNL     1       7.762  -1.072  26.006  0.00  0.00    -0.309 NA
ATOM     11  H   UNL     1       6.870  -0.575  25.927  0.00  0.00    +0.123 HD
BRANCH  10  12
ATOM     12  C   UNL     1       8.196  -1.373  24.616  0.00  0.00    +0.120 C 
BRANCH  12  18
ATOM     13  C   UNL     1       9.798   0.590  24.293  0.00  0.00    +0.121 A 
ATOM     14  C   UNL     1      10.441   1.484  23.440  0.00  0.00    +0.046 A 
ATOM     15  C   UNL     1      10.026   1.602  22.113  0.00  0.00    +0.004 A 
ATOM     16  C   UNL     1       8.963   0.832  21.646  0.00  0.00    +0.001 A 
ATOM     17  C   UNL     1       8.329  -0.066  22.501  0.00  0.00    +0.008 A 
ATOM     18  C   UNL     1       8.743  -0.209  23.837  0.00  0.00    +0.008 A 
BRANCH  13  19
ATOM     19  O   UNL     1      10.259   0.499  25.577  0.00  0.00    -0.506 OA
ATOM     20  H   UNL     1       9.516   0.149  26.113  0.00  0.00    +0.292 HD
ENDBRANCH  13  19
ENDBRANCH  12  18
ENDBRANCH  10  12
ENDBRANCH   4  10
ENDBRANCH   1   7
BRANCH   1  21
ATOM     21  N   UNL     1       5.290  -7.033  27.464  0.00  0.00    -0.206 N 
ATOM     22  H   UNL     1       5.012  -7.415  28.369  0.00  0.00    +0.175 HD
BRANCH  21  23
ATOM     23  C   UNL     1       4.185  -6.887  26.562  0.00  0.00    +0.053 A 
ATOM     24  C   UNL     1       2.891  -6.729  27.057  0.00  0.00    +0.025 A 
ATOM     25  C   UNL     1       1.831  -6.512  26.176  0.00  0.00    +0.005 A 
ATOM     26  C   UNL     1       2.067  -6.415  24.807  0.00  0.00    +0.046 A 
ATOM     27  C   UNL     1       3.375  -6.499  24.317  0.00  0.00    +0.130 A 
ATOM     28  C   UNL     1       4.431  -6.783  25.190  0.00  0.00    +0.070 A 
BRANCH  27  29
ATOM     29  O   UNL     1       3.694  -6.352  22.982  0.00  0.00    -0.456 OA
BRANCH  29  30
ATOM     30  C   UNL     1       4.787  -5.583  22.639  0.00  0.00    +0.129 A 
ATOM     31  C   UNL     1       4.650  -4.203  22.817  0.00  0.00    +0.049 A 
ATOM     32  C   UNL     1       5.703  -3.344  22.492  0.00  0.00    +0.042 A 
ATOM     33  C   UNL     1       6.885  -3.870  21.984  0.00  0.00    +0.124 A 
ATOM     34  F   UNL     1       7.898  -3.048  21.681  0.00  0.00    -0.205 F 
ATOM     35  C   UNL     1       7.027  -5.237  21.776  0.00  0.00    +0.042 A 
ATOM     36  C   UNL     1       5.968  -6.096  22.084  0.00  0.00    +0.049 A 
ENDBRANCH  29  30
ENDBRANCH  27  29
ENDBRANCH  21  23
ENDBRANCH   1  21
TORSDOF 9
ENDMDL
MODEL 5
REMARK VINA RESULT:      -7.8      3.755      9.249
REMARK  Name = 
REMARK  9 active torsions:
REMARK  status: ('A' for Active; 'I' for Inactive)
REMARK    1  A    between atoms: O_1  and  C_2
REMARK    2  A    between atoms: C_3  and  C_4
REMARK    3  A    between atoms: C_4  and  N_5
REMARK    4  A    between atoms: N_5  and  C_6
REMARK    5  A    between atoms: N_9  and  S_12
REMARK    6  A    between atoms: S_12  and  N_15
REMARK    7  A    between atoms: N_15  and  C_16
REMARK    8  A    between atoms: C_18  and  O_19
REMARK    9  A    between atoms: O_19  and  C_20
REMARK                            x       y       z     vdW  Elec       q    Type
REMARK                         _______ _______ _______ _____ _____    ______ ____
ROOT
ATOM      1  S   UNL     1       5.472   0.846  25.863  0.00  0.00    +0.112 S 
ATOM      2  O   UNL     1       6.875   1.070  26.130  0.00  0.00    -0.138 OA
ATOM      3  O   UNL     1       4.490   0.893  26.917  0.00  0.00    -0.138 OA
ENDROOT
BRANCH   1   7
ATOM      4  C   UNL     1       7.147  -2.372  26.495  0.00  0.00    +0.056 C 
ATOM      5  C   UNL     1       5.632  -2.375  26.843  0.00  0.00    +0.036 C 
ATOM      6  C   UNL     1       4.664  -1.723  25.850  0.00  0.00    +0.112 C 
ATOM      7  N   UNL     1       5.292  -0.634  25.062  0.00  0.00    -0.164 NA
ATOM      8  C   UNL     1       6.449  -1.181  24.340  0.00  0.00    +0.112 C 
ATOM      9  C   UNL     1       7.568  -1.505  25.294  0.00  0.00    +0.036 C 
BRANCH   4  10
ATOM     10  N   UNL     1       7.764  -3.723  26.350  0.00  0.00    -0.309 NA
ATOM     11  H   UNL     1       8.427  -3.701  25.568  0.00  0.00    +0.123 HD
BRANCH  10  12
ATOM     12  C   UNL     1       6.685  -4.667  25.955  0.00  0.00    +0.120 C 
BRANCH  12  18
ATOM     13  C   UNL     1       7.645  -5.250  23.661  0.00  0.00    +0.121 A 
ATOM     14  C   UNL     1       7.453  -5.735  22.369  0.00  0.00    +0.046 A 
ATOM     15  C   UNL     1       6.159  -5.894  21.870  0.00  0.00    +0.004 A 
ATOM     16  C   UNL     1       5.063  -5.559  22.661  0.00  0.00    +0.001 A 
ATOM     17  C   UNL     1       5.261  -5.082  23.954  0.00  0.00    +0.008 A 
ATOM     18  C   UNL     1       6.557  -4.929  24.479  0.00  0.00    +0.008 A 
BRANCH  13  19
ATOM     19  O   UNL     1       8.933  -5.134  24.107  0.00  0.00    -0.506 OA
ATOM     20  H   UNL     1       8.876  -4.914  25.060  0.00  0.00    +0.292 HD
ENDBRANCH  13  19
ENDBRANCH  12  18
ENDBRANCH  10  12
ENDBRANCH   4  10
ENDBRANCH   1   7
BRANCH   1  21
ATOM     21  N   UNL     1       4.931   1.895  24.639  0.00  0.00    -0.206 N 
ATOM     22  H   UNL     1       4.159   2.424  25.048  0.00  0.00    +0.175 HD
BRANCH  21  23
ATOM     23  C   UNL     1       5.942   2.741  24.075  0.00  0.00    +0.053 A 
ATOM     24  C   UNL     1       6.099   4.049  24.532  0.00  0.00    +0.025 A 
ATOM     25  C   UNL     1       7.133   4.841  24.032  0.00  0.00    +0.005 A 
ATOM     26  C   UNL     1       8.033   4.317  23.107  0.00  0.00    +0.046 A 
ATOM     27  C   UNL     1       7.921   2.981  22.706  0.00  0.00    +0.130 A 
ATOM     28  C   UNL     1       6.846   2.204  23.153  0.00  0.00    +0.070 A 
BRANCH  27  29
ATOM     29  O   UNL     1       8.809   2.374  21.841  0.00  0.00    -0.456 OA
BRANCH  29  30
ATOM     30  C   UNL     1       9.273   1.108  22.141  0.00  0.00    +0.129 A 
ATOM     31  C   UNL     1      10.066   0.999  23.288  0.00  0.00    +0.049 A 
ATOM     32  C   UNL     1      10.584  -0.241  23.668  0.00  0.00    +0.042 A 
ATOM     33  C   UNL     1      10.311  -1.365  22.896  0.00  0.00    +0.124 A 
ATOM     34  F   UNL     1      10.800  -2.555  23.264  0.00  0.00    -0.205 F 
ATOM     35  C   UNL     1       9.546  -1.267  21.739  0.00  0.00    +0.042 A 
ATOM     36  C   UNL     1       9.042  -0.024  21.347  0.00  0.00    +0.049 A 
ENDBRANCH  29  30
ENDBRANCH  27  29
ENDBRANCH  21  23
ENDBRANCH   1  21
TORSDOF 9
ENDMDL
MODEL 6
REMARK VINA RESULT:      -7.8      4.450     10.559
REMARK  Name = 
REMARK  9 active torsions:
REMARK  status: ('A' for Active; 'I' for Inactive)
REMARK    1  A    between atoms: O_1  and  C_2
REMARK    2  A    between atoms: C_3  and  C_4
REMARK    3  A    between atoms: C_4  and  N_5
REMARK    4  A    between atoms: N_5  and  C_6
REMARK    5  A    between atoms: N_9  and  S_12
REMARK    6  A    between atoms: S_12  and  N_15
REMARK    7  A    between atoms: N_15  and  C_16
REMARK    8  A    between atoms: C_18  and  O_19
REMARK    9  A    between atoms: O_19  and  C_20
REMARK                            x       y       z     vdW  Elec       q    Type
REMARK                         _______ _______ _______ _____ _____    ______ ____
ROOT
ATOM      1  S   UNL     1       8.658  -2.831  24.615  0.00  0.00    +0.112 S 
ATOM      2  O   UNL     1       8.866  -2.442  25.991  0.00  0.00    -0.138 OA
ATOM      3  O   UNL     1       7.504  -2.388  23.874  0.00  0.00    -0.138 OA
ENDROOT
BRANCH   1   7
ATOM      4  C   UNL     1       6.132  -5.328  25.587  0.00  0.00    +0.056 C 
ATOM      5  C   UNL     1       6.347  -5.219  24.052  0.00  0.00    +0.036 C 
ATOM      6  C   UNL     1       7.785  -5.136  23.530  0.00  0.00    +0.112 C 
ATOM      7  N   UNL     1       8.719  -4.520  24.504  0.00  0.00    -0.164 NA
ATOM      8  C   UNL     1       8.686  -5.302  25.748  0.00  0.00    +0.112 C 
ATOM      9  C   UNL     1       7.377  -5.107  26.467  0.00  0.00    +0.036 C 
BRANCH   4  10
ATOM     10  N   UNL     1       5.441  -6.571  26.042  0.00  0.00    -0.309 NA
ATOM     11  H   UNL     1       5.279  -7.175  25.230  0.00  0.00    +0.123 HD
BRANCH  10  12
ATOM     12  C   UNL     1       4.097  -6.176  26.541  0.00  0.00    +0.120 C 
BRANCH  12  18
ATOM     13  C   UNL     1       4.633  -6.325  29.034  0.00  0.00    +0.121 A 
ATOM     14  C   UNL     1       4.796  -5.694  30.265  0.00  0.00    +0.046 A 
ATOM     15  C   UNL     1       4.367  -4.376  30.434  0.00  0.00    +0.004 A 
ATOM     16  C   UNL     1       3.767  -3.699  29.375  0.00  0.00    +0.001 A 
ATOM     17  C   UNL     1       3.613  -4.333  28.144  0.00  0.00    +0.008 A 
ATOM     18  C   UNL     1       4.053  -5.655  27.951  0.00  0.00    +0.008 A 
BRANCH  13  19
ATOM     19  O   UNL     1       5.090  -7.609  28.917  0.00  0.00    -0.506 OA
ATOM     20  H   UNL     1       5.955  -7.637  29.376  0.00  0.00    +0.292 HD
ENDBRANCH  13  19
ENDBRANCH  12  18
ENDBRANCH  10  12
ENDBRANCH   4  10
ENDBRANCH   1   7
BRANCH   1  21
ATOM     21  N   UNL     1      10.023  -2.440  23.679  0.00  0.00    -0.206 N 
ATOM     22  H   UNL     1      10.118  -3.195  22.999  0.00  0.00    +0.175 HD
BRANCH  21  23
ATOM     23  C   UNL     1       9.986  -1.144  23.067  0.00  0.00    +0.053 A 
ATOM     24  C   UNL     1       9.443  -0.986  21.792  0.00  0.00    +0.025 A 
ATOM     25  C   UNL     1       9.341   0.288  21.233  0.00  0.00    +0.005 A 
ATOM     26  C   UNL     1       9.744   1.406  21.959  0.00  0.00    +0.046 A 
ATOM     27  C   UNL     1      10.219   1.254  23.267  0.00  0.00    +0.130 A 
ATOM     28  C   UNL     1      10.385  -0.027  23.806  0.00  0.00    +0.070 A 
BRANCH  27  29
ATOM     29  O   UNL     1      10.580   2.318  24.069  0.00  0.00    -0.456 OA
BRANCH  29  30
ATOM     30  C   UNL     1       9.842   3.483  24.003  0.00  0.00    +0.129 A 
ATOM     31  C   UNL     1      10.552   4.643  23.674  0.00  0.00    +0.049 A 
ATOM     32  C   UNL     1       9.890   5.870  23.587  0.00  0.00    +0.042 A 
ATOM     33  C   UNL     1       8.524   5.932  23.837  0.00  0.00    +0.124 A 
ATOM     34  F   UNL     1       7.888   7.107  23.746  0.00  0.00    -0.205 F 
ATOM     35  C   UNL     1       7.810   4.793  24.191  0.00  0.00    +0.042 A 
ATOM     36  C   UNL     1       8.474   3.567  24.296  0.00  0.00    +0.049 A 
ENDBRANCH  29  30
ENDBRANCH  27  29
ENDBRANCH  21  23
ENDBRANCH   1  21
TORSDOF 9
ENDMDL
MODEL 7
REMARK VINA RESULT:      -7.8      1.874      2.491
REMARK  Name = 
REMARK  9 active torsions:
REMARK  status: ('A' for Active; 'I' for Inactive)
REMARK    1  A    between atoms: O_1  and  C_2
REMARK    2  A    between atoms: C_3  and  C_4
REMARK    3  A    between atoms: C_4  and  N_5
REMARK    4  A    between atoms: N_5  and  C_6
REMARK    5  A    between atoms: N_9  and  S_12
REMARK    6  A    between atoms: S_12  and  N_15
REMARK    7  A    between atoms: N_15  and  C_16
REMARK    8  A    between atoms: C_18  and  O_19
REMARK    9  A    between atoms: O_19  and  C_20
REMARK                            x       y       z     vdW  Elec       q    Type
REMARK                         _______ _______ _______ _____ _____    ______ ____
ROOT
ATOM      1  S   UNL     1       9.555  -1.873  22.975  0.00  0.00    +0.112 S 
ATOM      2  O   UNL     1      10.762  -1.792  22.186  0.00  0.00    -0.138 OA
ATOM      3  O   UNL     1       8.286  -2.208  22.378  0.00  0.00    -0.138 OA
ENDROOT
BRANCH   1   7
ATOM      4  C   UNL     1       8.481   1.426  21.740  0.00  0.00    +0.056 C 
ATOM      5  C   UNL     1       7.443   0.737  22.669  0.00  0.00    +0.036 C 
ATOM      6  C   UNL     1       7.955   0.065  23.947  0.00  0.00    +0.112 C 
ATOM      7  N   UNL     1       9.352  -0.421  23.824  0.00  0.00    -0.164 NA
ATOM      8  C   UNL     1      10.218   0.714  23.479  0.00  0.00    +0.112 C 
ATOM      9  C   UNL     1       9.964   1.170  22.067  0.00  0.00    +0.036 C 
BRANCH   4  10
ATOM     10  N   UNL     1       8.281   2.893  21.548  0.00  0.00    -0.309 NA
ATOM     11  H   UNL     1       9.198   3.351  21.522  0.00  0.00    +0.123 HD
BRANCH  10  12
ATOM     12  C   UNL     1       7.591   3.412  22.758  0.00  0.00    +0.120 C 
BRANCH  12  18
ATOM     13  C   UNL     1       8.052   5.924  22.748  0.00  0.00    +0.121 A 
ATOM     14  C   UNL     1       8.371   7.087  23.446  0.00  0.00    +0.046 A 
ATOM     15  C   UNL     1       8.827   7.007  24.763  0.00  0.00    +0.004 A 
ATOM     16  C   UNL     1       8.974   5.764  25.373  0.00  0.00    +0.001 A 
ATOM     17  C   UNL     1       8.646   4.605  24.673  0.00  0.00    +0.008 A 
ATOM     18  C   UNL     1       8.170   4.667  23.351  0.00  0.00    +0.008 A 
BRANCH  13  19
ATOM     19  O   UNL     1       7.589   6.061  21.469  0.00  0.00    -0.506 OA
ATOM     20  H   UNL     1       7.302   6.994  21.377  0.00  0.00    +0.292 HD
ENDBRANCH  13  19
ENDBRANCH  12  18
ENDBRANCH  10  12
ENDBRANCH   4  10
ENDBRANCH   1   7
BRANCH   1  21
ATOM     21  N   UNL     1       9.776  -2.934  24.285  0.00  0.00    -0.206 N 
ATOM     22  H   UNL     1      10.296  -2.405  24.986  0.00  0.00    +0.175 HD
BRANCH  21  23
ATOM     23  C   UNL     1       8.571  -3.510  24.808  0.00  0.00    +0.053 A 
ATOM     24  C   UNL     1       7.999  -3.003  25.975  0.00  0.00    +0.025 A 
ATOM     25  C   UNL     1       6.788  -3.518  26.436  0.00  0.00    +0.005 A 
ATOM     26  C   UNL     1       6.128  -4.510  25.714  0.00  0.00    +0.046 A 
ATOM     27  C   UNL     1       6.664  -4.965  24.505  0.00  0.00    +0.130 A 
ATOM     28  C   UNL     1       7.911  -4.500  24.073  0.00  0.00    +0.070 A 
BRANCH  27  29
ATOM     29  O   UNL     1       6.039  -5.900  23.705  0.00  0.00    -0.456 OA
BRANCH  29  30
ATOM     30  C   UNL     1       4.693  -6.144  23.891  0.00  0.00    +0.129 A 
ATOM     31  C   UNL     1       3.813  -5.286  23.224  0.00  0.00    +0.049 A 
ATOM     32  C   UNL     1       2.432  -5.453  23.357  0.00  0.00    +0.042 A 
ATOM     33  C   UNL     1       1.939  -6.474  24.162  0.00  0.00    +0.124 A 
ATOM     34  F   UNL     1       0.616  -6.639  24.284  0.00  0.00    -0.205 F 
ATOM     35  C   UNL     1       2.801  -7.318  24.853  0.00  0.00    +0.042 A 
ATOM     36  C   UNL     1       4.182  -7.140  24.736  0.00  0.00    +0.049 A 
ENDBRANCH  29  30
ENDBRANCH  27  29
ENDBRANCH  21  23
ENDBRANCH   1  21
TORSDOF 9
ENDMDL
MODEL 8
REMARK VINA RESULT:      -7.6      4.395      7.022
REMARK  Name = 
REMARK  9 active torsions:
REMARK  status: ('A' for Active; 'I' for Inactive)
REMARK    1  A    between atoms: O_1  and  C_2
REMARK    2  A    between atoms: C_3  and  C_4
REMARK    3  A    between atoms: C_4  and  N_5
REMARK    4  A    between atoms: N_5  and  C_6
REMARK    5  A    between atoms: N_9  and  S_12
REMARK    6  A    between atoms: S_12  and  N_15
REMARK    7  A    between atoms: N_15  and  C_16
REMARK    8  A    between atoms: C_18  and  O_19
REMARK    9  A    between atoms: O_19  and  C_20
REMARK                            x       y       z     vdW  Elec       q    Type
REMARK                         _______ _______ _______ _____ _____    ______ ____
ROOT
ATOM      1  S   UNL     1       6.325  -5.107  25.431  0.00  0.00    +0.112 S 
ATOM      2  O   UNL     1       5.832  -6.329  26.026  0.00  0.00    -0.138 OA
ATOM      3  O   UNL     1       5.476  -4.267  24.625  0.00  0.00    -0.138 OA
ENDROOT
BRANCH   1   7
ATOM      4  C   UNL     1       8.379  -2.869  23.351  0.00  0.00    +0.056 C 
ATOM      5  C   UNL     1       9.097  -3.362  24.638  0.00  0.00    +0.036 C 
ATOM      6  C   UNL     1       8.972  -4.843  25.010  0.00  0.00    +0.112 C 
ATOM      7  N   UNL     1       7.711  -5.456  24.523  0.00  0.00    -0.164 NA
ATOM      8  C   UNL     1       7.644  -5.303  23.064  0.00  0.00    +0.112 C 
ATOM      9  C   UNL     1       7.409  -3.864  22.688  0.00  0.00    +0.036 C 
BRANCH   4  10
ATOM     10  N   UNL     1       9.279  -2.307  22.301  0.00  0.00    -0.309 NA
ATOM     11  H   UNL     1       9.758  -3.080  21.828  0.00  0.00    +0.123 HD
BRANCH  10  12
ATOM     12  C   UNL     1      10.336  -1.523  22.992  0.00  0.00    +0.120 C 
BRANCH  12  18
ATOM     13  C   UNL     1      10.258   0.699  24.250  0.00  0.00    +0.121 A 
ATOM     14  C   UNL     1      10.283   2.092  24.226  0.00  0.00    +0.046 A 
ATOM     15  C   UNL     1      10.137   2.770  23.015  0.00  0.00    +0.004 A 
ATOM     16  C   UNL     1       9.956   2.054  21.834  0.00  0.00    +0.001 A 
ATOM     17  C   UNL     1       9.940   0.661  21.864  0.00  0.00    +0.008 A 
ATOM     18  C   UNL     1      10.100  -0.040  23.072  0.00  0.00    +0.008 A 
BRANCH  13  19
ATOM     19  O   UNL     1      10.427   0.085  25.460  0.00  0.00    -0.506 OA
ATOM     20  H   UNL     1       9.943   0.629  26.116  0.00  0.00    +0.292 HD
ENDBRANCH  13  19
ENDBRANCH  12  18
ENDBRANCH  10  12
ENDBRANCH   4  10
ENDBRANCH   1   7
BRANCH   1  21
ATOM     21  N   UNL     1       7.014  -4.109  26.623  0.00  0.00    -0.206 N 
ATOM     22  H   UNL     1       7.979  -3.951  26.329  0.00  0.00    +0.175 HD
BRANCH  21  23
ATOM     23  C   UNL     1       6.306  -2.888  26.873  0.00  0.00    +0.053 A 
ATOM     24  C   UNL     1       5.061  -2.914  27.503  0.00  0.00    +0.025 A 
ATOM     25  C   UNL     1       4.412  -1.718  27.810  0.00  0.00    +0.005 A 
ATOM     26  C   UNL     1       5.020  -0.498  27.526  0.00  0.00    +0.046 A 
ATOM     27  C   UNL     1       6.301  -0.472  26.963  0.00  0.00    +0.130 A 
ATOM     28  C   UNL     1       6.926  -1.667  26.592  0.00  0.00    +0.070 A 
BRANCH  27  29
ATOM     29  O   UNL     1       6.991   0.697  26.709  0.00  0.00    -0.456 OA
BRANCH  29  30
ATOM     30  C   UNL     1       6.831   1.313  25.484  0.00  0.00    +0.129 A 
ATOM     31  C   UNL     1       6.848   2.711  25.491  0.00  0.00    +0.049 A 
ATOM     32  C   UNL     1       6.688   3.422  24.298  0.00  0.00    +0.042 A 
ATOM     33  C   UNL     1       6.507   2.729  23.106  0.00  0.00    +0.124 A 
ATOM     34  F   UNL     1       6.362   3.409  21.962  0.00  0.00    -0.205 F 
ATOM     35  C   UNL     1       6.462   1.339  23.088  0.00  0.00    +0.042 A 
ATOM     36  C   UNL     1       6.603   0.628  24.282  0.00  0.00    +0.049 A 
ENDBRANCH  29  30
ENDBRANCH  27  29
ENDBRANCH  21  23
ENDBRANCH   1  21
TORSDOF 9
ENDMDL
MODEL 9
REMARK VINA RESULT:      -7.6      4.416      6.432
REMARK  Name = 
REMARK  9 active torsions:
REMARK  status: ('A' for Active; 'I' for Inactive)
REMARK    1  A    between atoms: O_1  and  C_2
REMARK    2  A    between atoms: C_3  and  C_4
REMARK    3  A    between atoms: C_4  and  N_5
REMARK    4  A    between atoms: N_5  and  C_6
REMARK    5  A    between atoms: N_9  and  S_12
REMARK    6  A    between atoms: S_12  and  N_15
REMARK    7  A    between atoms: N_15  and  C_16
REMARK    8  A    between atoms: C_18  and  O_19
REMARK    9  A    between atoms: O_19  and  C_20
REMARK                            x       y       z     vdW  Elec       q    Type
REMARK                         _______ _______ _______ _____ _____    ______ ____
ROOT
ATOM      1  S   UNL     1       5.197  -1.605  26.336  0.00  0.00    +0.112 S 
ATOM      2  O   UNL     1       3.956  -2.043  26.934  0.00  0.00    -0.138 OA
ATOM      3  O   UNL     1       6.402  -1.473  27.116  0.00  0.00    -0.138 OA
ENDROOT
BRANCH   1   7
ATOM      4  C   UNL     1       7.172   1.500  26.471  0.00  0.00    +0.056 C 
ATOM      5  C   UNL     1       7.241   0.773  25.099  0.00  0.00    +0.036 C 
ATOM      6  C   UNL     1       5.938   0.227  24.506  0.00  0.00    +0.112 C 
ATOM      7  N   UNL     1       4.938  -0.132  25.542  0.00  0.00    -0.164 NA
ATOM      8  C   UNL     1       4.654   1.058  26.356  0.00  0.00    +0.112 C 
ATOM      9  C   UNL     1       5.833   1.403  27.226  0.00  0.00    +0.036 C 
BRANCH   4  10
ATOM     10  N   UNL     1       7.607   2.928  26.452  0.00  0.00    -0.309 NA
ATOM     11  H   UNL     1       6.815   3.518  26.724  0.00  0.00    +0.123 HD
BRANCH  10  12
ATOM     12  C   UNL     1       7.924   3.279  25.042  0.00  0.00    +0.120 C 
BRANCH  12  18
ATOM     13  C   UNL     1       8.689   5.623  25.707  0.00  0.00    +0.121 A 
ATOM     14  C   UNL     1       9.645   6.634  25.647  0.00  0.00    +0.046 A 
ATOM     15  C   UNL     1      10.678   6.560  24.711  0.00  0.00    +0.004 A 
ATOM     16  C   UNL     1      10.745   5.482  23.832  0.00  0.00    +0.001 A 
ATOM     17  C   UNL     1       9.790   4.470  23.902  0.00  0.00    +0.008 A 
ATOM     18  C   UNL     1       8.751   4.520  24.849  0.00  0.00    +0.008 A 
BRANCH  13  19
ATOM     19  O   UNL     1       7.711   5.734  26.657  0.00  0.00    -0.506 OA
ATOM     20  H   UNL     1       8.157   6.028  27.479  0.00  0.00    +0.292 HD
ENDBRANCH  13  19
ENDBRANCH  12  18
ENDBRANCH  10  12
ENDBRANCH   4  10
ENDBRANCH   1   7
BRANCH   1  21
ATOM     21  N   UNL     1       5.583  -2.581  24.998  0.00  0.00    -0.206 N 
ATOM     22  H   UNL     1       5.538  -1.966  24.184  0.00  0.00    +0.175 HD
BRANCH  21  23
ATOM     23  C   UNL     1       6.832  -3.277  25.096  0.00  0.00    +0.053 A 
ATOM     24  C   UNL     1       6.896  -4.520  25.727  0.00  0.00    +0.025 A 
ATOM     25  C   UNL     1       8.099  -5.225  25.754  0.00  0.00    +0.005 A 
ATOM     26  C   UNL     1       9.227  -4.711  25.119  0.00  0.00    +0.046 A 
ATOM     27  C   UNL     1       9.143  -3.501  24.422  0.00  0.00    +0.130 A 
ATOM     28  C   UNL     1       7.958  -2.758  24.450  0.00  0.00    +0.070 A 
BRANCH  27  29
ATOM     29  O   UNL     1      10.201  -2.959  23.719  0.00  0.00    -0.456 OA
BRANCH  29  30
ATOM     30  C   UNL     1      10.100  -1.660  23.260  0.00  0.00    +0.129 A 
ATOM     31  C   UNL     1       9.571  -1.501  21.975  0.00  0.00    +0.049 A 
ATOM     32  C   UNL     1       9.435  -0.224  21.424  0.00  0.00    +0.042 A 
ATOM     33  C   UNL     1       9.835   0.886  22.160  0.00  0.00    +0.124 A 
ATOM     34  F   UNL     1       9.698   2.110  21.636  0.00  0.00    -0.205 F 
ATOM     35  C   UNL     1      10.388   0.741  23.427  0.00  0.00    +0.042 A 
ATOM     36  C   UNL     1      10.541  -0.536  23.972  0.00  0.00    +0.049 A 
ENDBRANCH  29  30
ENDBRANCH  27  29
ENDBRANCH  21  23
ENDBRANCH   1  21
TORSDOF 9
ENDMDL
