MODEL 1
REMARK VINA RESULT:      -6.8      0.000      0.000
REMARK  Name = 
REMARK  12 active torsions:
REMARK  status: ('A' for Active; 'I' for Inactive)
REMARK    1  A    between atoms: C_1  and  O_2
REMARK    2  A    between atoms: O_2  and  C_3
REMARK    3  A    between atoms: C_5  and  C_13
REMARK    4  A    between atoms: C_7  and  O_8
REMARK    5  A    between atoms: O_8  and  C_9
REMARK    6  A    between atoms: C_10  and  O_11
REMARK    7  A    between atoms: O_11  and  C_12
REMARK    8  A    between atoms: C_13  and  C_14
REMARK    9  A    between atoms: C_13  and  C_15
REMARK   10  A    between atoms: C_13  and  C_16
REMARK   11  A    between atoms: C_17  and  C_18
REMARK   12  A    between atoms: C_19  and  C_20
REMARK                            x       y       z     vdW  Elec       q    Type
REMARK                         _______ _______ _______ _____ _____    ______ ____
ROOT
ATOM      1  C   UNL     1       8.345  -4.654  25.371  0.00  0.00    +0.052 C 
ATOM      2  C   UNL     1       9.424  -5.666  24.947  0.00  0.00    +0.029 C 
ATOM      3  C   UNL     1       8.336  -4.546  26.912  0.00  0.00    +0.029 C 
ENDROOT
BRANCH   1   8
ATOM      4  C   UNL     1       4.770  -6.073  25.155  0.00  0.00    +0.165 A 
ATOM      5  C   UNL     1       4.445  -5.918  23.789  0.00  0.00    +0.204 A 
ATOM      6  C   UNL     1       5.412  -5.344  22.936  0.00  0.00    +0.165 A 
ATOM      7  C   UNL     1       6.662  -4.946  23.447  0.00  0.00    +0.054 A 
ATOM      8  C   UNL     1       6.993  -5.087  24.797  0.00  0.00    -0.023 A 
ATOM      9  C   UNL     1       6.006  -5.611  25.637  0.00  0.00    +0.054 A 
BRANCH   4  11
ATOM     10  C   UNL     1       3.250  -5.734  26.950  0.00  0.00    +0.277 C 
ATOM     11  O   UNL     1       3.862  -6.632  26.022  0.00  0.00    -0.491 OA
ENDBRANCH   4  11
BRANCH   5  12
ATOM     12  O   UNL     1       3.266  -6.288  23.201  0.00  0.00    -0.488 OA
ATOM     13  C   UNL     1       2.136  -5.433  23.247  0.00  0.00    +0.277 C 
ENDBRANCH   5  12
BRANCH   6  14
ATOM     14  O   UNL     1       5.335  -5.093  21.586  0.00  0.00    -0.491 OA
ATOM     15  C   UNL     1       6.232  -5.737  20.695  0.00  0.00    +0.277 C 
ENDBRANCH   6  14
ENDBRANCH   1   8
BRANCH   1  16
ATOM     16  C   UNL     1       8.745  -3.282  24.852  0.00  0.00    -0.086 C 
ATOM     17  C   UNL     1       9.087  -2.105  24.407  0.00  0.00    -0.060 C 
BRANCH  17  18
ATOM     18  C   UNL     1       9.448  -0.792  23.966  0.00  0.00    +0.085 A 
ATOM     19  C   UNL     1       9.666   0.247  24.864  0.00  0.00    +0.137 A 
ATOM     20  N   UNL     1       9.498   0.081  26.246  0.00  0.00    -0.342 N 
ATOM     21  H   UNL     1      10.035  -0.713  26.579  0.00  0.00    +0.144 HD
ATOM     22  H   UNL     1       9.786   0.953  26.684  0.00  0.00    +0.144 HD
ATOM     23  N   UNL     1      10.006   1.487  24.482  0.00  0.00    -0.199 NA
ATOM     24  C   UNL     1      10.158   1.692  23.173  0.00  0.00    +0.215 A 
ATOM     25  N   UNL     1      10.510   2.960  22.761  0.00  0.00    -0.327 N 
ATOM     26  H   UNL     1      10.224   3.636  23.454  0.00  0.00    +0.145 HD
ATOM     27  H   UNL     1      10.192   3.106  21.813  0.00  0.00    +0.145 HD
ATOM     28  N   UNL     1       9.951   0.776  22.226  0.00  0.00    -0.219 NA
ATOM     29  C   UNL     1       9.598  -0.469  22.627  0.00  0.00    +0.060 A 
ATOM     30  C   UNL     1       9.357  -1.444  21.512  0.00  0.00    +0.067 C 
ENDBRANCH  17  18
ENDBRANCH   1  16
TORSDOF 6
ENDMDL
MODEL 2
REMARK VINA RESULT:      -6.8      0.312      2.547
REMARK  Name = 
REMARK  12 active torsions:
REMARK  status: ('A' for Active; 'I' for Inactive)
REMARK    1  A    between atoms: C_1  and  O_2
REMARK    2  A    between atoms: O_2  and  C_3
REMARK    3  A    between atoms: C_5  and  C_13
REMARK    4  A    between atoms: C_7  and  O_8
REMARK    5  A    between atoms: O_8  and  C_9
REMARK    6  A    between atoms: C_10  and  O_11
REMARK    7  A    between atoms: O_11  and  C_12
REMARK    8  A    between atoms: C_13  and  C_14
REMARK    9  A    between atoms: C_13  and  C_15
REMARK   10  A    between atoms: C_13  and  C_16
REMARK   11  A    between atoms: C_17  and  C_18
REMARK   12  A    between atoms: C_19  and  C_20
REMARK                            x       y       z     vdW  Elec       q    Type
REMARK                         _______ _______ _______ _____ _____    ______ ____
ROOT
ATOM      1  C   UNL     1       8.300  -4.564  25.394  0.00  0.00    +0.052 C 
ATOM      2  C   UNL     1       9.426  -5.546  25.027  0.00  0.00    +0.029 C 
ATOM      3  C   UNL     1       8.226  -4.436  26.931  0.00  0.00    +0.029 C 
ENDROOT
BRANCH   1   8
ATOM      4  C   UNL     1       5.539  -5.257  22.798  0.00  0.00    +0.165 A 
ATOM      5  C   UNL     1       4.551  -5.929  23.551  0.00  0.00    +0.204 A 
ATOM      6  C   UNL     1       4.798  -6.153  24.923  0.00  0.00    +0.165 A 
ATOM      7  C   UNL     1       5.998  -5.709  25.509  0.00  0.00    +0.054 A 
ATOM      8  C   UNL     1       6.987  -5.048  24.774  0.00  0.00    -0.023 A 
ATOM      9  C   UNL     1       6.747  -4.879  23.406  0.00  0.00    +0.054 A 
BRANCH   4  11
ATOM     10  C   UNL     1       6.133  -5.787  20.559  0.00  0.00    +0.277 C 
ATOM     11  O   UNL     1       5.341  -5.012  21.460  0.00  0.00    -0.491 OA
ENDBRANCH   4  11
BRANCH   5  12
ATOM     12  O   UNL     1       3.352  -6.383  23.073  0.00  0.00    -0.488 OA
ATOM     13  C   UNL     1       2.195  -5.566  23.129  0.00  0.00    +0.277 C 
ENDBRANCH   5  12
BRANCH   6  14
ATOM     14  O   UNL     1       4.001  -6.775  25.855  0.00  0.00    -0.491 OA
ATOM     15  C   UNL     1       4.250  -6.582  27.238  0.00  0.00    +0.277 C 
ENDBRANCH   6  14
ENDBRANCH   1   8
BRANCH   1  16
ATOM     16  C   UNL     1       8.677  -3.187  24.870  0.00  0.00    -0.086 C 
ATOM     17  C   UNL     1       8.999  -2.005  24.422  0.00  0.00    -0.060 C 
BRANCH  17  18
ATOM     18  C   UNL     1       9.384  -0.702  23.974  0.00  0.00    +0.085 A 
ATOM     19  C   UNL     1       9.509   0.366  24.855  0.00  0.00    +0.137 A 
ATOM     20  N   UNL     1       9.220   0.240  26.220  0.00  0.00    -0.342 N 
ATOM     21  H   UNL     1       9.733  -0.536  26.625  0.00  0.00    +0.144 HD
ATOM     22  H   UNL     1       9.458   1.129  26.655  0.00  0.00    +0.144 HD
ATOM     23  N   UNL     1       9.870   1.599  24.466  0.00  0.00    -0.199 NA
ATOM     24  C   UNL     1      10.137   1.766  23.170  0.00  0.00    +0.215 A 
ATOM     25  N   UNL     1      10.510   3.025  22.752  0.00  0.00    -0.327 N 
ATOM     26  H   UNL     1      10.156   3.718  23.395  0.00  0.00    +0.145 HD
ATOM     27  H   UNL     1      10.278   3.138  21.774  0.00  0.00    +0.145 HD
ATOM     28  N   UNL     1      10.025   0.819  22.237  0.00  0.00    -0.219 NA
ATOM     29  C   UNL     1       9.652  -0.418  22.645  0.00  0.00    +0.060 A 
ATOM     30  C   UNL     1       9.522  -1.430  21.543  0.00  0.00    +0.067 C 
ENDBRANCH  17  18
ENDBRANCH   1  16
TORSDOF 6
ENDMDL
MODEL 3
REMARK VINA RESULT:      -6.6      1.632      2.579
REMARK  Name = 
REMARK  12 active torsions:
REMARK  status: ('A' for Active; 'I' for Inactive)
REMARK    1  A    between atoms: C_1  and  O_2
REMARK    2  A    between atoms: O_2  and  C_3
REMARK    3  A    between atoms: C_5  and  C_13
REMARK    4  A    between atoms: C_7  and  O_8
REMARK    5  A    between atoms: O_8  and  C_9
REMARK    6  A    between atoms: C_10  and  O_11
REMARK    7  A    between atoms: O_11  and  C_12
REMARK    8  A    between atoms: C_13  and  C_14
REMARK    9  A    between atoms: C_13  and  C_15
REMARK   10  A    between atoms: C_13  and  C_16
REMARK   11  A    between atoms: C_17  and  C_18
REMARK   12  A    between atoms: C_19  and  C_20
REMARK                            x       y       z     vdW  Elec       q    Type
REMARK                         _______ _______ _______ _____ _____    ______ ____
ROOT
ATOM      1  C   UNL     1       8.204  -4.584  24.609  0.00  0.00    +0.052 C 
ATOM      2  C   UNL     1       7.873  -5.247  23.261  0.00  0.00    +0.029 C 
ATOM      3  C   UNL     1       9.414  -5.306  25.240  0.00  0.00    +0.029 C 
ENDROOT
BRANCH   1   8
ATOM      4  C   UNL     1       5.977  -4.936  27.733  0.00  0.00    +0.165 A 
ATOM      5  C   UNL     1       4.680  -4.682  27.234  0.00  0.00    +0.204 A 
ATOM      6  C   UNL     1       4.541  -4.395  25.859  0.00  0.00    +0.165 A 
ATOM      7  C   UNL     1       5.672  -4.371  25.021  0.00  0.00    +0.054 A 
ATOM      8  C   UNL     1       6.962  -4.613  25.504  0.00  0.00    -0.023 A 
ATOM      9  C   UNL     1       7.086  -4.846  26.877  0.00  0.00    +0.054 A 
BRANCH   4  11
ATOM     10  C   UNL     1       6.243  -6.612  29.397  0.00  0.00    +0.277 C 
ATOM     11  O   UNL     1       6.160  -5.225  29.064  0.00  0.00    -0.491 OA
ENDBRANCH   4  11
BRANCH   5  12
ATOM     12  O   UNL     1       3.524  -4.699  27.965  0.00  0.00    -0.488 OA
ATOM     13  C   UNL     1       2.779  -5.896  28.115  0.00  0.00    +0.277 C 
ENDBRANCH   5  12
BRANCH   6  14
ATOM     14  O   UNL     1       3.399  -4.119  25.143  0.00  0.00    -0.491 OA
ATOM     15  C   UNL     1       3.125  -4.832  23.948  0.00  0.00    +0.277 C 
ENDBRANCH   6  14
ENDBRANCH   1   8
BRANCH   1  16
ATOM     16  C   UNL     1       8.652  -3.156  24.343  0.00  0.00    -0.086 C 
ATOM     17  C   UNL     1       9.038  -1.931  24.114  0.00  0.00    -0.060 C 
BRANCH  17  18
ATOM     18  C   UNL     1       9.477  -0.603  23.814  0.00  0.00    +0.085 A 
ATOM     19  C   UNL     1       9.733   0.326  24.816  0.00  0.00    +0.137 A 
ATOM     20  N   UNL     1       9.531   0.031  26.171  0.00  0.00    -0.342 N 
ATOM     21  H   UNL     1      10.018  -0.821  26.429  0.00  0.00    +0.144 HD
ATOM     22  H   UNL     1       9.857   0.837  26.699  0.00  0.00    +0.144 HD
ATOM     23  N   UNL     1      10.147   1.578  24.567  0.00  0.00    -0.199 NA
ATOM     24  C   UNL     1      10.335   1.906  23.288  0.00  0.00    +0.215 A 
ATOM     25  N   UNL     1      10.762   3.187  23.012  0.00  0.00    -0.327 N 
ATOM     26  H   UNL     1      10.499   3.804  23.766  0.00  0.00    +0.145 HD
ATOM     27  H   UNL     1      10.471   3.445  22.079  0.00  0.00    +0.145 HD
ATOM     28  N   UNL     1      10.097   1.103  22.249  0.00  0.00    -0.219 NA
ATOM     29  C   UNL     1       9.671  -0.155  22.517  0.00  0.00    +0.060 A 
ATOM     30  C   UNL     1       9.398  -0.998  21.305  0.00  0.00    +0.067 C 
ENDBRANCH  17  18
ENDBRANCH   1  16
TORSDOF 6
ENDMDL
MODEL 4
REMARK VINA RESULT:      -6.5      1.751      3.262
REMARK  Name = 
REMARK  12 active torsions:
REMARK  status: ('A' for Active; 'I' for Inactive)
REMARK    1  A    between atoms: C_1  and  O_2
REMARK    2  A    between atoms: O_2  and  C_3
REMARK    3  A    between atoms: C_5  and  C_13
REMARK    4  A    between atoms: C_7  and  O_8
REMARK    5  A    between atoms: O_8  and  C_9
REMARK    6  A    between atoms: C_10  and  O_11
REMARK    7  A    between atoms: O_11  and  C_12
REMARK    8  A    between atoms: C_13  and  C_14
REMARK    9  A    between atoms: C_13  and  C_15
REMARK   10  A    between atoms: C_13  and  C_16
REMARK   11  A    between atoms: C_17  and  C_18
REMARK   12  A    between atoms: C_19  and  C_20
REMARK                            x       y       z     vdW  Elec       q    Type
REMARK                         _______ _______ _______ _____ _____    ______ ____
ROOT
ATOM      1  C   UNL     1       8.195  -4.548  24.620  0.00  0.00    +0.052 C 
ATOM      2  C   UNL     1       7.790  -5.240  23.307  0.00  0.00    +0.029 C 
ATOM      3  C   UNL     1       9.419  -5.279  25.215  0.00  0.00    +0.029 C 
ENDROOT
BRANCH   1   8
ATOM      4  C   UNL     1       4.605  -4.089  25.938  0.00  0.00    +0.165 A 
ATOM      5  C   UNL     1       4.711  -4.466  27.296  0.00  0.00    +0.204 A 
ATOM      6  C   UNL     1       5.974  -4.872  27.777  0.00  0.00    +0.165 A 
ATOM      7  C   UNL     1       7.088  -4.892  26.917  0.00  0.00    +0.054 A 
ATOM      8  C   UNL     1       6.996  -4.527  25.571  0.00  0.00    -0.023 A 
ATOM      9  C   UNL     1       5.727  -4.175  25.099  0.00  0.00    +0.054 A 
BRANCH   4  11
ATOM     10  C   UNL     1       2.895  -4.443  24.327  0.00  0.00    +0.277 C 
ATOM     11  O   UNL     1       3.396  -3.681  25.427  0.00  0.00    -0.491 OA
ENDBRANCH   4  11
BRANCH   5  12
ATOM     12  O   UNL     1       3.690  -4.466  28.207  0.00  0.00    -0.488 OA
ATOM     13  C   UNL     1       2.817  -5.577  28.316  0.00  0.00    +0.277 C 
ENDBRANCH   5  12
BRANCH   6  14
ATOM     14  O   UNL     1       6.328  -5.280  29.042  0.00  0.00    -0.491 OA
ATOM     15  C   UNL     1       6.258  -6.654  29.387  0.00  0.00    +0.277 C 
ENDBRANCH   6  14
ENDBRANCH   1   8
BRANCH   1  16
ATOM     16  C   UNL     1       8.659  -3.138  24.294  0.00  0.00    -0.086 C 
ATOM     17  C   UNL     1       9.056  -1.927  24.014  0.00  0.00    -0.060 C 
BRANCH  17  18
ATOM     18  C   UNL     1       9.472  -0.582  23.755  0.00  0.00    +0.085 A 
ATOM     19  C   UNL     1       9.703   0.323  24.784  0.00  0.00    +0.137 A 
ATOM     20  N   UNL     1       9.497  -0.014  26.129  0.00  0.00    -0.342 N 
ATOM     21  H   UNL     1       9.999  -0.864  26.366  0.00  0.00    +0.144 HD
ATOM     22  H   UNL     1       9.804   0.783  26.682  0.00  0.00    +0.144 HD
ATOM     23  N   UNL     1      10.095   1.589  24.573  0.00  0.00    -0.199 NA
ATOM     24  C   UNL     1      10.285   1.956  23.305  0.00  0.00    +0.215 A 
ATOM     25  N   UNL     1      10.689   3.252  23.069  0.00  0.00    -0.327 N 
ATOM     26  H   UNL     1      10.410   3.843  23.838  0.00  0.00    +0.145 HD
ATOM     27  H   UNL     1      10.400   3.531  22.141  0.00  0.00    +0.145 HD
ATOM     28  N   UNL     1      10.069   1.178  22.243  0.00  0.00    -0.219 NA
ATOM     29  C   UNL     1       9.666  -0.095  22.472  0.00  0.00    +0.060 A 
ATOM     30  C   UNL     1       9.418  -0.909  21.235  0.00  0.00    +0.067 C 
ENDBRANCH  17  18
ENDBRANCH   1  16
TORSDOF 6
ENDMDL
MODEL 5
REMARK VINA RESULT:      -6.5      0.791      3.041
REMARK  Name = 
REMARK  12 active torsions:
REMARK  status: ('A' for Active; 'I' for Inactive)
REMARK    1  A    between atoms: C_1  and  O_2
REMARK    2  A    between atoms: O_2  and  C_3
REMARK    3  A    between atoms: C_5  and  C_13
REMARK    4  A    between atoms: C_7  and  O_8
REMARK    5  A    between atoms: O_8  and  C_9
REMARK    6  A    between atoms: C_10  and  O_11
REMARK    7  A    between atoms: O_11  and  C_12
REMARK    8  A    between atoms: C_13  and  C_14
REMARK    9  A    between atoms: C_13  and  C_15
REMARK   10  A    between atoms: C_13  and  C_16
REMARK   11  A    between atoms: C_17  and  C_18
REMARK   12  A    between atoms: C_19  and  C_20
REMARK                            x       y       z     vdW  Elec       q    Type
REMARK                         _______ _______ _______ _____ _____    ______ ____
ROOT
ATOM      1  C   UNL     1       8.318  -4.617  25.319  0.00  0.00    +0.052 C 
ATOM      2  C   UNL     1       9.410  -5.564  24.791  0.00  0.00    +0.029 C 
ATOM      3  C   UNL     1       8.436  -4.523  26.856  0.00  0.00    +0.029 C 
ENDROOT
BRANCH   1   8
ATOM      4  C   UNL     1       5.400  -5.630  23.016  0.00  0.00    +0.165 A 
ATOM      5  C   UNL     1       4.405  -6.050  23.926  0.00  0.00    +0.204 A 
ATOM      6  C   UNL     1       4.698  -5.998  25.305  0.00  0.00    +0.165 A 
ATOM      7  C   UNL     1       5.951  -5.533  25.746  0.00  0.00    +0.054 A 
ATOM      8  C   UNL     1       6.948  -5.120  24.857  0.00  0.00    -0.023 A 
ATOM      9  C   UNL     1       6.658  -5.225  23.493  0.00  0.00    +0.054 A 
BRANCH   4  11
ATOM     10  C   UNL     1       6.312  -5.671  20.822  0.00  0.00    +0.277 C 
ATOM     11  O   UNL     1       5.157  -5.658  21.664  0.00  0.00    -0.491 OA
ENDBRANCH   4  11
BRANCH   5  12
ATOM     12  O   UNL     1       3.157  -6.502  23.592  0.00  0.00    -0.488 OA
ATOM     13  C   UNL     1       2.078  -5.597  23.432  0.00  0.00    +0.277 C 
ENDBRANCH   5  12
BRANCH   6  14
ATOM     14  O   UNL     1       3.905  -6.347  26.373  0.00  0.00    -0.491 OA
ATOM     15  C   UNL     1       4.502  -6.711  27.607  0.00  0.00    +0.277 C 
ENDBRANCH   6  14
ENDBRANCH   1   8
BRANCH   1  16
ATOM     16  C   UNL     1       8.597  -3.221  24.785  0.00  0.00    -0.086 C 
ATOM     17  C   UNL     1       8.835  -2.023  24.329  0.00  0.00    -0.060 C 
BRANCH  17  18
ATOM     18  C   UNL     1       9.120  -0.696  23.874  0.00  0.00    +0.085 A 
ATOM     19  C   UNL     1       9.721  -0.458  22.644  0.00  0.00    +0.137 A 
ATOM     20  N   UNL     1      10.125  -1.503  21.801  0.00  0.00    -0.342 N 
ATOM     21  H   UNL     1       9.358  -2.145  21.634  0.00  0.00    +0.144 HD
ATOM     22  H   UNL     1      10.463  -1.073  20.942  0.00  0.00    +0.144 HD
ATOM     23  N   UNL     1      10.000   0.774  22.189  0.00  0.00    -0.199 NA
ATOM     24  C   UNL     1       9.648   1.796  22.970  0.00  0.00    +0.215 A 
ATOM     25  N   UNL     1       9.925   3.069  22.520  0.00  0.00    -0.327 N 
ATOM     26  H   UNL     1      10.691   3.040  21.863  0.00  0.00    +0.145 HD
ATOM     27  H   UNL     1      10.015   3.693  23.309  0.00  0.00    +0.145 HD
ATOM     28  N   UNL     1       9.090   1.681  24.177  0.00  0.00    -0.219 NA
ATOM     29  C   UNL     1       8.824   0.431  24.625  0.00  0.00    +0.060 A 
ATOM     30  C   UNL     1       8.219   0.370  25.998  0.00  0.00    +0.067 C 
ENDBRANCH  17  18
ENDBRANCH   1  16
TORSDOF 6
ENDMDL
MODEL 6
REMARK VINA RESULT:      -6.4      1.968      2.921
REMARK  Name = 
REMARK  12 active torsions:
REMARK  status: ('A' for Active; 'I' for Inactive)
REMARK    1  A    between atoms: C_1  and  O_2
REMARK    2  A    between atoms: O_2  and  C_3
REMARK    3  A    between atoms: C_5  and  C_13
REMARK    4  A    between atoms: C_7  and  O_8
REMARK    5  A    between atoms: O_8  and  C_9
REMARK    6  A    between atoms: C_10  and  O_11
REMARK    7  A    between atoms: O_11  and  C_12
REMARK    8  A    between atoms: C_13  and  C_14
REMARK    9  A    between atoms: C_13  and  C_15
REMARK   10  A    between atoms: C_13  and  C_16
REMARK   11  A    between atoms: C_17  and  C_18
REMARK   12  A    between atoms: C_19  and  C_20
REMARK                            x       y       z     vdW  Elec       q    Type
REMARK                         _______ _______ _______ _____ _____    ______ ____
ROOT
ATOM      1  C   UNL     1       7.526  -4.884  23.746  0.00  0.00    +0.052 C 
ATOM      2  C   UNL     1       7.481  -5.655  22.415  0.00  0.00    +0.029 C 
ATOM      3  C   UNL     1       8.817  -5.266  24.503  0.00  0.00    +0.029 C 
ENDROOT
BRANCH   1   8
ATOM      4  C   UNL     1       5.197  -6.233  26.501  0.00  0.00    +0.165 A 
ATOM      5  C   UNL     1       3.922  -5.783  26.093  0.00  0.00    +0.204 A 
ATOM      6  C   UNL     1       3.831  -5.031  24.902  0.00  0.00    +0.165 A 
ATOM      7  C   UNL     1       4.988  -4.751  24.151  0.00  0.00    +0.054 A 
ATOM      8  C   UNL     1       6.257  -5.185  24.547  0.00  0.00    -0.023 A 
ATOM      9  C   UNL     1       6.334  -5.885  25.755  0.00  0.00    +0.054 A 
BRANCH   4  11
ATOM     10  C   UNL     1       5.681  -6.240  28.828  0.00  0.00    +0.277 C 
ATOM     11  O   UNL     1       5.332  -6.973  27.652  0.00  0.00    -0.491 OA
ENDBRANCH   4  11
BRANCH   5  12
ATOM     12  O   UNL     1       2.743  -6.017  26.748  0.00  0.00    -0.488 OA
ATOM     13  C   UNL     1       2.033  -7.228  26.548  0.00  0.00    +0.277 C 
ENDBRANCH   5  12
BRANCH   6  14
ATOM     14  O   UNL     1       2.718  -4.489  24.302  0.00  0.00    -0.491 OA
ATOM     15  C   UNL     1       1.985  -5.249  23.355  0.00  0.00    +0.277 C 
ENDBRANCH   6  14
ENDBRANCH   1   8
BRANCH   1  16
ATOM     16  C   UNL     1       7.638  -3.400  23.436  0.00  0.00    -0.086 C 
ATOM     17  C   UNL     1       7.735  -2.126  23.172  0.00  0.00    -0.060 C 
BRANCH  17  18
ATOM     18  C   UNL     1       7.895  -0.734  22.881  0.00  0.00    +0.085 A 
ATOM     19  C   UNL     1       8.851  -0.281  21.979  0.00  0.00    +0.137 A 
ATOM     20  N   UNL     1       9.742  -1.154  21.341  0.00  0.00    -0.342 N 
ATOM     21  H   UNL     1       9.239  -1.907  20.882  0.00  0.00    +0.144 HD
ATOM     22  H   UNL     1      10.282  -0.595  20.684  0.00  0.00    +0.144 HD
ATOM     23  N   UNL     1       9.024   1.017  21.685  0.00  0.00    -0.199 NA
ATOM     24  C   UNL     1       8.207   1.883  22.285  0.00  0.00    +0.215 A 
ATOM     25  N   UNL     1       8.369   3.221  21.994  0.00  0.00    -0.327 N 
ATOM     26  H   UNL     1       9.313   3.391  21.681  0.00  0.00    +0.145 HD
ATOM     27  H   UNL     1       8.030   3.777  22.767  0.00  0.00    +0.145 HD
ATOM     28  N   UNL     1       7.275   1.560  23.183  0.00  0.00    -0.219 NA
ATOM     29  C   UNL     1       7.119   0.247  23.476  0.00  0.00    +0.060 A 
ATOM     30  C   UNL     1       6.071  -0.046  24.511  0.00  0.00    +0.067 C 
ENDBRANCH  17  18
ENDBRANCH   1  16
TORSDOF 6
ENDMDL
MODEL 7
REMARK VINA RESULT:      -6.4      2.083      3.508
REMARK  Name = 
REMARK  12 active torsions:
REMARK  status: ('A' for Active; 'I' for Inactive)
REMARK    1  A    between atoms: C_1  and  O_2
REMARK    2  A    between atoms: O_2  and  C_3
REMARK    3  A    between atoms: C_5  and  C_13
REMARK    4  A    between atoms: C_7  and  O_8
REMARK    5  A    between atoms: O_8  and  C_9
REMARK    6  A    between atoms: C_10  and  O_11
REMARK    7  A    between atoms: O_11  and  C_12
REMARK    8  A    between atoms: C_13  and  C_14
REMARK    9  A    between atoms: C_13  and  C_15
REMARK   10  A    between atoms: C_13  and  C_16
REMARK   11  A    between atoms: C_17  and  C_18
REMARK   12  A    between atoms: C_19  and  C_20
REMARK                            x       y       z     vdW  Elec       q    Type
REMARK                         _______ _______ _______ _____ _____    ______ ____
ROOT
ATOM      1  C   UNL     1       7.985  -4.658  24.212  0.00  0.00    +0.052 C 
ATOM      2  C   UNL     1       7.608  -5.274  22.853  0.00  0.00    +0.029 C 
ATOM      3  C   UNL     1       9.169  -5.449  24.810  0.00  0.00    +0.029 C 
ENDROOT
BRANCH   1   8
ATOM      4  C   UNL     1       4.678  -3.555  25.852  0.00  0.00    +0.165 A 
ATOM      5  C   UNL     1       4.430  -4.578  26.793  0.00  0.00    +0.204 A 
ATOM      6  C   UNL     1       5.359  -5.636  26.888  0.00  0.00    +0.165 A 
ATOM      7  C   UNL     1       6.499  -5.654  26.062  0.00  0.00    +0.054 A 
ATOM      8  C   UNL     1       6.754  -4.651  25.122  0.00  0.00    -0.023 A 
ATOM      9  C   UNL     1       5.797  -3.637  25.008  0.00  0.00    +0.054 A 
BRANCH   4  11
ATOM     10  C   UNL     1       4.065  -1.372  26.564  0.00  0.00    +0.277 C 
ATOM     11  O   UNL     1       3.804  -2.502  25.729  0.00  0.00    -0.491 OA
ENDBRANCH   4  11
BRANCH   5  12
ATOM     12  O   UNL     1       3.361  -4.638  27.645  0.00  0.00    -0.488 OA
ATOM     13  C   UNL     1       2.149  -5.256  27.244  0.00  0.00    +0.277 C 
ENDBRANCH   5  12
BRANCH   6  14
ATOM     14  O   UNL     1       5.340  -6.734  27.715  0.00  0.00    -0.491 OA
ATOM     15  C   UNL     1       5.925  -6.657  29.005  0.00  0.00    +0.277 C 
ENDBRANCH   6  14
ENDBRANCH   1   8
BRANCH   1  16
ATOM     16  C   UNL     1       8.495  -3.246  23.971  0.00  0.00    -0.086 C 
ATOM     17  C   UNL     1       8.932  -2.035  23.764  0.00  0.00    -0.060 C 
BRANCH  17  18
ATOM     18  C   UNL     1       9.362  -0.691  23.523  0.00  0.00    +0.085 A 
ATOM     19  C   UNL     1       9.675  -0.242  22.245  0.00  0.00    +0.137 A 
ATOM     20  N   UNL     1       9.633  -1.091  21.129  0.00  0.00    -0.342 N 
ATOM     21  H   UNL     1       8.732  -1.554  21.066  0.00  0.00    +0.144 HD
ATOM     22  H   UNL     1       9.828  -0.513  20.314  0.00  0.00    +0.144 HD
ATOM     23  N   UNL     1      10.079   1.011  21.986  0.00  0.00    -0.199 NA
ATOM     24  C   UNL     1      10.150   1.845  23.023  0.00  0.00    +0.215 A 
ATOM     25  N   UNL     1      10.562   3.137  22.777  0.00  0.00    -0.327 N 
ATOM     26  H   UNL     1      11.118   3.164  21.935  0.00  0.00    +0.145 HD
ATOM     27  H   UNL     1      10.972   3.526  23.616  0.00  0.00    +0.145 HD
ATOM     28  N   UNL     1       9.899   1.514  24.291  0.00  0.00    -0.219 NA
ATOM     29  C   UNL     1       9.500   0.243  24.537  0.00  0.00    +0.060 A 
ATOM     30  C   UNL     1       9.256  -0.071  25.985  0.00  0.00    +0.067 C 
ENDBRANCH  17  18
ENDBRANCH   1  16
TORSDOF 6
ENDMDL
MODEL 8
REMARK VINA RESULT:      -6.3      2.140      3.247
REMARK  Name = 
REMARK  12 active torsions:
REMARK  status: ('A' for Active; 'I' for Inactive)
REMARK    1  A    between atoms: C_1  and  O_2
REMARK    2  A    between atoms: O_2  and  C_3
REMARK    3  A    between atoms: C_5  and  C_13
REMARK    4  A    between atoms: C_7  and  O_8
REMARK    5  A    between atoms: O_8  and  C_9
REMARK    6  A    between atoms: C_10  and  O_11
REMARK    7  A    between atoms: O_11  and  C_12
REMARK    8  A    between atoms: C_13  and  C_14
REMARK    9  A    between atoms: C_13  and  C_15
REMARK   10  A    between atoms: C_13  and  C_16
REMARK   11  A    between atoms: C_17  and  C_18
REMARK   12  A    between atoms: C_19  and  C_20
REMARK                            x       y       z     vdW  Elec       q    Type
REMARK                         _______ _______ _______ _____ _____    ______ ____
ROOT
ATOM      1  C   UNL     1       8.055  -4.669  24.330  0.00  0.00    +0.052 C 
ATOM      2  C   UNL     1       7.638  -5.296  22.988  0.00  0.00    +0.029 C 
ATOM      3  C   UNL     1       9.276  -5.436  24.885  0.00  0.00    +0.029 C 
ENDROOT
BRANCH   1   8
ATOM      4  C   UNL     1       5.648  -5.769  27.130  0.00  0.00    +0.165 A 
ATOM      5  C   UNL     1       4.649  -4.771  27.105  0.00  0.00    +0.204 A 
ATOM      6  C   UNL     1       4.770  -3.731  26.159  0.00  0.00    +0.165 A 
ATOM      7  C   UNL     1       5.860  -3.706  25.268  0.00  0.00    +0.054 A 
ATOM      8  C   UNL     1       6.859  -4.684  25.287  0.00  0.00    -0.023 A 
ATOM      9  C   UNL     1       6.749  -5.679  26.264  0.00  0.00    +0.054 A 
BRANCH   4  11
ATOM     10  C   UNL     1       6.205  -6.586  29.291  0.00  0.00    +0.277 C 
ATOM     11  O   UNL     1       5.569  -6.804  28.031  0.00  0.00    -0.491 OA
ENDBRANCH   4  11
BRANCH   5  12
ATOM     12  O   UNL     1       3.550  -4.720  27.918  0.00  0.00    -0.488 OA
ATOM     13  C   UNL     1       2.336  -5.344  27.534  0.00  0.00    +0.277 C 
ENDBRANCH   5  12
BRANCH   6  14
ATOM     14  O   UNL     1       3.938  -2.659  25.939  0.00  0.00    -0.491 OA
ATOM     15  C   UNL     1       4.187  -1.426  26.595  0.00  0.00    +0.277 C 
ENDBRANCH   6  14
ENDBRANCH   1   8
BRANCH   1  16
ATOM     16  C   UNL     1       8.528  -3.249  24.069  0.00  0.00    -0.086 C 
ATOM     17  C   UNL     1       8.935  -2.030  23.843  0.00  0.00    -0.060 C 
BRANCH  17  18
ATOM     18  C   UNL     1       9.339  -0.686  23.563  0.00  0.00    +0.085 A 
ATOM     19  C   UNL     1       9.709  -0.285  22.285  0.00  0.00    +0.137 A 
ATOM     20  N   UNL     1       9.754  -1.184  21.210  0.00  0.00    -0.342 N 
ATOM     21  H   UNL     1       8.873  -1.678  21.119  0.00  0.00    +0.144 HD
ATOM     22  H   UNL     1       9.978  -0.638  20.380  0.00  0.00    +0.144 HD
ATOM     23  N   UNL     1      10.091   0.967  21.990  0.00  0.00    -0.199 NA
ATOM     24  C   UNL     1      10.079   1.849  22.990  0.00  0.00    +0.215 A 
ATOM     25  N   UNL     1      10.466   3.141  22.707  0.00  0.00    -0.327 N 
ATOM     26  H   UNL     1      11.068   3.148  21.896  0.00  0.00    +0.145 HD
ATOM     27  H   UNL     1      10.818   3.580  23.547  0.00  0.00    +0.145 HD
ATOM     28  N   UNL     1       9.766   1.567  24.256  0.00  0.00    -0.219 NA
ATOM     29  C   UNL     1       9.392   0.297  24.539  0.00  0.00    +0.060 A 
ATOM     30  C   UNL     1       9.077   0.041  25.984  0.00  0.00    +0.067 C 
ENDBRANCH  17  18
ENDBRANCH   1  16
TORSDOF 6
ENDMDL
MODEL 9
REMARK VINA RESULT:      -6.3      2.692      4.521
REMARK  Name = 
REMARK  12 active torsions:
REMARK  status: ('A' for Active; 'I' for Inactive)
REMARK    1  A    between atoms: C_1  and  O_2
REMARK    2  A    between atoms: O_2  and  C_3
REMARK    3  A    between atoms: C_5  and  C_13
REMARK    4  A    between atoms: C_7  and  O_8
REMARK    5  A    between atoms: O_8  and  C_9
REMARK    6  A    between atoms: C_10  and  O_11
REMARK    7  A    between atoms: O_11  and  C_12
REMARK    8  A    between atoms: C_13  and  C_14
REMARK    9  A    between atoms: C_13  and  C_15
REMARK   10  A    between atoms: C_13  and  C_16
REMARK   11  A    between atoms: C_17  and  C_18
REMARK   12  A    between atoms: C_19  and  C_20
REMARK                            x       y       z     vdW  Elec       q    Type
REMARK                         _______ _______ _______ _____ _____    ______ ____
ROOT
ATOM      1  C   UNL     1       8.917  -1.287  22.972  0.00  0.00    +0.052 C 
ATOM      2  C   UNL     1       9.397  -1.103  21.521  0.00  0.00    +0.029 C 
ATOM      3  C   UNL     1      10.026  -1.996  23.780  0.00  0.00    +0.029 C 
ENDROOT
BRANCH   1   8
ATOM      4  C   UNL     1       6.130  -3.729  21.920  0.00  0.00    +0.165 A 
ATOM      5  C   UNL     1       5.144  -3.540  22.914  0.00  0.00    +0.204 A 
ATOM      6  C   UNL     1       5.402  -2.600  23.936  0.00  0.00    +0.165 A 
ATOM      7  C   UNL     1       6.610  -1.877  23.946  0.00  0.00    +0.054 A 
ATOM      8  C   UNL     1       7.596  -2.060  22.972  0.00  0.00    -0.023 A 
ATOM      9  C   UNL     1       7.345  -3.030  21.996  0.00  0.00    +0.054 A 
BRANCH   4  11
ATOM     10  C   UNL     1       6.487  -5.927  21.090  0.00  0.00    +0.277 C 
ATOM     11  O   UNL     1       5.920  -4.629  20.903  0.00  0.00    -0.491 OA
ENDBRANCH   4  11
BRANCH   5  12
ATOM     12  O   UNL     1       3.939  -4.183  22.978  0.00  0.00    -0.488 OA
ATOM     13  C   UNL     1       3.808  -5.409  23.678  0.00  0.00    +0.277 C 
ENDBRANCH   5  12
BRANCH   6  14
ATOM     14  O   UNL     1       4.610  -2.241  25.001  0.00  0.00    -0.491 OA
ATOM     15  C   UNL     1       4.951  -2.668  26.310  0.00  0.00    +0.277 C 
ENDBRANCH   6  14
ENDBRANCH   1   8
BRANCH   1  16
ATOM     16  C   UNL     1       8.747   0.087  23.598  0.00  0.00    -0.086 C 
ATOM     17  C   UNL     1       8.602   1.267  24.136  0.00  0.00    -0.060 C 
BRANCH  17  18
ATOM     18  C   UNL     1       8.490   2.575  24.705  0.00  0.00    +0.085 A 
ATOM     19  C   UNL     1       9.185   3.661  24.183  0.00  0.00    +0.137 A 
ATOM     20  N   UNL     1      10.070   3.526  23.104  0.00  0.00    -0.342 N 
ATOM     21  H   UNL     1       9.615   3.066  22.323  0.00  0.00    +0.144 HD
ATOM     22  H   UNL     1      10.389   4.463  22.868  0.00  0.00    +0.144 HD
ATOM     23  N   UNL     1       9.100   4.899  24.693  0.00  0.00    -0.199 NA
ATOM     24  C   UNL     1       8.282   5.066  25.732  0.00  0.00    +0.215 A 
ATOM     25  N   UNL     1       8.180   6.332  26.268  0.00  0.00    -0.327 N 
ATOM     26  H   UNL     1       9.015   6.860  26.059  0.00  0.00    +0.145 HD
ATOM     27  H   UNL     1       7.905   6.266  27.239  0.00  0.00    +0.145 HD
ATOM     28  N   UNL     1       7.589   4.092  26.326  0.00  0.00    -0.219 NA
ATOM     29  C   UNL     1       7.693   2.846  25.805  0.00  0.00    +0.060 A 
ATOM     30  C   UNL     1       6.908   1.793  26.533  0.00  0.00    +0.067 C 
ENDBRANCH  17  18
ENDBRANCH   1  16
TORSDOF 6
ENDMDL
