MODEL 1
REMARK VINA RESULT:      -6.8      0.000      0.000
REMARK  Name = 
REMARK  7 active torsions:
REMARK  status: ('A' for Active; 'I' for Inactive)
REMARK    1  A    between atoms: C_1  and  C_2
REMARK    2  A    between atoms: N_5  and  C_8
REMARK    3  A    between atoms: C_11  and  C_12
REMARK    4  A    between atoms: C_12  and  O_13
REMARK    5  A    between atoms: C_15  and  N_16
REMARK    6  A    between atoms: C_17  and  C_19
REMARK    7  A    between atoms: C_22  and  C_24
REMARK                            x       y       z     vdW  Elec       q    Type
REMARK                         _______ _______ _______ _____ _____    ______ ____
ROOT
ATOM      1  C   UNL     1       9.342   4.136  24.185  0.00  0.00    +0.051 A 
ATOM      2  C   UNL     1      10.395   3.260  23.820  0.00  0.00    +0.055 A 
ATOM      3  C   UNL     1      11.622   3.755  23.335  0.00  0.00    +0.031 A 
ATOM      4  C   UNL     1      11.834   5.126  23.169  0.00  0.00    -0.020 A 
ATOM      5  C   UNL     1      10.808   6.000  23.524  0.00  0.00    +0.008 A 
ATOM      6  C   UNL     1       9.593   5.514  24.027  0.00  0.00    +0.025 A 
ENDROOT
BRANCH   1  11
ATOM      7  C   UNL     1       4.610   4.656  25.685  0.00  0.00    +0.007 C 
ATOM      8  C   UNL     1       5.373   3.327  25.714  0.00  0.00    -0.011 C 
ATOM      9  C   UNL     1       6.605   3.398  26.627  0.00  0.00    +0.022 C 
ATOM     10  C   UNL     1       7.747   4.221  26.015  0.00  0.00    +0.105 C 
ATOM     11  N   UNL     1       8.107   3.645  24.698  0.00  0.00    -0.328 N 
ATOM     12  C   UNL     1       6.966   3.674  23.755  0.00  0.00    +0.105 C 
ATOM     13  C   UNL     1       5.794   2.870  24.312  0.00  0.00    +0.022 C 
ENDBRANCH   1  11
BRANCH   2  14
ATOM     14  N   UNL     1      10.192   1.861  23.840  0.00  0.00    -0.277 N 
ATOM     15  H   UNL     1      10.732   1.344  24.526  0.00  0.00    +0.155 HD
ATOM     16  C   UNL     1       9.644   1.160  22.777  0.00  0.00    +0.284 C 
ATOM     17  O   UNL     1       9.407   1.661  21.680  0.00  0.00    -0.266 OA
BRANCH  16  18
ATOM     18  C   UNL     1       9.399  -0.247  23.031  0.00  0.00    +0.191 A 
ATOM     19  O   UNL     1       8.297  -0.867  22.500  0.00  0.00    -0.440 OA
ATOM     20  C   UNL     1       8.410  -2.190  22.803  0.00  0.00    +0.205 A 
ATOM     21  C   UNL     1       9.534  -2.431  23.557  0.00  0.00    +0.061 A 
ATOM     22  C   UNL     1      10.167  -1.177  23.707  0.00  0.00    +0.056 A 
BRANCH  20  23
ATOM     23  C   UNL     1       7.414  -3.070  22.300  0.00  0.00    +0.138 C 
ATOM     24  N   UNL     1       6.583  -3.770  21.894  0.00  0.00    -0.188 NA
ENDBRANCH  20  23
ENDBRANCH  16  18
ENDBRANCH   2  14
BRANCH   4  25
ATOM     25  C   UNL     1      13.129   5.651  22.616  0.00  0.00    +0.191 C 
BRANCH  25  26
ATOM     26  O   UNL     1      14.231   4.965  23.198  0.00  0.00    -0.390 OA
ATOM     27  H   UNL     1      14.988   5.575  23.166  0.00  0.00    +0.210 HD
ENDBRANCH  25  26
ENDBRANCH   4  25
TORSDOF 6
ENDMDL
MODEL 2
REMARK VINA RESULT:      -6.7      1.133      1.313
REMARK  Name = 
REMARK  7 active torsions:
REMARK  status: ('A' for Active; 'I' for Inactive)
REMARK    1  A    between atoms: C_1  and  C_2
REMARK    2  A    between atoms: N_5  and  C_8
REMARK    3  A    between atoms: C_11  and  C_12
REMARK    4  A    between atoms: C_12  and  O_13
REMARK    5  A    between atoms: C_15  and  N_16
REMARK    6  A    between atoms: C_17  and  C_19
REMARK    7  A    between atoms: C_22  and  C_24
REMARK                            x       y       z     vdW  Elec       q    Type
REMARK                         _______ _______ _______ _____ _____    ______ ____
ROOT
ATOM      1  C   UNL     1       9.311   4.092  24.200  0.00  0.00    +0.051 A 
ATOM      2  C   UNL     1      10.359   3.228  23.794  0.00  0.00    +0.055 A 
ATOM      3  C   UNL     1      11.584   3.739  23.320  0.00  0.00    +0.031 A 
ATOM      4  C   UNL     1      11.798   5.115  23.207  0.00  0.00    -0.020 A 
ATOM      5  C   UNL     1      10.776   5.976  23.603  0.00  0.00    +0.008 A 
ATOM      6  C   UNL     1       9.564   5.473  24.094  0.00  0.00    +0.025 A 
ENDROOT
BRANCH   1  11
ATOM      7  C   UNL     1       4.547   4.538  25.618  0.00  0.00    +0.007 C 
ATOM      8  C   UNL     1       5.334   3.226  25.679  0.00  0.00    -0.011 C 
ATOM      9  C   UNL     1       6.550   3.335  26.609  0.00  0.00    +0.022 C 
ATOM     10  C   UNL     1       7.685   4.171  26.003  0.00  0.00    +0.105 C 
ATOM     11  N   UNL     1       8.078   3.583  24.701  0.00  0.00    -0.328 N 
ATOM     12  C   UNL     1       6.951   3.576  23.740  0.00  0.00    +0.105 C 
ATOM     13  C   UNL     1       5.786   2.757  24.290  0.00  0.00    +0.022 C 
ENDBRANCH   1  11
BRANCH   2  14
ATOM     14  N   UNL     1      10.153   1.830  23.760  0.00  0.00    -0.277 N 
ATOM     15  H   UNL     1      10.616   1.295  24.487  0.00  0.00    +0.155 HD
ATOM     16  C   UNL     1       9.720   1.155  22.629  0.00  0.00    +0.284 C 
ATOM     17  O   UNL     1       9.601   1.682  21.525  0.00  0.00    -0.266 OA
BRANCH  16  18
ATOM     18  C   UNL     1       9.446  -0.256  22.823  0.00  0.00    +0.191 A 
ATOM     19  O   UNL     1       9.389  -0.786  24.086  0.00  0.00    -0.440 OA
ATOM     20  C   UNL     1       8.995  -2.082  23.948  0.00  0.00    +0.205 A 
ATOM     21  C   UNL     1       8.842  -2.414  22.622  0.00  0.00    +0.061 A 
ATOM     22  C   UNL     1       9.138  -1.238  21.899  0.00  0.00    +0.056 A 
BRANCH  20  23
ATOM     23  C   UNL     1       8.792  -2.840  25.133  0.00  0.00    +0.138 C 
ATOM     24  N   UNL     1       8.625  -3.482  26.084  0.00  0.00    -0.188 NA
ENDBRANCH  20  23
ENDBRANCH  16  18
ENDBRANCH   2  14
BRANCH   4  25
ATOM     25  C   UNL     1      13.091   5.659  22.666  0.00  0.00    +0.191 C 
BRANCH  25  26
ATOM     26  O   UNL     1      14.195   4.951  23.217  0.00  0.00    -0.390 OA
ATOM     27  H   UNL     1      14.555   4.395  22.505  0.00  0.00    +0.210 HD
ENDBRANCH  25  26
ENDBRANCH   4  25
TORSDOF 6
ENDMDL
MODEL 3
REMARK VINA RESULT:      -6.4      0.728      1.381
REMARK  Name = 
REMARK  7 active torsions:
REMARK  status: ('A' for Active; 'I' for Inactive)
REMARK    1  A    between atoms: C_1  and  C_2
REMARK    2  A    between atoms: N_5  and  C_8
REMARK    3  A    between atoms: C_11  and  C_12
REMARK    4  A    between atoms: C_12  and  O_13
REMARK    5  A    between atoms: C_15  and  N_16
REMARK    6  A    between atoms: C_17  and  C_19
REMARK    7  A    between atoms: C_22  and  C_24
REMARK                            x       y       z     vdW  Elec       q    Type
REMARK                         _______ _______ _______ _____ _____    ______ ____
ROOT
ATOM      1  C   UNL     1       9.172   4.136  24.069  0.00  0.00    +0.051 A 
ATOM      2  C   UNL     1      10.252   3.253  23.817  0.00  0.00    +0.055 A 
ATOM      3  C   UNL     1      11.505   3.736  23.392  0.00  0.00    +0.031 A 
ATOM      4  C   UNL     1      11.720   5.098  23.174  0.00  0.00    -0.020 A 
ATOM      5  C   UNL     1      10.667   5.979  23.418  0.00  0.00    +0.008 A 
ATOM      6  C   UNL     1       9.425   5.507  23.861  0.00  0.00    +0.025 A 
ENDROOT
BRANCH   1  11
ATOM      7  C   UNL     1       5.723   0.593  24.752  0.00  0.00    +0.007 C 
ATOM      8  C   UNL     1       5.536   2.056  25.166  0.00  0.00    -0.011 C 
ATOM      9  C   UNL     1       5.608   3.003  23.960  0.00  0.00    +0.022 C 
ATOM     10  C   UNL     1       7.036   3.172  23.426  0.00  0.00    +0.105 C 
ATOM     11  N   UNL     1       7.908   3.659  24.521  0.00  0.00    -0.328 N 
ATOM     12  C   UNL     1       7.953   2.705  25.652  0.00  0.00    +0.105 C 
ATOM     13  C   UNL     1       6.554   2.493  26.227  0.00  0.00    +0.022 C 
ENDBRANCH   1  11
BRANCH   2  14
ATOM     14  N   UNL     1      10.056   1.855  23.891  0.00  0.00    -0.277 N 
ATOM     15  H   UNL     1      10.426   1.398  24.718  0.00  0.00    +0.155 HD
ATOM     16  C   UNL     1       9.770   1.070  22.785  0.00  0.00    +0.284 C 
ATOM     17  O   UNL     1       9.790   1.489  21.629  0.00  0.00    -0.266 OA
BRANCH  16  18
ATOM     18  C   UNL     1       9.480  -0.320  23.076  0.00  0.00    +0.191 A 
ATOM     19  O   UNL     1       8.391  -0.935  22.514  0.00  0.00    -0.440 OA
ATOM     20  C   UNL     1       8.457  -2.247  22.869  0.00  0.00    +0.205 A 
ATOM     21  C   UNL     1       9.538  -2.486  23.686  0.00  0.00    +0.061 A 
ATOM     22  C   UNL     1      10.192  -1.241  23.822  0.00  0.00    +0.056 A 
BRANCH  20  23
ATOM     23  C   UNL     1       7.465  -3.123  22.349  0.00  0.00    +0.138 C 
ATOM     24  N   UNL     1       6.672  -3.859  21.933  0.00  0.00    -0.188 NA
ENDBRANCH  20  23
ENDBRANCH  16  18
ENDBRANCH   2  14
BRANCH   4  25
ATOM     25  C   UNL     1      13.047   5.609  22.684  0.00  0.00    +0.191 C 
BRANCH  25  26
ATOM     26  O   UNL     1      14.111   4.909  23.317  0.00  0.00    -0.390 OA
ATOM     27  H   UNL     1      13.761   4.570  24.159  0.00  0.00    +0.210 HD
ENDBRANCH  25  26
ENDBRANCH   4  25
TORSDOF 6
ENDMDL
MODEL 4
REMARK VINA RESULT:      -6.1      4.260      7.372
REMARK  Name = 
REMARK  7 active torsions:
REMARK  status: ('A' for Active; 'I' for Inactive)
REMARK    1  A    between atoms: C_1  and  C_2
REMARK    2  A    between atoms: N_5  and  C_8
REMARK    3  A    between atoms: C_11  and  C_12
REMARK    4  A    between atoms: C_12  and  O_13
REMARK    5  A    between atoms: C_15  and  N_16
REMARK    6  A    between atoms: C_17  and  C_19
REMARK    7  A    between atoms: C_22  and  C_24
REMARK                            x       y       z     vdW  Elec       q    Type
REMARK                         _______ _______ _______ _____ _____    ______ ____
ROOT
ATOM      1  C   UNL     1       8.402  -2.418  22.994  0.00  0.00    +0.051 A 
ATOM      2  C   UNL     1       8.320  -1.959  24.333  0.00  0.00    +0.055 A 
ATOM      3  C   UNL     1       9.149  -0.919  24.799  0.00  0.00    +0.031 A 
ATOM      4  C   UNL     1      10.102  -0.324  23.969  0.00  0.00    -0.020 A 
ATOM      5  C   UNL     1      10.193  -0.766  22.650  0.00  0.00    +0.008 A 
ATOM      6  C   UNL     1       9.357  -1.785  22.174  0.00  0.00    +0.025 A 
ENDROOT
BRANCH   1  11
ATOM      7  C   UNL     1       5.037  -6.061  23.553  0.00  0.00    +0.007 C 
ATOM      8  C   UNL     1       5.650  -5.666  22.206  0.00  0.00    -0.011 C 
ATOM      9  C   UNL     1       7.172  -5.860  22.194  0.00  0.00    +0.022 C 
ATOM     10  C   UNL     1       7.910  -4.797  23.020  0.00  0.00    +0.105 C 
ATOM     11  N   UNL     1       7.552  -3.452  22.508  0.00  0.00    -0.328 N 
ATOM     12  C   UNL     1       6.099  -3.191  22.619  0.00  0.00    +0.105 C 
ATOM     13  C   UNL     1       5.309  -4.222  21.816  0.00  0.00    +0.022 C 
ENDBRANCH   1  11
BRANCH   2  14
ATOM     14  N   UNL     1       7.471  -2.611  25.256  0.00  0.00    -0.277 N 
ATOM     15  H   UNL     1       6.593  -2.144  25.457  0.00  0.00    +0.155 HD
ATOM     16  C   UNL     1       7.918  -3.574  26.146  0.00  0.00    +0.284 C 
ATOM     17  O   UNL     1       9.104  -3.855  26.308  0.00  0.00    -0.266 OA
BRANCH  16  18
ATOM     18  C   UNL     1       6.879  -4.219  26.926  0.00  0.00    +0.191 A 
ATOM     19  O   UNL     1       7.202  -5.151  27.878  0.00  0.00    -0.440 OA
ATOM     20  C   UNL     1       6.044  -5.474  28.517  0.00  0.00    +0.205 A 
ATOM     21  C   UNL     1       4.974  -4.807  27.969  0.00  0.00    +0.061 A 
ATOM     22  C   UNL     1       5.513  -4.003  26.941  0.00  0.00    +0.056 A 
BRANCH  20  23
ATOM     23  C   UNL     1       6.122  -6.383  29.607  0.00  0.00    +0.138 C 
ATOM     24  N   UNL     1       6.184  -7.145  30.479  0.00  0.00    -0.188 NA
ENDBRANCH  20  23
ENDBRANCH  16  18
ENDBRANCH   2  14
BRANCH   4  25
ATOM     25  C   UNL     1      11.012   0.759  24.478  0.00  0.00    +0.191 C 
BRANCH  25  26
ATOM     26  O   UNL     1      10.622   2.021  23.951  0.00  0.00    -0.390 OA
ATOM     27  H   UNL     1       9.746   2.221  24.324  0.00  0.00    +0.210 HD
ENDBRANCH  25  26
ENDBRANCH   4  25
TORSDOF 6
ENDMDL
MODEL 5
REMARK VINA RESULT:      -6.0      3.599      6.919
REMARK  Name = 
REMARK  7 active torsions:
REMARK  status: ('A' for Active; 'I' for Inactive)
REMARK    1  A    between atoms: C_1  and  C_2
REMARK    2  A    between atoms: N_5  and  C_8
REMARK    3  A    between atoms: C_11  and  C_12
REMARK    4  A    between atoms: C_12  and  O_13
REMARK    5  A    between atoms: C_15  and  N_16
REMARK    6  A    between atoms: C_17  and  C_19
REMARK    7  A    between atoms: C_22  and  C_24
REMARK                            x       y       z     vdW  Elec       q    Type
REMARK                         _______ _______ _______ _____ _____    ______ ____
ROOT
ATOM      1  C   UNL     1       7.993  -1.953  22.296  0.00  0.00    +0.051 A 
ATOM      2  C   UNL     1       7.178  -0.981  22.929  0.00  0.00    +0.055 A 
ATOM      3  C   UNL     1       7.547   0.378  22.952  0.00  0.00    +0.031 A 
ATOM      4  C   UNL     1       8.744   0.813  22.378  0.00  0.00    -0.020 A 
ATOM      5  C   UNL     1       9.556  -0.132  21.751  0.00  0.00    +0.008 A 
ATOM      6  C   UNL     1       9.183  -1.482  21.708  0.00  0.00    +0.025 A 
ENDROOT
BRANCH   1  11
ATOM      7  C   UNL     1       5.312  -5.898  23.765  0.00  0.00    +0.007 C 
ATOM      8  C   UNL     1       6.402  -5.961  22.691  0.00  0.00    -0.011 C 
ATOM      9  C   UNL     1       7.775  -5.565  23.250  0.00  0.00    +0.022 C 
ATOM     10  C   UNL     1       7.896  -4.057  23.508  0.00  0.00    +0.105 C 
ATOM     11  N   UNL     1       7.616  -3.326  22.249  0.00  0.00    -0.328 N 
ATOM     12  C   UNL     1       6.249  -3.597  21.750  0.00  0.00    +0.105 C 
ATOM     13  C   UNL     1       6.067  -5.088  21.475  0.00  0.00    +0.022 C 
ENDBRANCH   1  11
BRANCH   2  14
ATOM     14  N   UNL     1       6.024  -1.379  23.642  0.00  0.00    -0.277 N 
ATOM     15  H   UNL     1       5.137  -1.227  23.172  0.00  0.00    +0.155 HD
ATOM     16  C   UNL     1       6.011  -1.574  25.014  0.00  0.00    +0.284 C 
ATOM     17  O   UNL     1       6.954  -1.295  25.751  0.00  0.00    -0.266 OA
BRANCH  16  18
ATOM     18  C   UNL     1       4.770  -2.102  25.548  0.00  0.00    +0.191 A 
ATOM     19  O   UNL     1       3.930  -2.839  24.754  0.00  0.00    -0.440 OA
ATOM     20  C   UNL     1       2.930  -3.294  25.560  0.00  0.00    +0.205 A 
ATOM     21  C   UNL     1       3.081  -2.828  26.845  0.00  0.00    +0.061 A 
ATOM     22  C   UNL     1       4.263  -2.056  26.834  0.00  0.00    +0.056 A 
BRANCH  20  23
ATOM     23  C   UNL     1       1.955  -4.150  24.983  0.00  0.00    +0.138 C 
ATOM     24  N   UNL     1       1.139  -4.832  24.518  0.00  0.00    -0.188 NA
ENDBRANCH  20  23
ENDBRANCH  16  18
ENDBRANCH   2  14
BRANCH   4  25
ATOM     25  C   UNL     1       9.156   2.258  22.435  0.00  0.00    +0.191 C 
BRANCH  25  26
ATOM     26  O   UNL     1      10.355   2.460  21.696  0.00  0.00    -0.390 OA
ATOM     27  H   UNL     1      10.574   3.405  21.774  0.00  0.00    +0.210 HD
ENDBRANCH  25  26
ENDBRANCH   4  25
TORSDOF 6
ENDMDL
MODEL 6
REMARK VINA RESULT:      -5.9      1.604      1.920
REMARK  Name = 
REMARK  7 active torsions:
REMARK  status: ('A' for Active; 'I' for Inactive)
REMARK    1  A    between atoms: C_1  and  C_2
REMARK    2  A    between atoms: N_5  and  C_8
REMARK    3  A    between atoms: C_11  and  C_12
REMARK    4  A    between atoms: C_12  and  O_13
REMARK    5  A    between atoms: C_15  and  N_16
REMARK    6  A    between atoms: C_17  and  C_19
REMARK    7  A    between atoms: C_22  and  C_24
REMARK                            x       y       z     vdW  Elec       q    Type
REMARK                         _______ _______ _______ _____ _____    ______ ____
ROOT
ATOM      1  C   UNL     1       8.585   3.115  24.247  0.00  0.00    +0.051 A 
ATOM      2  C   UNL     1       9.671   2.241  23.992  0.00  0.00    +0.055 A 
ATOM      3  C   UNL     1      10.949   2.740  23.669  0.00  0.00    +0.031 A 
ATOM      4  C   UNL     1      11.184   4.112  23.561  0.00  0.00    -0.020 A 
ATOM      5  C   UNL     1      10.125   4.984  23.809  0.00  0.00    +0.008 A 
ATOM      6  C   UNL     1       8.857   4.494  24.151  0.00  0.00    +0.025 A 
ENDROOT
BRANCH   1  11
ATOM      7  C   UNL     1       4.062   3.513  26.320  0.00  0.00    +0.007 C 
ATOM      8  C   UNL     1       4.575   2.245  25.631  0.00  0.00    -0.011 C 
ATOM      9  C   UNL     1       5.823   1.685  26.327  0.00  0.00    +0.022 C 
ATOM     10  C   UNL     1       7.078   2.527  26.060  0.00  0.00    +0.105 C 
ATOM     11  N   UNL     1       7.296   2.620  24.596  0.00  0.00    -0.328 N 
ATOM     12  C   UNL     1       6.154   3.268  23.912  0.00  0.00    +0.105 C 
ATOM     13  C   UNL     1       4.872   2.473  24.143  0.00  0.00    +0.022 C 
ENDBRANCH   1  11
BRANCH   2  14
ATOM     14  N   UNL     1       9.463   0.843  23.956  0.00  0.00    -0.277 N 
ATOM     15  H   UNL     1       9.788   0.325  24.766  0.00  0.00    +0.155 HD
ATOM     16  C   UNL     1       9.229   0.142  22.783  0.00  0.00    +0.284 C 
ATOM     17  O   UNL     1       9.310   0.642  21.663  0.00  0.00    -0.266 OA
BRANCH  16  18
ATOM     18  C   UNL     1       8.915  -1.263  22.959  0.00  0.00    +0.191 A 
ATOM     19  O   UNL     1       9.584  -2.013  23.891  0.00  0.00    -0.440 OA
ATOM     20  C   UNL     1       8.988  -3.237  23.909  0.00  0.00    +0.205 A 
ATOM     21  C   UNL     1       7.980  -3.310  22.977  0.00  0.00    +0.061 A 
ATOM     22  C   UNL     1       7.938  -2.038  22.362  0.00  0.00    +0.056 A 
BRANCH  20  23
ATOM     23  C   UNL     1       9.460  -4.188  24.853  0.00  0.00    +0.138 C 
ATOM     24  N   UNL     1       9.860  -4.977  25.604  0.00  0.00    -0.188 NA
ENDBRANCH  20  23
ENDBRANCH  16  18
ENDBRANCH   2  14
BRANCH   4  25
ATOM     25  C   UNL     1      12.538   4.642  23.180  0.00  0.00    +0.191 C 
BRANCH  25  26
ATOM     26  O   UNL     1      12.465   5.348  21.946  0.00  0.00    -0.390 OA
ATOM     27  H   UNL     1      11.553   5.250  21.623  0.00  0.00    +0.210 HD
ENDBRANCH  25  26
ENDBRANCH   4  25
TORSDOF 6
ENDMDL
MODEL 7
REMARK VINA RESULT:      -5.8      3.313      4.170
REMARK  Name = 
REMARK  7 active torsions:
REMARK  status: ('A' for Active; 'I' for Inactive)
REMARK    1  A    between atoms: C_1  and  C_2
REMARK    2  A    between atoms: N_5  and  C_8
REMARK    3  A    between atoms: C_11  and  C_12
REMARK    4  A    between atoms: C_12  and  O_13
REMARK    5  A    between atoms: C_15  and  N_16
REMARK    6  A    between atoms: C_17  and  C_19
REMARK    7  A    between atoms: C_22  and  C_24
REMARK                            x       y       z     vdW  Elec       q    Type
REMARK                         _______ _______ _______ _____ _____    ______ ____
ROOT
ATOM      1  C   UNL     1       7.814   1.296  25.838  0.00  0.00    +0.051 A 
ATOM      2  C   UNL     1       8.906   0.549  25.327  0.00  0.00    +0.055 A 
ATOM      3  C   UNL     1       9.850   1.137  24.462  0.00  0.00    +0.031 A 
ATOM      4  C   UNL     1       9.729   2.467  24.053  0.00  0.00    -0.020 A 
ATOM      5  C   UNL     1       8.661   3.214  24.548  0.00  0.00    +0.008 A 
ATOM      6  C   UNL     1       7.730   2.641  25.425  0.00  0.00    +0.025 A 
ENDROOT
BRANCH   1  11
ATOM      7  C   UNL     1       3.445   1.176  28.247  0.00  0.00    +0.007 C 
ATOM      8  C   UNL     1       4.538   0.116  28.411  0.00  0.00    -0.011 C 
ATOM      9  C   UNL     1       5.838   0.719  28.962  0.00  0.00    +0.022 C 
ATOM     10  C   UNL     1       6.588   1.558  27.919  0.00  0.00    +0.105 C 
ATOM     11  N   UNL     1       6.868   0.717  26.731  0.00  0.00    -0.328 N 
ATOM     12  C   UNL     1       5.621   0.218  26.106  0.00  0.00    +0.105 C 
ATOM     13  C   UNL     1       4.827  -0.626  27.100  0.00  0.00    +0.022 C 
ENDBRANCH   1  11
BRANCH   2  14
ATOM     14  N   UNL     1       9.006  -0.834  25.597  0.00  0.00    -0.277 N 
ATOM     15  H   UNL     1       9.748  -1.110  26.233  0.00  0.00    +0.155 HD
ATOM     16  C   UNL     1       8.451  -1.808  24.781  0.00  0.00    +0.284 C 
ATOM     17  O   UNL     1       7.937  -1.571  23.690  0.00  0.00    -0.266 OA
BRANCH  16  18
ATOM     18  C   UNL     1       8.550  -3.163  25.287  0.00  0.00    +0.191 A 
ATOM     19  O   UNL     1       7.809  -3.556  26.372  0.00  0.00    -0.440 OA
ATOM     20  C   UNL     1       8.019  -4.893  26.524  0.00  0.00    +0.205 A 
ATOM     21  C   UNL     1       8.915  -5.363  25.592  0.00  0.00    +0.061 A 
ATOM     22  C   UNL     1       9.260  -4.246  24.799  0.00  0.00    +0.056 A 
BRANCH  20  23
ATOM     23  C   UNL     1       7.301  -5.562  27.552  0.00  0.00    +0.138 C 
ATOM     24  N   UNL     1       6.730  -6.129  28.386  0.00  0.00    -0.188 NA
ENDBRANCH  20  23
ENDBRANCH  16  18
ENDBRANCH   2  14
BRANCH   4  25
ATOM     25  C   UNL     1      10.716   3.082  23.101  0.00  0.00    +0.191 C 
BRANCH  25  26
ATOM     26  O   UNL     1      10.527   2.565  21.789  0.00  0.00    -0.390 OA
ATOM     27  H   UNL     1      10.379   1.608  21.885  0.00  0.00    +0.210 HD
ENDBRANCH  25  26
ENDBRANCH   4  25
TORSDOF 6
ENDMDL
MODEL 8
REMARK VINA RESULT:      -5.8      3.922      8.039
REMARK  Name = 
REMARK  7 active torsions:
REMARK  status: ('A' for Active; 'I' for Inactive)
REMARK    1  A    between atoms: C_1  and  C_2
REMARK    2  A    between atoms: N_5  and  C_8
REMARK    3  A    between atoms: C_11  and  C_12
REMARK    4  A    between atoms: C_12  and  O_13
REMARK    5  A    between atoms: C_15  and  N_16
REMARK    6  A    between atoms: C_17  and  C_19
REMARK    7  A    between atoms: C_22  and  C_24
REMARK                            x       y       z     vdW  Elec       q    Type
REMARK                         _______ _______ _______ _____ _____    ______ ____
ROOT
ATOM      1  C   UNL     1       7.740  -2.199  23.793  0.00  0.00    +0.051 A 
ATOM      2  C   UNL     1       6.922  -2.785  24.792  0.00  0.00    +0.055 A 
ATOM      3  C   UNL     1       6.264  -4.011  24.569  0.00  0.00    +0.031 A 
ATOM      4  C   UNL     1       6.370  -4.678  23.347  0.00  0.00    -0.020 A 
ATOM      5  C   UNL     1       7.172  -4.114  22.356  0.00  0.00    +0.008 A 
ATOM      6  C   UNL     1       7.845  -2.905  22.579  0.00  0.00    +0.025 A 
ENDROOT
BRANCH   1  11
ATOM      7  C   UNL     1      10.204   1.875  22.296  0.00  0.00    +0.007 C 
ATOM      8  C   UNL     1       9.923   1.541  23.764  0.00  0.00    -0.011 C 
ATOM      9  C   UNL     1      10.573   0.214  24.179  0.00  0.00    +0.022 C 
ATOM     10  C   UNL     1       9.848  -1.008  23.598  0.00  0.00    +0.105 C 
ATOM     11  N   UNL     1       8.427  -0.972  24.018  0.00  0.00    -0.328 N 
ATOM     12  C   UNL     1       7.741   0.245  23.526  0.00  0.00    +0.105 C 
ATOM     13  C   UNL     1       8.421   1.498  24.071  0.00  0.00    +0.022 C 
ENDBRANCH   1  11
BRANCH   2  14
ATOM     14  N   UNL     1       6.669  -2.092  25.998  0.00  0.00    -0.277 N 
ATOM     15  H   UNL     1       7.093  -2.485  26.832  0.00  0.00    +0.155 HD
ATOM     16  C   UNL     1       5.616  -1.205  26.156  0.00  0.00    +0.284 C 
ATOM     17  O   UNL     1       4.734  -1.038  25.316  0.00  0.00    -0.266 OA
BRANCH  16  18
ATOM     18  C   UNL     1       5.593  -0.498  27.422  0.00  0.00    +0.191 A 
ATOM     19  O   UNL     1       6.556   0.432  27.715  0.00  0.00    -0.440 OA
ATOM     20  C   UNL     1       6.197   1.006  28.897  0.00  0.00    +0.205 A 
ATOM     21  C   UNL     1       5.050   0.435  29.396  0.00  0.00    +0.061 A 
ATOM     22  C   UNL     1       4.665  -0.538  28.447  0.00  0.00    +0.056 A 
BRANCH  20  23
ATOM     23  C   UNL     1       7.008   2.063  29.392  0.00  0.00    +0.138 C 
ATOM     24  N   UNL     1       7.679   2.910  29.813  0.00  0.00    -0.188 NA
ENDBRANCH  20  23
ENDBRANCH  16  18
ENDBRANCH   2  14
BRANCH   4  25
ATOM     25  C   UNL     1       5.638  -5.967  23.098  0.00  0.00    +0.191 C 
BRANCH  25  26
ATOM     26  O   UNL     1       5.236  -6.052  21.736  0.00  0.00    -0.390 OA
ATOM     27  H   UNL     1       5.381  -5.173  21.346  0.00  0.00    +0.210 HD
ENDBRANCH  25  26
ENDBRANCH   4  25
TORSDOF 6
ENDMDL
MODEL 9
REMARK VINA RESULT:      -5.7      3.915      6.937
REMARK  Name = 
REMARK  7 active torsions:
REMARK  status: ('A' for Active; 'I' for Inactive)
REMARK    1  A    between atoms: C_1  and  C_2
REMARK    2  A    between atoms: N_5  and  C_8
REMARK    3  A    between atoms: C_11  and  C_12
REMARK    4  A    between atoms: C_12  and  O_13
REMARK    5  A    between atoms: C_15  and  N_16
REMARK    6  A    between atoms: C_17  and  C_19
REMARK    7  A    between atoms: C_22  and  C_24
REMARK                            x       y       z     vdW  Elec       q    Type
REMARK                         _______ _______ _______ _____ _____    ______ ____
ROOT
ATOM      1  C   UNL     1       7.842  -1.601  23.134  0.00  0.00    +0.051 A 
ATOM      2  C   UNL     1       7.565  -0.512  23.999  0.00  0.00    +0.055 A 
ATOM      3  C   UNL     1       8.290   0.692  23.911  0.00  0.00    +0.031 A 
ATOM      4  C   UNL     1       9.327   0.847  22.988  0.00  0.00    -0.020 A 
ATOM      5  C   UNL     1       9.611  -0.216  22.131  0.00  0.00    +0.008 A 
ATOM      6  C   UNL     1       8.878  -1.409  22.200  0.00  0.00    +0.025 A 
ENDROOT
BRANCH   1  11
ATOM      7  C   UNL     1       6.158  -5.913  21.268  0.00  0.00    +0.007 C 
ATOM      8  C   UNL     1       5.797  -5.389  22.661  0.00  0.00    -0.011 C 
ATOM      9  C   UNL     1       5.060  -4.044  22.589  0.00  0.00    +0.022 C 
ATOM     10  C   UNL     1       5.990  -2.880  22.219  0.00  0.00    +0.105 C 
ATOM     11  N   UNL     1       7.098  -2.814  23.202  0.00  0.00    -0.328 N 
ATOM     12  C   UNL     1       7.901  -4.058  23.206  0.00  0.00    +0.105 C 
ATOM     13  C   UNL     1       7.027  -5.257  23.567  0.00  0.00    +0.022 C 
ENDBRANCH   1  11
BRANCH   2  14
ATOM     14  N   UNL     1       6.619  -0.656  25.040  0.00  0.00    -0.277 N 
ATOM     15  H   UNL     1       5.824  -0.026  25.007  0.00  0.00    +0.155 HD
ATOM     16  C   UNL     1       6.904  -1.286  26.241  0.00  0.00    +0.284 C 
ATOM     17  O   UNL     1       8.030  -1.658  26.565  0.00  0.00    -0.266 OA
BRANCH  16  18
ATOM     18  C   UNL     1       5.773  -1.447  27.134  0.00  0.00    +0.191 A 
ATOM     19  O   UNL     1       5.312  -2.697  27.453  0.00  0.00    -0.440 OA
ATOM     20  C   UNL     1       4.342  -2.528  28.394  0.00  0.00    +0.205 A 
ATOM     21  C   UNL     1       4.135  -1.194  28.656  0.00  0.00    +0.061 A 
ATOM     22  C   UNL     1       5.054  -0.499  27.840  0.00  0.00    +0.056 A 
BRANCH  20  23
ATOM     23  C   UNL     1       3.746  -3.694  28.945  0.00  0.00    +0.138 C 
ATOM     24  N   UNL     1       3.246  -4.650  29.372  0.00  0.00    -0.188 NA
ENDBRANCH  20  23
ENDBRANCH  16  18
ENDBRANCH   2  14
BRANCH   4  25
ATOM     25  C   UNL     1      10.126   2.119  22.920  0.00  0.00    +0.191 C 
BRANCH  25  26
ATOM     26  O   UNL     1      10.443   2.432  21.569  0.00  0.00    -0.390 OA
ATOM     27  H   UNL     1      11.400   2.289  21.467  0.00  0.00    +0.210 HD
ENDBRANCH  25  26
ENDBRANCH   4  25
TORSDOF 6
ENDMDL
