MODEL 1
REMARK VINA RESULT:      -5.5      0.000      0.000
REMARK  Name = 
REMARK  10 active torsions:
REMARK  status: ('A' for Active; 'I' for Inactive)
REMARK    1  A    between atoms: C_1  and  C_2
REMARK    2  A    between atoms: C_2  and  C_3
REMARK    3  A    between atoms: C_3  and  C_4
REMARK    4  A    between atoms: C_4  and  C_5
REMARK    5  A    between atoms: C_5  and  C_6
REMARK    6  A    between atoms: C_6  and  C_7
REMARK    7  A    between atoms: C_7  and  O_8
REMARK    8  A    between atoms: C_7  and  C_9
REMARK    9  A    between atoms: C_7  and  C_15
REMARK   10  A    between atoms: C_9  and  N_10
REMARK                            x       y       z     vdW  Elec       q    Type
REMARK                         _______ _______ _______ _____ _____    ______ ____
ROOT
ATOM      1  C   UNL     1       8.831  -2.876  23.677  0.00  0.00    +0.110 C 
ENDROOT
BRANCH   1   2
ATOM      2  C   UNL     1       8.343  -1.870  24.753  0.00  0.00    +0.004 A 
ATOM      3  C   UNL     1       7.127  -1.154  24.670  0.00  0.00    +0.048 A 
ATOM      4 CL   UNL     1       6.020  -1.339  23.352  0.00  0.00    -0.083 Cl
ATOM      5  C   UNL     1       6.719  -0.272  25.685  0.00  0.00    +0.040 A 
ATOM      6  C   UNL     1       7.499  -0.102  26.820  0.00  0.00    +0.042 A 
ATOM      7 CL   UNL     1       6.985   0.950  28.076  0.00  0.00    -0.083 Cl
ATOM      8  C   UNL     1       8.692  -0.794  26.948  0.00  0.00    +0.020 A 
ATOM      9  C   UNL     1       9.108  -1.652  25.927  0.00  0.00    +0.009 A 
ENDBRANCH   1   2
BRANCH   1  10
ATOM     10  O   UNL     1      10.183  -3.249  24.020  0.00  0.00    -0.382 OA
ATOM     11  H   UNL     1      10.246  -3.307  24.991  0.00  0.00    +0.211 HD
ENDBRANCH   1  10
BRANCH   1  12
ATOM     12  C   UNL     1       8.951  -2.210  22.273  0.00  0.00    +0.041 C 
BRANCH  12  13
ATOM     13  C   UNL     1      10.005  -1.114  22.099  0.00  0.00    +0.003 C 
BRANCH  13  14
ATOM     14  C   UNL     1       9.347   0.142  21.514  0.00  0.00    +0.000 C 
BRANCH  14  15
ATOM     15  C   UNL     1       9.960   1.405  22.108  0.00  0.00    -0.000 C 
BRANCH  15  17
ATOM     16  C   UNL     1       9.403   2.045  24.462  0.00  0.00    +0.004 C 
ATOM     17  C   UNL     1      10.324   1.222  23.577  0.00  0.00    -0.003 C 
ENDBRANCH  15  17
ENDBRANCH  14  15
ENDBRANCH  13  14
ENDBRANCH  12  13
ENDBRANCH   1  12
BRANCH   1  18
ATOM     18  C   UNL     1       7.995  -4.188  23.594  0.00  0.00    +0.162 C 
BRANCH  18  19
ATOM     19  N   UNL     1       7.575  -4.753  24.855  0.00  0.00    -0.334 N 
ATOM     20  C   UNL     1       8.387  -5.311  25.801  0.00  0.00    +0.199 A 
ATOM     21  N   UNL     1       7.703  -5.686  26.858  0.00  0.00    -0.244 NA
ATOM     22  C   UNL     1       6.410  -5.310  26.605  0.00  0.00    +0.130 A 
ATOM     23  C   UNL     1       6.311  -4.708  25.374  0.00  0.00    +0.107 A 
ENDBRANCH  18  19
ENDBRANCH   1  18
TORSDOF 9
ENDMDL
MODEL 2
REMARK VINA RESULT:      -5.3      4.216      6.789
REMARK  Name = 
REMARK  10 active torsions:
REMARK  status: ('A' for Active; 'I' for Inactive)
REMARK    1  A    between atoms: C_1  and  C_2
REMARK    2  A    between atoms: C_2  and  C_3
REMARK    3  A    between atoms: C_3  and  C_4
REMARK    4  A    between atoms: C_4  and  C_5
REMARK    5  A    between atoms: C_5  and  C_6
REMARK    6  A    between atoms: C_6  and  C_7
REMARK    7  A    between atoms: C_7  and  O_8
REMARK    8  A    between atoms: C_7  and  C_9
REMARK    9  A    between atoms: C_7  and  C_15
REMARK   10  A    between atoms: C_9  and  N_10
REMARK                            x       y       z     vdW  Elec       q    Type
REMARK                         _______ _______ _______ _____ _____    ______ ____
ROOT
ATOM      1  C   UNL     1       9.779   1.788  22.729  0.00  0.00    +0.110 C 
ENDROOT
BRANCH   1   2
ATOM      2  C   UNL     1       8.268   2.041  22.983  0.00  0.00    +0.004 A 
ATOM      3  C   UNL     1       7.583   1.624  24.146  0.00  0.00    +0.048 A 
ATOM      4 CL   UNL     1       8.367   0.793  25.447  0.00  0.00    -0.083 Cl
ATOM      5  C   UNL     1       6.218   1.899  24.337  0.00  0.00    +0.040 A 
ATOM      6  C   UNL     1       5.510   2.621  23.387  0.00  0.00    +0.042 A 
ATOM      7 CL   UNL     1       3.851   2.987  23.635  0.00  0.00    -0.083 Cl
ATOM      8  C   UNL     1       6.146   3.060  22.238  0.00  0.00    +0.020 A 
ATOM      9  C   UNL     1       7.497   2.764  22.038  0.00  0.00    +0.009 A 
ENDBRANCH   1   2
BRANCH   1  10
ATOM     10  O   UNL     1      10.098   2.353  21.440  0.00  0.00    -0.382 OA
ATOM     11  H   UNL     1      10.951   1.983  21.148  0.00  0.00    +0.211 HD
ENDBRANCH   1  10
BRANCH   1  12
ATOM     12  C   UNL     1      10.096   0.269  22.584  0.00  0.00    +0.041 C 
BRANCH  12  13
ATOM     13  C   UNL     1       9.374  -0.500  21.475  0.00  0.00    +0.003 C 
BRANCH  13  14
ATOM     14  C   UNL     1       8.939  -1.873  22.001  0.00  0.00    +0.000 C 
BRANCH  14  15
ATOM     15  C   UNL     1       7.611  -1.777  22.744  0.00  0.00    -0.000 C 
BRANCH  15  17
ATOM     16  C   UNL     1       9.088  -2.924  24.406  0.00  0.00    +0.004 C 
ATOM     17  C   UNL     1       7.674  -2.456  24.107  0.00  0.00    -0.003 C 
ENDBRANCH  15  17
ENDBRANCH  14  15
ENDBRANCH  13  14
ENDBRANCH  12  13
ENDBRANCH   1  12
BRANCH   1  18
ATOM     18  C   UNL     1      10.727   2.451  23.773  0.00  0.00    +0.162 C 
BRANCH  18  19
ATOM     19  N   UNL     1      10.957   3.867  23.612  0.00  0.00    -0.334 N 
ATOM     20  C   UNL     1      10.065   4.866  23.879  0.00  0.00    +0.199 A 
ATOM     21  N   UNL     1      10.597   6.050  23.676  0.00  0.00    -0.244 NA
ATOM     22  C   UNL     1      11.896   5.806  23.314  0.00  0.00    +0.130 A 
ATOM     23  C   UNL     1      12.148   4.455  23.289  0.00  0.00    +0.107 A 
ENDBRANCH  18  19
ENDBRANCH   1  18
TORSDOF 9
ENDMDL
MODEL 3
REMARK VINA RESULT:      -5.3      2.348      4.533
REMARK  Name = 
REMARK  10 active torsions:
REMARK  status: ('A' for Active; 'I' for Inactive)
REMARK    1  A    between atoms: C_1  and  C_2
REMARK    2  A    between atoms: C_2  and  C_3
REMARK    3  A    between atoms: C_3  and  C_4
REMARK    4  A    between atoms: C_4  and  C_5
REMARK    5  A    between atoms: C_5  and  C_6
REMARK    6  A    between atoms: C_6  and  C_7
REMARK    7  A    between atoms: C_7  and  O_8
REMARK    8  A    between atoms: C_7  and  C_9
REMARK    9  A    between atoms: C_7  and  C_15
REMARK   10  A    between atoms: C_9  and  N_10
REMARK                            x       y       z     vdW  Elec       q    Type
REMARK                         _______ _______ _______ _____ _____    ______ ____
ROOT
ATOM      1  C   UNL     1       8.664  -1.880  23.403  0.00  0.00    +0.110 C 
ENDROOT
BRANCH   1   2
ATOM      2  C   UNL     1       9.239  -0.439  23.411  0.00  0.00    +0.004 A 
ATOM      3  C   UNL     1       9.501   0.300  24.586  0.00  0.00    +0.048 A 
ATOM      4 CL   UNL     1       9.228  -0.336  26.172  0.00  0.00    -0.083 Cl
ATOM      5  C   UNL     1      10.045   1.595  24.538  0.00  0.00    +0.040 A 
ATOM      6  C   UNL     1      10.367   2.175  23.319  0.00  0.00    +0.042 A 
ATOM      7 CL   UNL     1      11.064   3.743  23.260  0.00  0.00    -0.083 Cl
ATOM      8  C   UNL     1      10.139   1.480  22.143  0.00  0.00    +0.020 A 
ATOM      9  C   UNL     1       9.575   0.202  22.191  0.00  0.00    +0.009 A 
ENDBRANCH   1   2
BRANCH   1  10
ATOM     10  O   UNL     1       8.565  -2.296  22.024  0.00  0.00    -0.382 OA
ATOM     11  H   UNL     1       8.506  -3.268  22.003  0.00  0.00    +0.211 HD
ENDBRANCH   1  10
BRANCH   1  12
ATOM     12  C   UNL     1       7.198  -1.923  23.934  0.00  0.00    +0.041 C 
BRANCH  12  13
ATOM     13  C   UNL     1       6.108  -2.369  22.958  0.00  0.00    +0.003 C 
BRANCH  13  14
ATOM     14  C   UNL     1       5.178  -3.373  23.651  0.00  0.00    +0.000 C 
BRANCH  14  15
ATOM     15  C   UNL     1       5.105  -4.679  22.868  0.00  0.00    -0.000 C 
BRANCH  15  17
ATOM     16  C   UNL     1       6.794  -5.952  21.531  0.00  0.00    +0.004 C 
ATOM     17  C   UNL     1       6.009  -4.655  21.641  0.00  0.00    -0.003 C 
ENDBRANCH  15  17
ENDBRANCH  14  15
ENDBRANCH  13  14
ENDBRANCH  12  13
ENDBRANCH   1  12
BRANCH   1  18
ATOM     18  C   UNL     1       9.547  -2.930  24.142  0.00  0.00    +0.162 C 
BRANCH  18  19
ATOM     19  N   UNL     1       8.848  -3.845  25.013  0.00  0.00    -0.334 N 
ATOM     20  C   UNL     1       8.394  -5.090  24.681  0.00  0.00    +0.199 A 
ATOM     21  N   UNL     1       7.845  -5.690  25.712  0.00  0.00    -0.244 NA
ATOM     22  C   UNL     1       7.996  -4.821  26.760  0.00  0.00    +0.130 A 
ATOM     23  C   UNL     1       8.637  -3.675  26.353  0.00  0.00    +0.107 A 
ENDBRANCH  18  19
ENDBRANCH   1  18
TORSDOF 9
ENDMDL
MODEL 4
REMARK VINA RESULT:      -5.3      2.308      4.114
REMARK  Name = 
REMARK  10 active torsions:
REMARK  status: ('A' for Active; 'I' for Inactive)
REMARK    1  A    between atoms: C_1  and  C_2
REMARK    2  A    between atoms: C_2  and  C_3
REMARK    3  A    between atoms: C_3  and  C_4
REMARK    4  A    between atoms: C_4  and  C_5
REMARK    5  A    between atoms: C_5  and  C_6
REMARK    6  A    between atoms: C_6  and  C_7
REMARK    7  A    between atoms: C_7  and  O_8
REMARK    8  A    between atoms: C_7  and  C_9
REMARK    9  A    between atoms: C_7  and  C_15
REMARK   10  A    between atoms: C_9  and  N_10
REMARK                            x       y       z     vdW  Elec       q    Type
REMARK                         _______ _______ _______ _____ _____    ______ ____
ROOT
ATOM      1  C   UNL     1       6.847  -1.500  25.152  0.00  0.00    +0.110 C 
ENDROOT
BRANCH   1   2
ATOM      2  C   UNL     1       6.707  -2.554  24.021  0.00  0.00    +0.004 A 
ATOM      3  C   UNL     1       7.803  -3.138  23.346  0.00  0.00    +0.048 A 
ATOM      4 CL   UNL     1       9.447  -2.755  23.727  0.00  0.00    -0.083 Cl
ATOM      5  C   UNL     1       7.622  -4.106  22.344  0.00  0.00    +0.040 A 
ATOM      6  C   UNL     1       6.346  -4.537  22.010  0.00  0.00    +0.042 A 
ATOM      7 CL   UNL     1       6.125  -5.746  20.810  0.00  0.00    -0.083 Cl
ATOM      8  C   UNL     1       5.245  -4.001  22.655  0.00  0.00    +0.020 A 
ATOM      9  C   UNL     1       5.425  -3.019  23.634  0.00  0.00    +0.009 A 
ENDBRANCH   1   2
BRANCH   1  10
ATOM     10  O   UNL     1       5.514  -1.105  25.538  0.00  0.00    -0.382 OA
ATOM     11  H   UNL     1       5.192  -1.734  26.209  0.00  0.00    +0.211 HD
ENDBRANCH   1  10
BRANCH   1  12
ATOM     12  C   UNL     1       7.515  -0.187  24.642  0.00  0.00    +0.041 C 
BRANCH  12  13
ATOM     13  C   UNL     1       8.741   0.322  25.402  0.00  0.00    +0.003 C 
BRANCH  13  14
ATOM     14  C   UNL     1       9.444   1.406  24.575  0.00  0.00    +0.000 C 
BRANCH  14  15
ATOM     15  C   UNL     1      10.376   0.784  23.541  0.00  0.00    -0.000 C 
BRANCH  15  17
ATOM     16  C   UNL     1       9.364   0.042  21.375  0.00  0.00    +0.004 C 
ATOM     17  C   UNL     1      10.006   1.200  22.121  0.00  0.00    -0.003 C 
ENDBRANCH  15  17
ENDBRANCH  14  15
ENDBRANCH  13  14
ENDBRANCH  12  13
ENDBRANCH   1  12
BRANCH   1  18
ATOM     18  C   UNL     1       7.566  -2.021  26.433  0.00  0.00    +0.162 C 
BRANCH  18  19
ATOM     19  N   UNL     1       7.315  -3.399  26.784  0.00  0.00    -0.334 N 
ATOM     20  C   UNL     1       8.225  -4.417  26.763  0.00  0.00    +0.199 A 
ATOM     21  N   UNL     1       7.695  -5.542  27.188  0.00  0.00    -0.244 NA
ATOM     22  C   UNL     1       6.410  -5.225  27.544  0.00  0.00    +0.130 A 
ATOM     23  C   UNL     1       6.159  -3.892  27.321  0.00  0.00    +0.107 A 
ENDBRANCH  18  19
ENDBRANCH   1  18
TORSDOF 9
ENDMDL
MODEL 5
REMARK VINA RESULT:      -5.3      2.246      3.314
REMARK  Name = 
REMARK  10 active torsions:
REMARK  status: ('A' for Active; 'I' for Inactive)
REMARK    1  A    between atoms: C_1  and  C_2
REMARK    2  A    between atoms: C_2  and  C_3
REMARK    3  A    between atoms: C_3  and  C_4
REMARK    4  A    between atoms: C_4  and  C_5
REMARK    5  A    between atoms: C_5  and  C_6
REMARK    6  A    between atoms: C_6  and  C_7
REMARK    7  A    between atoms: C_7  and  O_8
REMARK    8  A    between atoms: C_7  and  C_9
REMARK    9  A    between atoms: C_7  and  C_15
REMARK   10  A    between atoms: C_9  and  N_10
REMARK                            x       y       z     vdW  Elec       q    Type
REMARK                         _______ _______ _______ _____ _____    ______ ____
ROOT
ATOM      1  C   UNL     1       8.934  -2.337  24.022  0.00  0.00    +0.110 C 
ENDROOT
BRANCH   1   2
ATOM      2  C   UNL     1       8.187  -3.077  25.165  0.00  0.00    +0.004 A 
ATOM      3  C   UNL     1       7.068  -2.549  25.847  0.00  0.00    +0.048 A 
ATOM      4 CL   UNL     1       6.379  -1.008  25.464  0.00  0.00    -0.083 Cl
ATOM      5  C   UNL     1       6.413  -3.271  26.859  0.00  0.00    +0.040 A 
ATOM      6  C   UNL     1       6.840  -4.547  27.198  0.00  0.00    +0.042 A 
ATOM      7 CL   UNL     1       6.020  -5.443  28.411  0.00  0.00    -0.083 Cl
ATOM      8  C   UNL     1       7.925  -5.107  26.545  0.00  0.00    +0.020 A 
ATOM      9  C   UNL     1       8.591  -4.378  25.556  0.00  0.00    +0.009 A 
ENDBRANCH   1   2
BRANCH   1  10
ATOM     10  O   UNL     1      10.139  -3.082  23.745  0.00  0.00    -0.382 OA
ATOM     11  H   UNL     1      10.822  -2.804  24.382  0.00  0.00    +0.211 HD
ENDBRANCH   1  10
BRANCH   1  12
ATOM     12  C   UNL     1       9.434  -0.931  24.472  0.00  0.00    +0.041 C 
BRANCH  12  13
ATOM     13  C   UNL     1      10.473  -0.237  23.589  0.00  0.00    +0.003 C 
BRANCH  13  14
ATOM     14  C   UNL     1      10.198   1.272  23.562  0.00  0.00    +0.000 C 
BRANCH  14  15
ATOM     15  C   UNL     1      10.037   1.771  22.130  0.00  0.00    -0.000 C 
BRANCH  15  17
ATOM     16  C   UNL     1       7.542   1.579  22.121  0.00  0.00    +0.004 C 
ATOM     17  C   UNL     1       8.830   1.142  21.443  0.00  0.00    -0.003 C 
ENDBRANCH  15  17
ENDBRANCH  14  15
ENDBRANCH  13  14
ENDBRANCH  12  13
ENDBRANCH   1  12
BRANCH   1  18
ATOM     18  C   UNL     1       8.133  -2.237  22.689  0.00  0.00    +0.162 C 
BRANCH  18  19
ATOM     19  N   UNL     1       7.078  -3.205  22.509  0.00  0.00    -0.334 N 
ATOM     20  C   UNL     1       5.738  -2.944  22.474  0.00  0.00    +0.199 A 
ATOM     21  N   UNL     1       5.043  -4.035  22.244  0.00  0.00    -0.244 NA
ATOM     22  C   UNL     1       5.973  -5.028  22.075  0.00  0.00    +0.130 A 
ATOM     23  C   UNL     1       7.246  -4.530  22.214  0.00  0.00    +0.107 A 
ENDBRANCH  18  19
ENDBRANCH   1  18
TORSDOF 9
ENDMDL
MODEL 6
REMARK VINA RESULT:      -5.2      2.953      6.493
REMARK  Name = 
REMARK  10 active torsions:
REMARK  status: ('A' for Active; 'I' for Inactive)
REMARK    1  A    between atoms: C_1  and  C_2
REMARK    2  A    between atoms: C_2  and  C_3
REMARK    3  A    between atoms: C_3  and  C_4
REMARK    4  A    between atoms: C_4  and  C_5
REMARK    5  A    between atoms: C_5  and  C_6
REMARK    6  A    between atoms: C_6  and  C_7
REMARK    7  A    between atoms: C_7  and  O_8
REMARK    8  A    between atoms: C_7  and  C_9
REMARK    9  A    between atoms: C_7  and  C_15
REMARK   10  A    between atoms: C_9  and  N_10
REMARK                            x       y       z     vdW  Elec       q    Type
REMARK                         _______ _______ _______ _____ _____    ______ ____
ROOT
ATOM      1  C   UNL     1       8.378  -1.700  24.655  0.00  0.00    +0.110 C 
ENDROOT
BRANCH   1   2
ATOM      2  C   UNL     1       7.824  -2.808  23.720  0.00  0.00    +0.004 A 
ATOM      3  C   UNL     1       8.210  -4.165  23.791  0.00  0.00    +0.048 A 
ATOM      4 CL   UNL     1       9.341  -4.757  24.959  0.00  0.00    -0.083 Cl
ATOM      5  C   UNL     1       7.659  -5.134  22.935  0.00  0.00    +0.040 A 
ATOM      6  C   UNL     1       6.691  -4.780  22.007  0.00  0.00    +0.042 A 
ATOM      7 CL   UNL     1       5.992  -5.969  20.984  0.00  0.00    -0.083 Cl
ATOM      8  C   UNL     1       6.275  -3.462  21.913  0.00  0.00    +0.020 A 
ATOM      9  C   UNL     1       6.841  -2.495  22.748  0.00  0.00    +0.009 A 
ENDBRANCH   1   2
BRANCH   1  10
ATOM     10  O   UNL     1       9.816  -1.708  24.527  0.00  0.00    -0.382 OA
ATOM     11  H   UNL     1      10.067  -1.046  23.858  0.00  0.00    +0.211 HD
ENDBRANCH   1  10
BRANCH   1  12
ATOM     12  C   UNL     1       8.115  -2.023  26.158  0.00  0.00    +0.041 C 
BRANCH  12  13
ATOM     13  C   UNL     1       6.660  -2.196  26.597  0.00  0.00    +0.003 C 
BRANCH  13  14
ATOM     14  C   UNL     1       6.424  -3.648  27.031  0.00  0.00    +0.000 C 
BRANCH  14  15
ATOM     15  C   UNL     1       5.411  -4.332  26.119  0.00  0.00    -0.000 C 
BRANCH  15  17
ATOM     16  C   UNL     1       4.808  -6.439  24.911  0.00  0.00    +0.004 C 
ATOM     17  C   UNL     1       5.678  -5.828  25.997  0.00  0.00    -0.003 C 
ENDBRANCH  15  17
ENDBRANCH  14  15
ENDBRANCH  13  14
ENDBRANCH  12  13
ENDBRANCH   1  12
BRANCH   1  18
ATOM     18  C   UNL     1       7.890  -0.261  24.309  0.00  0.00    +0.162 C 
BRANCH  18  19
ATOM     19  N   UNL     1       8.844   0.586  23.633  0.00  0.00    -0.334 N 
ATOM     20  C   UNL     1       9.096   0.611  22.291  0.00  0.00    +0.199 A 
ATOM     21  N   UNL     1       9.984   1.529  21.987  0.00  0.00    -0.244 NA
ATOM     22  C   UNL     1      10.279   2.154  23.170  0.00  0.00    +0.130 A 
ATOM     23  C   UNL     1       9.565   1.598  24.204  0.00  0.00    +0.107 A 
ENDBRANCH  18  19
ENDBRANCH   1  18
TORSDOF 9
ENDMDL
MODEL 7
REMARK VINA RESULT:      -5.1      3.115      5.783
REMARK  Name = 
REMARK  10 active torsions:
REMARK  status: ('A' for Active; 'I' for Inactive)
REMARK    1  A    between atoms: C_1  and  C_2
REMARK    2  A    between atoms: C_2  and  C_3
REMARK    3  A    between atoms: C_3  and  C_4
REMARK    4  A    between atoms: C_4  and  C_5
REMARK    5  A    between atoms: C_5  and  C_6
REMARK    6  A    between atoms: C_6  and  C_7
REMARK    7  A    between atoms: C_7  and  O_8
REMARK    8  A    between atoms: C_7  and  C_9
REMARK    9  A    between atoms: C_7  and  C_15
REMARK   10  A    between atoms: C_9  and  N_10
REMARK                            x       y       z     vdW  Elec       q    Type
REMARK                         _______ _______ _______ _____ _____    ______ ____
ROOT
ATOM      1  C   UNL     1       8.174  -2.319  24.159  0.00  0.00    +0.110 C 
ENDROOT
BRANCH   1   2
ATOM      2  C   UNL     1       7.640  -3.272  25.263  0.00  0.00    +0.004 A 
ATOM      3  C   UNL     1       8.310  -4.442  25.687  0.00  0.00    +0.048 A 
ATOM      4 CL   UNL     1       9.832  -4.939  25.030  0.00  0.00    -0.083 Cl
ATOM      5  C   UNL     1       7.794  -5.258  26.708  0.00  0.00    +0.040 A 
ATOM      6  C   UNL     1       6.614  -4.913  27.351  0.00  0.00    +0.042 A 
ATOM      7 CL   UNL     1       6.001  -5.891  28.623  0.00  0.00    -0.083 Cl
ATOM      8  C   UNL     1       5.933  -3.767  26.976  0.00  0.00    +0.020 A 
ATOM      9  C   UNL     1       6.433  -2.970  25.943  0.00  0.00    +0.009 A 
ENDBRANCH   1   2
BRANCH   1  10
ATOM     10  O   UNL     1       7.218  -1.248  24.017  0.00  0.00    -0.382 OA
ATOM     11  H   UNL     1       6.648  -1.241  24.808  0.00  0.00    +0.211 HD
ENDBRANCH   1  10
BRANCH   1  12
ATOM     12  C   UNL     1       8.202  -3.010  22.762  0.00  0.00    +0.041 C 
BRANCH  12  13
ATOM     13  C   UNL     1       6.922  -3.702  22.291  0.00  0.00    +0.003 C 
BRANCH  13  14
ATOM     14  C   UNL     1       7.193  -5.197  22.082  0.00  0.00    +0.000 C 
BRANCH  14  15
ATOM     15  C   UNL     1       5.937  -6.020  22.342  0.00  0.00    -0.000 C 
BRANCH  15  17
ATOM     16  C   UNL     1       4.886  -6.518  24.558  0.00  0.00    +0.004 C 
ATOM     17  C   UNL     1       5.117  -5.455  23.496  0.00  0.00    -0.003 C 
ENDBRANCH  15  17
ENDBRANCH  14  15
ENDBRANCH  13  14
ENDBRANCH  12  13
ENDBRANCH   1  12
BRANCH   1  18
ATOM     18  C   UNL     1       9.554  -1.670  24.480  0.00  0.00    +0.162 C 
BRANCH  18  19
ATOM     19  N   UNL     1       9.734  -0.310  24.032  0.00  0.00    -0.334 N 
ATOM     20  C   UNL     1       9.725   0.808  24.816  0.00  0.00    +0.199 A 
ATOM     21  N   UNL     1       9.969   1.889  24.111  0.00  0.00    -0.244 NA
ATOM     22  C   UNL     1      10.193   1.446  22.834  0.00  0.00    +0.130 A 
ATOM     23  C   UNL     1      10.073   0.079  22.766  0.00  0.00    +0.107 A 
ENDBRANCH  18  19
ENDBRANCH   1  18
TORSDOF 9
ENDMDL
MODEL 8
REMARK VINA RESULT:      -5.1      1.800      2.382
REMARK  Name = 
REMARK  10 active torsions:
REMARK  status: ('A' for Active; 'I' for Inactive)
REMARK    1  A    between atoms: C_1  and  C_2
REMARK    2  A    between atoms: C_2  and  C_3
REMARK    3  A    between atoms: C_3  and  C_4
REMARK    4  A    between atoms: C_4  and  C_5
REMARK    5  A    between atoms: C_5  and  C_6
REMARK    6  A    between atoms: C_6  and  C_7
REMARK    7  A    between atoms: C_7  and  O_8
REMARK    8  A    between atoms: C_7  and  C_9
REMARK    9  A    between atoms: C_7  and  C_15
REMARK   10  A    between atoms: C_9  and  N_10
REMARK                            x       y       z     vdW  Elec       q    Type
REMARK                         _______ _______ _______ _____ _____    ______ ____
ROOT
ATOM      1  C   UNL     1       8.416  -2.608  23.396  0.00  0.00    +0.110 C 
ENDROOT
BRANCH   1   2
ATOM      2  C   UNL     1       7.601  -1.779  24.426  0.00  0.00    +0.004 A 
ATOM      3  C   UNL     1       7.632  -2.003  25.821  0.00  0.00    +0.048 A 
ATOM      4 CL   UNL     1       8.613  -3.229  26.550  0.00  0.00    -0.083 Cl
ATOM      5  C   UNL     1       6.893  -1.208  26.712  0.00  0.00    +0.040 A 
ATOM      6  C   UNL     1       6.127  -0.152  26.239  0.00  0.00    +0.042 A 
ATOM      7 CL   UNL     1       5.250   0.842  27.331  0.00  0.00    -0.083 Cl
ATOM      8  C   UNL     1       6.079   0.111  24.880  0.00  0.00    +0.020 A 
ATOM      9  C   UNL     1       6.795  -0.696  23.992  0.00  0.00    +0.009 A 
ENDBRANCH   1   2
BRANCH   1  10
ATOM     10  O   UNL     1       9.786  -2.630  23.851  0.00  0.00    -0.382 OA
ATOM     11  H   UNL     1       9.812  -2.274  24.757  0.00  0.00    +0.211 HD
ENDBRANCH   1  10
BRANCH   1  12
ATOM     12  C   UNL     1       8.474  -1.908  22.005  0.00  0.00    +0.041 C 
BRANCH  12  13
ATOM     13  C   UNL     1       9.703  -1.049  21.697  0.00  0.00    +0.003 C 
BRANCH  13  14
ATOM     14  C   UNL     1       9.270   0.405  21.472  0.00  0.00    +0.000 C 
BRANCH  14  15
ATOM     15  C   UNL     1      10.138   1.363  22.281  0.00  0.00    -0.000 C 
BRANCH  15  17
ATOM     16  C   UNL     1      10.444   0.765  24.692  0.00  0.00    +0.004 C 
ATOM     17  C   UNL     1       9.605   1.551  23.698  0.00  0.00    -0.003 C 
ENDBRANCH  15  17
ENDBRANCH  14  15
ENDBRANCH  13  14
ENDBRANCH  12  13
ENDBRANCH   1  12
BRANCH   1  18
ATOM     18  C   UNL     1       7.951  -4.088  23.249  0.00  0.00    +0.162 C 
BRANCH  18  19
ATOM     19  N   UNL     1       6.528  -4.316  23.328  0.00  0.00    -0.334 N 
ATOM     20  C   UNL     1       5.608  -4.028  22.360  0.00  0.00    +0.199 A 
ATOM     21  N   UNL     1       4.401  -4.404  22.720  0.00  0.00    -0.244 NA
ATOM     22  C   UNL     1       4.557  -5.000  23.944  0.00  0.00    +0.130 A 
ATOM     23  C   UNL     1       5.875  -4.976  24.332  0.00  0.00    +0.107 A 
ENDBRANCH  18  19
ENDBRANCH   1  18
TORSDOF 9
ENDMDL
MODEL 9
REMARK VINA RESULT:      -4.8      2.608      4.381
REMARK  Name = 
REMARK  10 active torsions:
REMARK  status: ('A' for Active; 'I' for Inactive)
REMARK    1  A    between atoms: C_1  and  C_2
REMARK    2  A    between atoms: C_2  and  C_3
REMARK    3  A    between atoms: C_3  and  C_4
REMARK    4  A    between atoms: C_4  and  C_5
REMARK    5  A    between atoms: C_5  and  C_6
REMARK    6  A    between atoms: C_6  and  C_7
REMARK    7  A    between atoms: C_7  and  O_8
REMARK    8  A    between atoms: C_7  and  C_9
REMARK    9  A    between atoms: C_7  and  C_15
REMARK   10  A    between atoms: C_9  and  N_10
REMARK                            x       y       z     vdW  Elec       q    Type
REMARK                         _______ _______ _______ _____ _____    ______ ____
ROOT
ATOM      1  C   UNL     1       7.868  -1.192  25.111  0.00  0.00    +0.110 C 
ENDROOT
BRANCH   1   2
ATOM      2  C   UNL     1       7.548  -2.343  24.119  0.00  0.00    +0.004 A 
ATOM      3  C   UNL     1       8.026  -3.665  24.264  0.00  0.00    +0.048 A 
ATOM      4 CL   UNL     1       9.016  -4.162  25.593  0.00  0.00    -0.083 Cl
ATOM      5  C   UNL     1       7.687  -4.676  23.349  0.00  0.00    +0.040 A 
ATOM      6  C   UNL     1       6.840  -4.402  22.284  0.00  0.00    +0.042 A 
ATOM      7 CL   UNL     1       6.398  -5.645  21.185  0.00  0.00    -0.083 Cl
ATOM      8  C   UNL     1       6.339  -3.122  22.113  0.00  0.00    +0.020 A 
ATOM      9  C   UNL     1       6.697  -2.112  23.009  0.00  0.00    +0.009 A 
ENDBRANCH   1   2
BRANCH   1  10
ATOM     10  O   UNL     1       7.291   0.015  24.569  0.00  0.00    -0.382 OA
ATOM     11  H   UNL     1       6.500  -0.229  24.056  0.00  0.00    +0.211 HD
ENDBRANCH   1  10
BRANCH   1  12
ATOM     12  C   UNL     1       9.397  -0.899  25.185  0.00  0.00    +0.041 C 
BRANCH  12  13
ATOM     13  C   UNL     1       9.856   0.531  24.892  0.00  0.00    +0.003 C 
BRANCH  13  14
ATOM     14  C   UNL     1      10.616   0.563  23.560  0.00  0.00    +0.000 C 
BRANCH  14  15
ATOM     15  C   UNL     1       9.959   1.529  22.580  0.00  0.00    -0.000 C 
BRANCH  15  17
ATOM     16  C   UNL     1       9.564  -0.672  21.457  0.00  0.00    +0.004 C 
ATOM     17  C   UNL     1       9.166   0.793  21.506  0.00  0.00    -0.003 C 
ENDBRANCH  15  17
ENDBRANCH  14  15
ENDBRANCH  13  14
ENDBRANCH  12  13
ENDBRANCH   1  12
BRANCH   1  18
ATOM     18  C   UNL     1       7.276  -1.389  26.539  0.00  0.00    +0.162 C 
BRANCH  18  19
ATOM     19  N   UNL     1       5.893  -1.798  26.601  0.00  0.00    -0.334 N 
ATOM     20  C   UNL     1       4.810  -1.041  26.252  0.00  0.00    +0.199 A 
ATOM     21  N   UNL     1       3.692  -1.720  26.375  0.00  0.00    -0.244 NA
ATOM     22  C   UNL     1       4.072  -2.977  26.769  0.00  0.00    +0.130 A 
ATOM     23  C   UNL     1       5.439  -3.053  26.895  0.00  0.00    +0.107 A 
ENDBRANCH  18  19
ENDBRANCH   1  18
TORSDOF 9
ENDMDL
