MODEL 1
REMARK VINA RESULT:      -7.1      0.000      0.000
REMARK  Name = 
REMARK  6 active torsions:
REMARK  status: ('A' for Active; 'I' for Inactive)
REMARK    1  A    between atoms: C_1  and  C_2
REMARK    2  A    between atoms: C_5  and  N_8
REMARK    3  A    between atoms: N_8  and  C_9
REMARK    4  A    between atoms: N_8  and  C_15
REMARK    5  A    between atoms: C_9  and  C_10
REMARK    6  A    between atoms: C_17  and  O_18
REMARK                            x       y       z     vdW  Elec       q    Type
REMARK                         _______ _______ _______ _____ _____    ______ ____
ROOT
ATOM      1  N   UNL     1       8.481  -3.476  23.956  0.00  0.00    -0.288 N 
ENDROOT
BRANCH   1   6
ATOM      2  C   UNL     1      10.013   1.690  22.050  0.00  0.00    +0.044 C 
ATOM      3  C   UNL     1       9.844   0.261  22.461  0.00  0.00    -0.050 A 
ATOM      4  C   UNL     1      10.203  -0.148  23.742  0.00  0.00    +0.005 A 
ATOM      5  C   UNL     1       9.852  -1.423  24.197  0.00  0.00    +0.024 A 
ATOM      6  C   UNL     1       9.119  -2.321  23.401  0.00  0.00    +0.035 A 
ATOM      7  C   UNL     1       9.000  -1.971  22.050  0.00  0.00    +0.024 A 
ATOM      8  C   UNL     1       9.321  -0.688  21.587  0.00  0.00    +0.005 A 
ENDBRANCH   1   6
BRANCH   1   9
ATOM      9  C   UNL     1       7.481  -4.313  23.364  0.00  0.00    +0.038 A 
ATOM     10  C   UNL     1       7.798  -5.494  22.657  0.00  0.00    +0.024 A 
ATOM     11  C   UNL     1       6.827  -6.261  21.990  0.00  0.00    +0.005 A 
ATOM     12  C   UNL     1       5.493  -5.887  22.020  0.00  0.00    +0.045 A 
ATOM     13  C   UNL     1       5.135  -4.788  22.777  0.00  0.00    +0.119 A 
ATOM     14  C   UNL     1       6.099  -4.039  23.463  0.00  0.00    +0.068 A 
BRANCH  13  15
ATOM     15  O   UNL     1       3.809  -4.461  22.827  0.00  0.00    -0.507 OA
ATOM     16  H   UNL     1       3.487  -4.599  23.731  0.00  0.00    +0.292 HD
ENDBRANCH  13  15
ENDBRANCH   1   9
BRANCH   1  17
ATOM     17  C   UNL     1       9.092  -3.952  25.231  0.00  0.00    +0.238 C 
BRANCH  17  18
ATOM     18  C   UNL     1       8.056  -4.397  26.272  0.00  0.00    +0.299 C 
ATOM     19  N   UNL     1       7.932  -5.703  26.704  0.00  0.00    -0.232 N 
ATOM     20  H   UNL     1       8.804  -6.215  26.798  0.00  0.00    +0.291 HD
ATOM     21  C   UNL     1       6.982  -5.742  27.780  0.00  0.00    +0.273 C 
ATOM     22  C   UNL     1       6.298  -4.379  27.630  0.00  0.00    +0.333 C 
ATOM     23  N   UNL     1       7.175  -3.551  26.751  0.00  0.00    -0.082 NA
ENDBRANCH  17  18
ENDBRANCH   1  17
TORSDOF 5
ENDMDL
MODEL 2
REMARK VINA RESULT:      -6.9      1.228      1.332
REMARK  Name = 
REMARK  6 active torsions:
REMARK  status: ('A' for Active; 'I' for Inactive)
REMARK    1  A    between atoms: C_1  and  C_2
REMARK    2  A    between atoms: C_5  and  N_8
REMARK    3  A    between atoms: N_8  and  C_9
REMARK    4  A    between atoms: N_8  and  C_15
REMARK    5  A    between atoms: C_9  and  C_10
REMARK    6  A    between atoms: C_17  and  O_18
REMARK                            x       y       z     vdW  Elec       q    Type
REMARK                         _______ _______ _______ _____ _____    ______ ____
ROOT
ATOM      1  N   UNL     1       8.645  -3.519  24.552  0.00  0.00    -0.288 N 
ENDROOT
BRANCH   1   6
ATOM      2  C   UNL     1      10.186   1.936  23.820  0.00  0.00    +0.044 C 
ATOM      3  C   UNL     1      10.017   0.481  24.121  0.00  0.00    -0.050 A 
ATOM      4  C   UNL     1       9.416   0.076  25.310  0.00  0.00    +0.005 A 
ATOM      5  C   UNL     1       9.065  -1.265  25.499  0.00  0.00    +0.024 A 
ATOM      6  C   UNL     1       9.283  -2.238  24.508  0.00  0.00    +0.035 A 
ATOM      7  C   UNL     1      10.106  -1.843  23.446  0.00  0.00    +0.024 A 
ATOM      8  C   UNL     1      10.442  -0.500  23.229  0.00  0.00    +0.005 A 
ENDBRANCH   1   6
BRANCH   1   9
ATOM      9  C   UNL     1       7.861  -4.160  23.540  0.00  0.00    +0.038 A 
ATOM     10  C   UNL     1       7.914  -5.552  23.304  0.00  0.00    +0.024 A 
ATOM     11  C   UNL     1       7.223  -6.168  22.247  0.00  0.00    +0.005 A 
ATOM     12  C   UNL     1       6.433  -5.416  21.390  0.00  0.00    +0.045 A 
ATOM     13  C   UNL     1       6.287  -4.066  21.645  0.00  0.00    +0.119 A 
ATOM     14  C   UNL     1       6.955  -3.457  22.715  0.00  0.00    +0.068 A 
BRANCH  13  15
ATOM     15  O   UNL     1       5.472  -3.352  20.814  0.00  0.00    -0.507 OA
ATOM     16  H   UNL     1       5.829  -2.455  20.720  0.00  0.00    +0.292 HD
ENDBRANCH  13  15
ENDBRANCH   1   9
BRANCH   1  17
ATOM     17  C   UNL     1       9.021  -4.342  25.738  0.00  0.00    +0.238 C 
BRANCH  17  18
ATOM     18  C   UNL     1       7.836  -4.652  26.662  0.00  0.00    +0.299 C 
ATOM     19  N   UNL     1       7.607  -5.903  27.203  0.00  0.00    -0.232 N 
ATOM     20  H   UNL     1       8.438  -6.420  27.470  0.00  0.00    +0.291 HD
ATOM     21  C   UNL     1       6.517  -5.807  28.133  0.00  0.00    +0.273 C 
ATOM     22  C   UNL     1       5.910  -4.453  27.751  0.00  0.00    +0.333 C 
ATOM     23  N   UNL     1       6.929  -3.741  26.925  0.00  0.00    -0.082 NA
ENDBRANCH  17  18
ENDBRANCH   1  17
TORSDOF 5
ENDMDL
MODEL 3
REMARK VINA RESULT:      -6.8      0.947      1.403
REMARK  Name = 
REMARK  6 active torsions:
REMARK  status: ('A' for Active; 'I' for Inactive)
REMARK    1  A    between atoms: C_1  and  C_2
REMARK    2  A    between atoms: C_5  and  N_8
REMARK    3  A    between atoms: N_8  and  C_9
REMARK    4  A    between atoms: N_8  and  C_15
REMARK    5  A    between atoms: C_9  and  C_10
REMARK    6  A    between atoms: C_17  and  O_18
REMARK                            x       y       z     vdW  Elec       q    Type
REMARK                         _______ _______ _______ _____ _____    ______ ____
ROOT
ATOM      1  N   UNL     1       8.469  -3.121  24.021  0.00  0.00    -0.288 N 
ENDROOT
BRANCH   1   6
ATOM      2  C   UNL     1      10.264   1.965  22.132  0.00  0.00    +0.044 C 
ATOM      3  C   UNL     1      10.038   0.557  22.582  0.00  0.00    -0.050 A 
ATOM      4  C   UNL     1      10.182   0.217  23.924  0.00  0.00    +0.005 A 
ATOM      5  C   UNL     1       9.768  -1.039  24.380  0.00  0.00    +0.024 A 
ATOM      6  C   UNL     1       9.183  -1.986  23.520  0.00  0.00    +0.035 A 
ATOM      7  C   UNL     1       9.289  -1.705  22.152  0.00  0.00    +0.024 A 
ATOM      8  C   UNL     1       9.674  -0.442  21.683  0.00  0.00    +0.005 A 
ENDBRANCH   1   6
BRANCH   1   9
ATOM      9  C   UNL     1       7.344  -3.794  23.442  0.00  0.00    +0.038 A 
ATOM     10  C   UNL     1       6.057  -3.214  23.388  0.00  0.00    +0.024 A 
ATOM     11  C   UNL     1       4.932  -3.911  22.914  0.00  0.00    +0.005 A 
ATOM     12  C   UNL     1       5.054  -5.214  22.455  0.00  0.00    +0.045 A 
ATOM     13  C   UNL     1       6.314  -5.781  22.410  0.00  0.00    +0.119 A 
ATOM     14  C   UNL     1       7.438  -5.076  22.858  0.00  0.00    +0.068 A 
BRANCH  13  15
ATOM     15  O   UNL     1       6.417  -7.049  21.915  0.00  0.00    -0.507 OA
ATOM     16  H   UNL     1       5.562  -7.496  22.020  0.00  0.00    +0.292 HD
ENDBRANCH  13  15
ENDBRANCH   1   9
BRANCH   1  17
ATOM     17  C   UNL     1       9.119  -3.779  25.192  0.00  0.00    +0.238 C 
BRANCH  17  18
ATOM     18  C   UNL     1       8.115  -4.316  26.220  0.00  0.00    +0.299 C 
ATOM     19  N   UNL     1       8.038  -5.649  26.576  0.00  0.00    -0.232 N 
ATOM     20  H   UNL     1       8.926  -6.138  26.625  0.00  0.00    +0.291 HD
ATOM     21  C   UNL     1       7.108  -5.780  27.662  0.00  0.00    +0.273 C 
ATOM     22  C   UNL     1       6.382  -4.433  27.605  0.00  0.00    +0.333 C 
ATOM     23  N   UNL     1       7.218  -3.527  26.764  0.00  0.00    -0.082 NA
ENDBRANCH  17  18
ENDBRANCH   1  17
TORSDOF 5
ENDMDL
MODEL 4
REMARK VINA RESULT:      -6.8      5.007      8.553
REMARK  Name = 
REMARK  6 active torsions:
REMARK  status: ('A' for Active; 'I' for Inactive)
REMARK    1  A    between atoms: C_1  and  C_2
REMARK    2  A    between atoms: C_5  and  N_8
REMARK    3  A    between atoms: N_8  and  C_9
REMARK    4  A    between atoms: N_8  and  C_15
REMARK    5  A    between atoms: C_9  and  C_10
REMARK    6  A    between atoms: C_17  and  O_18
REMARK                            x       y       z     vdW  Elec       q    Type
REMARK                         _______ _______ _______ _____ _____    ______ ____
ROOT
ATOM      1  N   UNL     1       9.650   2.891  23.282  0.00  0.00    -0.288 N 
ENDROOT
BRANCH   1   6
ATOM      2  C   UNL     1       9.574  -2.801  23.781  0.00  0.00    +0.044 C 
ATOM      3  C   UNL     1       9.852  -1.338  23.646  0.00  0.00    -0.050 A 
ATOM      4  C   UNL     1       9.897  -0.745  22.387  0.00  0.00    +0.005 A 
ATOM      5  C   UNL     1       9.944   0.648  22.267  0.00  0.00    +0.024 A 
ATOM      6  C   UNL     1       9.930   1.492  23.391  0.00  0.00    +0.035 A 
ATOM      7  C   UNL     1      10.138   0.859  24.623  0.00  0.00    +0.024 A 
ATOM      8  C   UNL     1      10.064  -0.533  24.762  0.00  0.00    +0.005 A 
ENDBRANCH   1   6
BRANCH   1   9
ATOM      9  C   UNL     1      10.509   3.999  23.580  0.00  0.00    +0.038 A 
ATOM     10  C   UNL     1      10.037   5.189  24.176  0.00  0.00    +0.024 A 
ATOM     11  C   UNL     1      10.857   6.313  24.375  0.00  0.00    +0.005 A 
ATOM     12  C   UNL     1      12.192   6.285  24.001  0.00  0.00    +0.045 A 
ATOM     13  C   UNL     1      12.709   5.107  23.497  0.00  0.00    +0.119 A 
ATOM     14  C   UNL     1      11.898   3.978  23.324  0.00  0.00    +0.068 A 
BRANCH  13  15
ATOM     15  O   UNL     1      14.036   5.088  23.174  0.00  0.00    -0.507 OA
ATOM     16  H   UNL     1      14.318   4.166  23.064  0.00  0.00    +0.292 HD
ENDBRANCH  13  15
ENDBRANCH   1   9
BRANCH   1  17
ATOM     17  C   UNL     1       8.365   3.201  22.590  0.00  0.00    +0.238 C 
BRANCH  17  18
ATOM     18  C   UNL     1       7.128   2.928  23.455  0.00  0.00    +0.299 C 
ATOM     19  N   UNL     1       6.408   1.750  23.393  0.00  0.00    -0.232 N 
ATOM     20  H   UNL     1       6.959   0.910  23.249  0.00  0.00    +0.291 HD
ATOM     21  C   UNL     1       5.418   1.763  24.433  0.00  0.00    +0.273 C 
ATOM     22  C   UNL     1       5.407   3.245  24.823  0.00  0.00    +0.333 C 
ATOM     23  N   UNL     1       6.647   3.850  24.255  0.00  0.00    -0.082 NA
ENDBRANCH  17  18
ENDBRANCH   1  17
TORSDOF 5
ENDMDL
MODEL 5
REMARK VINA RESULT:      -6.7      2.054      5.186
REMARK  Name = 
REMARK  6 active torsions:
REMARK  status: ('A' for Active; 'I' for Inactive)
REMARK    1  A    between atoms: C_1  and  C_2
REMARK    2  A    between atoms: C_5  and  N_8
REMARK    3  A    between atoms: N_8  and  C_9
REMARK    4  A    between atoms: N_8  and  C_15
REMARK    5  A    between atoms: C_9  and  C_10
REMARK    6  A    between atoms: C_17  and  O_18
REMARK                            x       y       z     vdW  Elec       q    Type
REMARK                         _______ _______ _______ _____ _____    ______ ____
ROOT
ATOM      1  N   UNL     1       8.476  -3.406  23.756  0.00  0.00    -0.288 N 
ENDROOT
BRANCH   1   6
ATOM      2  C   UNL     1       3.488  -6.076  22.946  0.00  0.00    +0.044 C 
ATOM      3  C   UNL     1       4.791  -5.342  22.901  0.00  0.00    -0.050 A 
ATOM      4  C   UNL     1       4.825  -3.963  23.084  0.00  0.00    +0.005 A 
ATOM      5  C   UNL     1       6.049  -3.306  23.254  0.00  0.00    +0.024 A 
ATOM      6  C   UNL     1       7.271  -4.002  23.266  0.00  0.00    +0.035 A 
ATOM      7  C   UNL     1       7.211  -5.333  22.832  0.00  0.00    +0.024 A 
ATOM      8  C   UNL     1       5.993  -6.010  22.685  0.00  0.00    +0.005 A 
ENDBRANCH   1   6
BRANCH   1   9
ATOM      9  C   UNL     1       9.026  -2.120  23.445  0.00  0.00    +0.038 A 
ATOM     10  C   UNL     1       9.137  -1.641  22.121  0.00  0.00    +0.024 A 
ATOM     11  C   UNL     1       9.768  -0.425  21.807  0.00  0.00    +0.005 A 
ATOM     12  C   UNL     1      10.299   0.372  22.809  0.00  0.00    +0.045 A 
ATOM     13  C   UNL     1      10.129  -0.023  24.123  0.00  0.00    +0.119 A 
ATOM     14  C   UNL     1       9.476  -1.222  24.437  0.00  0.00    +0.068 A 
BRANCH  13  15
ATOM     15  O   UNL     1      10.623   0.797  25.096  0.00  0.00    -0.507 OA
ATOM     16  H   UNL     1      10.472   1.719  24.835  0.00  0.00    +0.292 HD
ENDBRANCH  13  15
ENDBRANCH   1   9
BRANCH   1  17
ATOM     17  C   UNL     1       9.116  -4.162  24.872  0.00  0.00    +0.238 C 
BRANCH  17  18
ATOM     18  C   UNL     1       8.145  -4.502  26.010  0.00  0.00    +0.299 C 
ATOM     19  N   UNL     1       7.971  -5.784  26.496  0.00  0.00    -0.232 N 
ATOM     20  H   UNL     1       8.810  -6.352  26.535  0.00  0.00    +0.291 HD
ATOM     21  C   UNL     1       7.115  -5.724  27.648  0.00  0.00    +0.273 C 
ATOM     22  C   UNL     1       6.515  -4.322  27.509  0.00  0.00    +0.333 C 
ATOM     23  N   UNL     1       7.368  -3.583  26.532  0.00  0.00    -0.082 NA
ENDBRANCH  17  18
ENDBRANCH   1  17
TORSDOF 5
ENDMDL
MODEL 6
REMARK VINA RESULT:      -6.5      2.354      3.986
REMARK  Name = 
REMARK  6 active torsions:
REMARK  status: ('A' for Active; 'I' for Inactive)
REMARK    1  A    between atoms: C_1  and  C_2
REMARK    2  A    between atoms: C_5  and  N_8
REMARK    3  A    between atoms: N_8  and  C_9
REMARK    4  A    between atoms: N_8  and  C_15
REMARK    5  A    between atoms: C_9  and  C_10
REMARK    6  A    between atoms: C_17  and  O_18
REMARK                            x       y       z     vdW  Elec       q    Type
REMARK                         _______ _______ _______ _____ _____    ______ ____
ROOT
ATOM      1  N   UNL     1       8.278  -1.953  23.572  0.00  0.00    -0.288 N 
ENDROOT
BRANCH   1   6
ATOM      2  C   UNL     1      10.831   3.153  23.312  0.00  0.00    +0.044 C 
ATOM      3  C   UNL     1      10.388   1.725  23.289  0.00  0.00    -0.050 A 
ATOM      4  C   UNL     1      10.528   0.928  24.422  0.00  0.00    +0.005 A 
ATOM      5  C   UNL     1       9.925  -0.333  24.473  0.00  0.00    +0.024 A 
ATOM      6  C   UNL     1       9.153  -0.832  23.410  0.00  0.00    +0.035 A 
ATOM      7  C   UNL     1       9.247  -0.117  22.209  0.00  0.00    +0.024 A 
ATOM      8  C   UNL     1       9.821   1.159  22.150  0.00  0.00    +0.005 A 
ENDBRANCH   1   6
BRANCH   1   9
ATOM      9  C   UNL     1       8.282  -2.946  24.605  0.00  0.00    +0.038 A 
ATOM     10  C   UNL     1       7.388  -2.912  25.697  0.00  0.00    +0.024 A 
ATOM     11  C   UNL     1       7.458  -3.827  26.762  0.00  0.00    +0.005 A 
ATOM     12  C   UNL     1       8.417  -4.827  26.768  0.00  0.00    +0.045 A 
ATOM     13  C   UNL     1       9.252  -4.945  25.673  0.00  0.00    +0.119 A 
ATOM     14  C   UNL     1       9.164  -4.050  24.599  0.00  0.00    +0.068 A 
BRANCH  13  15
ATOM     15  O   UNL     1      10.162  -5.963  25.680  0.00  0.00    -0.507 OA
ATOM     16  H   UNL     1      10.049  -6.489  24.872  0.00  0.00    +0.292 HD
ENDBRANCH  13  15
ENDBRANCH   1   9
BRANCH   1  17
ATOM     17  C   UNL     1       7.110  -1.951  22.644  0.00  0.00    +0.238 C 
BRANCH  17  18
ATOM     18  C   UNL     1       6.483  -3.338  22.453  0.00  0.00    +0.299 C 
ATOM     19  N   UNL     1       7.086  -4.345  21.725  0.00  0.00    -0.232 N 
ATOM     20  H   UNL     1       8.096  -4.397  21.807  0.00  0.00    +0.291 HD
ATOM     21  C   UNL     1       6.312  -5.546  21.876  0.00  0.00    +0.273 C 
ATOM     22  C   UNL     1       5.000  -4.992  22.442  0.00  0.00    +0.333 C 
ATOM     23  N   UNL     1       5.288  -3.608  22.921  0.00  0.00    -0.082 NA
ENDBRANCH  17  18
ENDBRANCH   1  17
TORSDOF 5
ENDMDL
MODEL 7
REMARK VINA RESULT:      -6.3      2.541      5.966
REMARK  Name = 
REMARK  6 active torsions:
REMARK  status: ('A' for Active; 'I' for Inactive)
REMARK    1  A    between atoms: C_1  and  C_2
REMARK    2  A    between atoms: C_5  and  N_8
REMARK    3  A    between atoms: N_8  and  C_9
REMARK    4  A    between atoms: N_8  and  C_15
REMARK    5  A    between atoms: C_9  and  C_10
REMARK    6  A    between atoms: C_17  and  O_18
REMARK                            x       y       z     vdW  Elec       q    Type
REMARK                         _______ _______ _______ _____ _____    ______ ____
ROOT
ATOM      1  N   UNL     1       8.653  -2.021  23.739  0.00  0.00    -0.288 N 
ENDROOT
BRANCH   1   6
ATOM      2  C   UNL     1       6.849  -5.650  27.768  0.00  0.00    +0.044 C 
ATOM      3  C   UNL     1       7.464  -4.595  26.904  0.00  0.00    -0.050 A 
ATOM      4  C   UNL     1       8.627  -4.865  26.188  0.00  0.00    +0.005 A 
ATOM      5  C   UNL     1       9.083  -3.962  25.221  0.00  0.00    +0.024 A 
ATOM      6  C   UNL     1       8.388  -2.776  24.925  0.00  0.00    +0.035 A 
ATOM      7  C   UNL     1       7.378  -2.426  25.831  0.00  0.00    +0.024 A 
ATOM      8  C   UNL     1       6.893  -3.331  26.784  0.00  0.00    +0.005 A 
ENDBRANCH   1   6
BRANCH   1   9
ATOM      9  C   UNL     1       9.318  -0.758  23.615  0.00  0.00    +0.038 A 
ATOM     10  C   UNL     1      10.180  -0.251  24.612  0.00  0.00    +0.024 A 
ATOM     11  C   UNL     1      10.752   1.031  24.539  0.00  0.00    +0.005 A 
ATOM     12  C   UNL     1      10.500   1.852  23.451  0.00  0.00    +0.045 A 
ATOM     13  C   UNL     1       9.733   1.355  22.415  0.00  0.00    +0.119 A 
ATOM     14  C   UNL     1       9.185   0.067  22.476  0.00  0.00    +0.068 A 
BRANCH  13  15
ATOM     15  O   UNL     1       9.531   2.165  21.334  0.00  0.00    -0.507 OA
ATOM     16  H   UNL     1       8.854   1.765  20.765  0.00  0.00    +0.292 HD
ENDBRANCH  13  15
ENDBRANCH   1   9
BRANCH   1  17
ATOM     17  C   UNL     1       8.358  -2.755  22.474  0.00  0.00    +0.238 C 
BRANCH  17  18
ATOM     18  C   UNL     1       7.053  -3.560  22.529  0.00  0.00    +0.299 C 
ATOM     19  N   UNL     1       7.009  -4.935  22.406  0.00  0.00    -0.232 N 
ATOM     20  H   UNL     1       7.778  -5.436  22.837  0.00  0.00    +0.291 HD
ATOM     21  C   UNL     1       5.664  -5.374  22.655  0.00  0.00    +0.273 C 
ATOM     22  C   UNL     1       4.889  -4.058  22.538  0.00  0.00    +0.333 C 
ATOM     23  N   UNL     1       5.892  -2.957  22.624  0.00  0.00    -0.082 NA
ENDBRANCH  17  18
ENDBRANCH   1  17
TORSDOF 5
ENDMDL
MODEL 8
REMARK VINA RESULT:      -6.3      1.779      5.183
REMARK  Name = 
REMARK  6 active torsions:
REMARK  status: ('A' for Active; 'I' for Inactive)
REMARK    1  A    between atoms: C_1  and  C_2
REMARK    2  A    between atoms: C_5  and  N_8
REMARK    3  A    between atoms: N_8  and  C_9
REMARK    4  A    between atoms: N_8  and  C_15
REMARK    5  A    between atoms: C_9  and  C_10
REMARK    6  A    between atoms: C_17  and  O_18
REMARK                            x       y       z     vdW  Elec       q    Type
REMARK                         _______ _______ _______ _____ _____    ______ ____
ROOT
ATOM      1  N   UNL     1       8.225  -3.669  23.959  0.00  0.00    -0.288 N 
ENDROOT
BRANCH   1   6
ATOM      2  C   UNL     1       3.159  -6.152  23.047  0.00  0.00    +0.044 C 
ATOM      3  C   UNL     1       4.479  -5.448  23.032  0.00  0.00    -0.050 A 
ATOM      4  C   UNL     1       4.551  -4.087  23.314  0.00  0.00    +0.005 A 
ATOM      5  C   UNL     1       5.794  -3.474  23.509  0.00  0.00    +0.024 A 
ATOM      6  C   UNL     1       6.998  -4.199  23.448  0.00  0.00    +0.035 A 
ATOM      7  C   UNL     1       6.897  -5.492  22.919  0.00  0.00    +0.024 A 
ATOM      8  C   UNL     1       5.660  -6.127  22.746  0.00  0.00    +0.005 A 
ENDBRANCH   1   6
BRANCH   1   9
ATOM      9  C   UNL     1       8.887  -2.448  23.604  0.00  0.00    +0.038 A 
ATOM     10  C   UNL     1       9.586  -1.661  24.545  0.00  0.00    +0.024 A 
ATOM     11  C   UNL     1      10.148  -0.414  24.220  0.00  0.00    +0.005 A 
ATOM     12  C   UNL     1      10.049   0.088  22.931  0.00  0.00    +0.045 A 
ATOM     13  C   UNL     1       9.449  -0.696  21.964  0.00  0.00    +0.119 A 
ATOM     14  C   UNL     1       8.913  -1.950  22.282  0.00  0.00    +0.068 A 
BRANCH  13  15
ATOM     15  O   UNL     1       9.399  -0.200  20.693  0.00  0.00    -0.507 OA
ATOM     16  H   UNL     1       8.619   0.371  20.610  0.00  0.00    +0.292 HD
ENDBRANCH  13  15
ENDBRANCH   1   9
BRANCH   1  17
ATOM     17  C   UNL     1       8.759  -4.406  25.140  0.00  0.00    +0.238 C 
BRANCH  17  18
ATOM     18  C   UNL     1       7.713  -4.630  26.240  0.00  0.00    +0.299 C 
ATOM     19  N   UNL     1       7.038  -3.596  26.861  0.00  0.00    -0.232 N 
ATOM     20  H   UNL     1       6.794  -2.814  26.263  0.00  0.00    +0.291 HD
ATOM     21  C   UNL     1       6.033  -4.157  27.721  0.00  0.00    +0.273 C 
ATOM     22  C   UNL     1       6.491  -5.617  27.810  0.00  0.00    +0.333 C 
ATOM     23  N   UNL     1       7.463  -5.833  26.700  0.00  0.00    -0.082 NA
ENDBRANCH  17  18
ENDBRANCH   1  17
TORSDOF 5
ENDMDL
MODEL 9
REMARK VINA RESULT:      -6.1      1.857      2.380
REMARK  Name = 
REMARK  6 active torsions:
REMARK  status: ('A' for Active; 'I' for Inactive)
REMARK    1  A    between atoms: C_1  and  C_2
REMARK    2  A    between atoms: C_5  and  N_8
REMARK    3  A    between atoms: N_8  and  C_9
REMARK    4  A    between atoms: N_8  and  C_15
REMARK    5  A    between atoms: C_9  and  C_10
REMARK    6  A    between atoms: C_17  and  O_18
REMARK                            x       y       z     vdW  Elec       q    Type
REMARK                         _______ _______ _______ _____ _____    ______ ____
ROOT
ATOM      1  N   UNL     1       7.555  -4.108  25.531  0.00  0.00    -0.288 N 
ENDROOT
BRANCH   1   6
ATOM      2  C   UNL     1      10.035   0.949  24.559  0.00  0.00    +0.044 C 
ATOM      3  C   UNL     1       9.610  -0.437  24.930  0.00  0.00    -0.050 A 
ATOM      4  C   UNL     1       8.931  -0.666  26.123  0.00  0.00    +0.005 A 
ATOM      5  C   UNL     1       8.348  -1.914  26.372  0.00  0.00    +0.024 A 
ATOM      6  C   UNL     1       8.407  -2.962  25.436  0.00  0.00    +0.035 A 
ATOM      7  C   UNL     1       9.302  -2.773  24.375  0.00  0.00    +0.024 A 
ATOM      8  C   UNL     1       9.869  -1.523  24.098  0.00  0.00    +0.005 A 
ENDBRANCH   1   6
BRANCH   1   9
ATOM      9  C   UNL     1       6.470  -4.486  24.675  0.00  0.00    +0.038 A 
ATOM     10  C   UNL     1       5.766  -3.552  23.882  0.00  0.00    +0.024 A 
ATOM     11  C   UNL     1       4.638  -3.904  23.120  0.00  0.00    +0.005 A 
ATOM     12  C   UNL     1       4.178  -5.212  23.107  0.00  0.00    +0.045 A 
ATOM     13  C   UNL     1       4.895  -6.168  23.801  0.00  0.00    +0.119 A 
ATOM     14  C   UNL     1       6.035  -5.822  24.537  0.00  0.00    +0.068 A 
BRANCH  13  15
ATOM     15  O   UNL     1       4.449  -7.458  23.740  0.00  0.00    -0.507 OA
ATOM     16  H   UNL     1       4.295  -7.692  22.811  0.00  0.00    +0.292 HD
ENDBRANCH  13  15
ENDBRANCH   1   9
BRANCH   1  17
ATOM     17  C   UNL     1       7.997  -5.111  26.542  0.00  0.00    +0.238 C 
BRANCH  17  18
ATOM     18  C   UNL     1       6.984  -5.318  27.676  0.00  0.00    +0.299 C 
ATOM     19  N   UNL     1       6.806  -6.528  28.317  0.00  0.00    -0.232 N 
ATOM     20  H   UNL     1       7.650  -7.072  28.463  0.00  0.00    +0.291 HD
ATOM     21  C   UNL     1       5.903  -6.335  29.417  0.00  0.00    +0.273 C 
ATOM     22  C   UNL     1       5.292  -4.973  29.072  0.00  0.00    +0.333 C 
ATOM     23  N   UNL     1       6.175  -4.352  28.042  0.00  0.00    -0.082 NA
ENDBRANCH  17  18
ENDBRANCH   1  17
TORSDOF 5
ENDMDL
