MODEL 1
REMARK VINA RESULT:      -7.9      0.000      0.000
REMARK  Name = 
REMARK  5 active torsions:
REMARK  status: ('A' for Active; 'I' for Inactive)
REMARK    1  A    between atoms: C_1  and  C_2
REMARK    2  A    between atoms: C_2  and  C_3
REMARK    3  A    between atoms: C_6  and  C_8
REMARK    4  A    between atoms: C_11  and  S_14
REMARK    5  A    between atoms: S_14  and  N_15
REMARK                            x       y       z     vdW  Elec       q    Type
REMARK                         _______ _______ _______ _____ _____    ______ ____
ROOT
ATOM      1  C   UNL     1       8.779   3.231  23.497  0.00  0.00    +0.133 A 
ATOM      2  O   UNL     1       8.906   1.966  24.015  0.00  0.00    -0.455 OA
ATOM      3  C   UNL     1       8.445   1.071  23.096  0.00  0.00    +0.136 A 
ATOM      4  C   UNL     1       8.000   1.750  21.982  0.00  0.00    +0.050 A 
ATOM      5  C   UNL     1       8.197   3.125  22.243  0.00  0.00    +0.050 A 
ENDROOT
BRANCH   1   7
ATOM      6  C   UNL     1       8.327   5.008  25.278  0.00  0.00    +0.049 C 
ATOM      7  C   UNL     1       9.200   4.404  24.204  0.00  0.00    +0.011 C 
ATOM      8  C   UNL     1      10.432   4.886  23.933  0.00  0.00    +0.084 C 
ATOM      9  C   UNL     1      11.044   6.097  24.573  0.00  0.00    +0.257 C 
ATOM     10  O   UNL     1      10.464   6.907  25.276  0.00  0.00    -0.269 OA
ATOM     11  N   UNL     1      12.367   6.175  24.249  0.00  0.00    -0.261 N 
ATOM     12  H   UNL     1      12.964   6.891  24.629  0.00  0.00    +0.157 HD
ATOM     13  C   UNL     1      12.852   5.227  23.432  0.00  0.00    +0.158 C 
ATOM     14  N   UNL     1      14.092   5.127  23.133  0.00  0.00    -0.279 NA
ATOM     15  H   UNL     1      14.198   4.311  22.518  0.00  0.00    +0.189 HD
ATOM     16  S   UNL     1      11.615   4.172  22.863  0.00  0.00    -0.049 S 
ENDBRANCH   1   7
BRANCH   3  17
ATOM     17  C   UNL     1       8.508  -0.338  23.474  0.00  0.00    +0.017 A 
ATOM     18  C   UNL     1       9.734  -0.970  23.743  0.00  0.00    +0.013 A 
ATOM     19  C   UNL     1       9.779  -2.316  24.118  0.00  0.00    +0.029 A 
ATOM     20  C   UNL     1       8.591  -3.040  24.209  0.00  0.00    +0.105 A 
ATOM     21  C   UNL     1       7.361  -2.431  23.953  0.00  0.00    +0.029 A 
ATOM     22  C   UNL     1       7.327  -1.088  23.580  0.00  0.00    +0.013 A 
BRANCH  20  23
ATOM     23  S   UNL     1       8.626  -4.750  24.650  0.00  0.00    +0.056 S 
ATOM     24  O   UNL     1       8.325  -5.551  23.486  0.00  0.00    -0.153 OA
ATOM     25  O   UNL     1       7.957  -4.935  25.916  0.00  0.00    -0.153 OA
BRANCH  23  26
ATOM     26  N   UNL     1      10.264  -4.961  24.949  0.00  0.00    -0.204 NA
ATOM     27  H   UNL     1      10.746  -5.240  24.096  0.00  0.00    +0.144 HD
ATOM     28  H   UNL     1      10.400  -5.591  25.740  0.00  0.00    +0.144 HD
ENDBRANCH  23  26
ENDBRANCH  20  23
ENDBRANCH   3  17
TORSDOF 4
ENDMDL
MODEL 2
REMARK VINA RESULT:      -7.5      2.796      8.955
REMARK  Name = 
REMARK  5 active torsions:
REMARK  status: ('A' for Active; 'I' for Inactive)
REMARK    1  A    between atoms: C_1  and  C_2
REMARK    2  A    between atoms: C_2  and  C_3
REMARK    3  A    between atoms: C_6  and  C_8
REMARK    4  A    between atoms: C_11  and  S_14
REMARK    5  A    between atoms: S_14  and  N_15
REMARK                            x       y       z     vdW  Elec       q    Type
REMARK                         _______ _______ _______ _____ _____    ______ ____
ROOT
ATOM      1  C   UNL     1       8.318  -2.216  23.150  0.00  0.00    +0.133 A 
ATOM      2  O   UNL     1       7.920  -0.903  23.168  0.00  0.00    -0.455 OA
ATOM      3  C   UNL     1       9.030  -0.112  23.155  0.00  0.00    +0.136 A 
ATOM      4  C   UNL     1      10.156  -0.906  23.146  0.00  0.00    +0.050 A 
ATOM      5  C   UNL     1       9.704  -2.246  23.159  0.00  0.00    +0.050 A 
ENDROOT
BRANCH   1   7
ATOM      6  C   UNL     1       6.736  -3.734  21.835  0.00  0.00    +0.049 C 
ATOM      7  C   UNL     1       7.389  -3.307  23.129  0.00  0.00    +0.011 C 
ATOM      8  C   UNL     1       7.193  -3.981  24.282  0.00  0.00    +0.084 C 
ATOM      9  C   UNL     1       6.264  -5.147  24.452  0.00  0.00    +0.257 C 
ATOM     10  O   UNL     1       5.437  -5.530  23.641  0.00  0.00    -0.269 OA
ATOM     11  N   UNL     1       6.472  -5.733  25.667  0.00  0.00    -0.261 N 
ATOM     12  H   UNL     1       5.981  -6.566  25.944  0.00  0.00    +0.157 HD
ATOM     13  C   UNL     1       7.393  -5.170  26.465  0.00  0.00    +0.158 C 
ATOM     14  N   UNL     1       7.753  -5.678  27.583  0.00  0.00    -0.279 NA
ATOM     15  H   UNL     1       8.482  -5.071  27.978  0.00  0.00    +0.189 HD
ATOM     16  S   UNL     1       8.027  -3.717  25.795  0.00  0.00    -0.049 S 
ENDBRANCH   1   7
BRANCH   3  17
ATOM     17  C   UNL     1       8.800   1.330  23.164  0.00  0.00    +0.017 A 
ATOM     18  C   UNL     1       9.469   2.174  24.068  0.00  0.00    +0.013 A 
ATOM     19  C   UNL     1       9.250   3.554  24.055  0.00  0.00    +0.029 A 
ATOM     20  C   UNL     1       8.345   4.095  23.143  0.00  0.00    +0.105 A 
ATOM     21  C   UNL     1       7.674   3.277  22.233  0.00  0.00    +0.029 A 
ATOM     22  C   UNL     1       7.899   1.901  22.253  0.00  0.00    +0.013 A 
BRANCH  20  23
ATOM     23  S   UNL     1       8.029   5.832  23.132  0.00  0.00    +0.056 S 
ATOM     24  O   UNL     1       9.273   6.547  23.292  0.00  0.00    -0.153 OA
ATOM     25  O   UNL     1       6.861   6.114  23.933  0.00  0.00    -0.153 OA
BRANCH  23  26
ATOM     26  N   UNL     1       7.567   6.055  21.534  0.00  0.00    -0.204 NA
ATOM     27  H   UNL     1       6.653   6.504  21.489  0.00  0.00    +0.144 HD
ATOM     28  H   UNL     1       7.635   5.176  21.021  0.00  0.00    +0.144 HD
ENDBRANCH  23  26
ENDBRANCH  20  23
ENDBRANCH   3  17
TORSDOF 4
ENDMDL
MODEL 3
REMARK VINA RESULT:      -7.4      4.185      9.995
REMARK  Name = 
REMARK  5 active torsions:
REMARK  status: ('A' for Active; 'I' for Inactive)
REMARK    1  A    between atoms: C_1  and  C_2
REMARK    2  A    between atoms: C_2  and  C_3
REMARK    3  A    between atoms: C_6  and  C_8
REMARK    4  A    between atoms: C_11  and  S_14
REMARK    5  A    between atoms: S_14  and  N_15
REMARK                            x       y       z     vdW  Elec       q    Type
REMARK                         _______ _______ _______ _____ _____    ______ ____
ROOT
ATOM      1  C   UNL     1       5.294  -5.295  23.207  0.00  0.00    +0.133 A 
ATOM      2  O   UNL     1       5.715  -4.003  23.408  0.00  0.00    -0.455 OA
ATOM      3  C   UNL     1       6.839  -3.791  22.667  0.00  0.00    +0.136 A 
ATOM      4  C   UNL     1       7.165  -4.947  21.992  0.00  0.00    +0.050 A 
ATOM      5  C   UNL     1       6.193  -5.909  22.348  0.00  0.00    +0.050 A 
ENDROOT
BRANCH   1   7
ATOM      6  C   UNL     1       2.880  -6.108  23.002  0.00  0.00    +0.049 C 
ATOM      7  C   UNL     1       4.118  -5.831  23.822  0.00  0.00    +0.011 C 
ATOM      8  C   UNL     1       4.191  -6.156  25.131  0.00  0.00    +0.084 C 
ATOM      9  C   UNL     1       3.067  -6.730  25.941  0.00  0.00    +0.257 C 
ATOM     10  O   UNL     1       1.901  -6.814  25.594  0.00  0.00    -0.269 OA
ATOM     11  N   UNL     1       3.535  -7.151  27.152  0.00  0.00    -0.261 N 
ATOM     12  H   UNL     1       2.941  -7.616  27.818  0.00  0.00    +0.157 HD
ATOM     13  C   UNL     1       4.839  -6.954  27.403  0.00  0.00    +0.158 C 
ATOM     14  N   UNL     1       5.423  -7.391  28.455  0.00  0.00    -0.279 NA
ATOM     15  H   UNL     1       6.415  -7.130  28.390  0.00  0.00    +0.189 HD
ATOM     16  S   UNL     1       5.613  -6.071  26.144  0.00  0.00    -0.049 S 
ENDBRANCH   1   7
BRANCH   3  17
ATOM     17  C   UNL     1       7.429  -2.458  22.751  0.00  0.00    +0.017 A 
ATOM     18  C   UNL     1       8.787  -2.238  22.463  0.00  0.00    +0.013 A 
ATOM     19  C   UNL     1       9.336  -0.955  22.534  0.00  0.00    +0.029 A 
ATOM     20  C   UNL     1       8.525   0.116  22.909  0.00  0.00    +0.105 A 
ATOM     21  C   UNL     1       7.173  -0.078  23.193  0.00  0.00    +0.029 A 
ATOM     22  C   UNL     1       6.634  -1.362  23.120  0.00  0.00    +0.013 A 
BRANCH  20  23
ATOM     23  S   UNL     1       9.205   1.741  23.035  0.00  0.00    +0.056 S 
ATOM     24  O   UNL     1      10.394   1.701  23.854  0.00  0.00    -0.153 OA
ATOM     25  O   UNL     1       8.141   2.691  23.255  0.00  0.00    -0.153 OA
BRANCH  23  26
ATOM     26  N   UNL     1       9.732   1.982  21.461  0.00  0.00    -0.204 NA
ATOM     27  H   UNL     1      10.397   2.754  21.424  0.00  0.00    +0.144 HD
ATOM     28  H   UNL     1       8.935   2.077  20.832  0.00  0.00    +0.144 HD
ENDBRANCH  23  26
ENDBRANCH  20  23
ENDBRANCH   3  17
TORSDOF 4
ENDMDL
MODEL 4
REMARK VINA RESULT:      -7.3      3.508      9.786
REMARK  Name = 
REMARK  5 active torsions:
REMARK  status: ('A' for Active; 'I' for Inactive)
REMARK    1  A    between atoms: C_1  and  C_2
REMARK    2  A    between atoms: C_2  and  C_3
REMARK    3  A    between atoms: C_6  and  C_8
REMARK    4  A    between atoms: C_11  and  S_14
REMARK    5  A    between atoms: S_14  and  N_15
REMARK                            x       y       z     vdW  Elec       q    Type
REMARK                         _______ _______ _______ _____ _____    ______ ____
ROOT
ATOM      1  C   UNL     1       7.385  -4.516  24.187  0.00  0.00    +0.133 A 
ATOM      2  O   UNL     1       7.365  -3.151  24.044  0.00  0.00    -0.455 OA
ATOM      3  C   UNL     1       8.624  -2.673  24.253  0.00  0.00    +0.136 A 
ATOM      4  C   UNL     1       9.467  -3.722  24.549  0.00  0.00    +0.050 A 
ATOM      5  C   UNL     1       8.676  -4.893  24.523  0.00  0.00    +0.050 A 
ENDROOT
BRANCH   1   7
ATOM      6  C   UNL     1       5.737  -5.675  22.614  0.00  0.00    +0.049 C 
ATOM      7  C   UNL     1       6.222  -5.331  24.003  0.00  0.00    +0.011 C 
ATOM      8  C   UNL     1       5.638  -5.843  25.108  0.00  0.00    +0.084 C 
ATOM      9  C   UNL     1       4.419  -6.717  25.113  0.00  0.00    +0.257 C 
ATOM     10  O   UNL     1       3.689  -6.936  24.161  0.00  0.00    -0.269 OA
ATOM     11  N   UNL     1       4.229  -7.241  26.358  0.00  0.00    -0.261 N 
ATOM     12  H   UNL     1       3.491  -7.899  26.549  0.00  0.00    +0.157 HD
ATOM     13  C   UNL     1       5.097  -6.874  27.314  0.00  0.00    +0.158 C 
ATOM     14  N   UNL     1       5.091  -7.369  28.493  0.00  0.00    -0.279 NA
ATOM     15  H   UNL     1       5.866  -6.941  29.014  0.00  0.00    +0.189 HD
ATOM     16  S   UNL     1       6.210  -5.686  26.752  0.00  0.00    -0.049 S 
ENDBRANCH   1   7
BRANCH   3  17
ATOM     17  C   UNL     1       8.798  -1.228  24.134  0.00  0.00    +0.017 A 
ATOM     18  C   UNL     1       7.901  -0.439  23.394  0.00  0.00    +0.013 A 
ATOM     19  C   UNL     1       8.072   0.945  23.301  0.00  0.00    +0.029 A 
ATOM     20  C   UNL     1       9.155   1.544  23.941  0.00  0.00    +0.105 A 
ATOM     21  C   UNL     1      10.055   0.782  24.688  0.00  0.00    +0.029 A 
ATOM     22  C   UNL     1       9.876  -0.598  24.774  0.00  0.00    +0.013 A 
BRANCH  20  23
ATOM     23  S   UNL     1       9.408   3.287  23.811  0.00  0.00    +0.056 S 
ATOM     24  O   UNL     1      10.777   3.546  23.429  0.00  0.00    -0.153 OA
ATOM     25  O   UNL     1       8.773   3.950  24.925  0.00  0.00    -0.153 OA
BRANCH  23  26
ATOM     26  N   UNL     1       8.474   3.639  22.462  0.00  0.00    -0.204 NA
ATOM     27  H   UNL     1       8.869   4.430  21.955  0.00  0.00    +0.144 HD
ATOM     28  H   UNL     1       7.496   3.748  22.729  0.00  0.00    +0.144 HD
ENDBRANCH  23  26
ENDBRANCH  20  23
ENDBRANCH   3  17
TORSDOF 4
ENDMDL
MODEL 5
REMARK VINA RESULT:      -7.1      3.387      9.528
REMARK  Name = 
REMARK  5 active torsions:
REMARK  status: ('A' for Active; 'I' for Inactive)
REMARK    1  A    between atoms: C_1  and  C_2
REMARK    2  A    between atoms: C_2  and  C_3
REMARK    3  A    between atoms: C_6  and  C_8
REMARK    4  A    between atoms: C_11  and  S_14
REMARK    5  A    between atoms: S_14  and  N_15
REMARK                            x       y       z     vdW  Elec       q    Type
REMARK                         _______ _______ _______ _____ _____    ______ ____
ROOT
ATOM      1  C   UNL     1       8.076  -4.167  25.452  0.00  0.00    +0.133 A 
ATOM      2  O   UNL     1       7.932  -2.803  25.404  0.00  0.00    -0.455 OA
ATOM      3  C   UNL     1       8.985  -2.278  24.717  0.00  0.00    +0.136 A 
ATOM      4  C   UNL     1       9.829  -3.295  24.329  0.00  0.00    +0.050 A 
ATOM      5  C   UNL     1       9.260  -4.497  24.810  0.00  0.00    +0.050 A 
ENDROOT
BRANCH   1   7
ATOM      6  C   UNL     1       7.109  -5.196  27.583  0.00  0.00    +0.049 C 
ATOM      7  C   UNL     1       7.118  -5.026  26.082  0.00  0.00    +0.011 C 
ATOM      8  C   UNL     1       6.182  -5.599  25.295  0.00  0.00    +0.084 C 
ATOM      9  C   UNL     1       5.101  -6.522  25.774  0.00  0.00    +0.257 C 
ATOM     10  O   UNL     1       5.022  -7.021  26.884  0.00  0.00    -0.269 OA
ATOM     11  N   UNL     1       4.198  -6.737  24.773  0.00  0.00    -0.261 N 
ATOM     12  H   UNL     1       3.368  -7.288  24.919  0.00  0.00    +0.157 HD
ATOM     13  C   UNL     1       4.443  -6.147  23.593  0.00  0.00    +0.158 C 
ATOM     14  N   UNL     1       3.628  -6.187  22.608  0.00  0.00    -0.279 NA
ATOM     15  H   UNL     1       4.040  -5.640  21.842  0.00  0.00    +0.189 HD
ATOM     16  S   UNL     1       5.960  -5.333  23.582  0.00  0.00    -0.049 S 
ENDBRANCH   1   7
BRANCH   3  17
ATOM     17  C   UNL     1       8.998  -0.827  24.558  0.00  0.00    +0.017 A 
ATOM     18  C   UNL     1       7.808  -0.080  24.541  0.00  0.00    +0.013 A 
ATOM     19  C   UNL     1       7.835   1.311  24.403  0.00  0.00    +0.029 A 
ATOM     20  C   UNL     1       9.062   1.959  24.265  0.00  0.00    +0.105 A 
ATOM     21  C   UNL     1      10.257   1.240  24.286  0.00  0.00    +0.029 A 
ATOM     22  C   UNL     1      10.219  -0.147  24.425  0.00  0.00    +0.013 A 
BRANCH  20  23
ATOM     23  S   UNL     1       9.119   3.712  24.057  0.00  0.00    +0.056 S 
ATOM     24  O   UNL     1      10.476   4.118  23.777  0.00  0.00    -0.153 OA
ATOM     25  O   UNL     1       8.312   4.344  25.074  0.00  0.00    -0.153 OA
BRANCH  23  26
ATOM     26  N   UNL     1       8.276   3.883  22.616  0.00  0.00    -0.204 NA
ATOM     27  H   UNL     1       8.510   3.125  21.977  0.00  0.00    +0.144 HD
ATOM     28  H   UNL     1       8.415   4.819  22.235  0.00  0.00    +0.144 HD
ENDBRANCH  23  26
ENDBRANCH  20  23
ENDBRANCH   3  17
TORSDOF 4
ENDMDL
MODEL 6
REMARK VINA RESULT:      -7.0      2.811      3.721
REMARK  Name = 
REMARK  5 active torsions:
REMARK  status: ('A' for Active; 'I' for Inactive)
REMARK    1  A    between atoms: C_1  and  C_2
REMARK    2  A    between atoms: C_2  and  C_3
REMARK    3  A    between atoms: C_6  and  C_8
REMARK    4  A    between atoms: C_11  and  S_14
REMARK    5  A    between atoms: S_14  and  N_15
REMARK                            x       y       z     vdW  Elec       q    Type
REMARK                         _______ _______ _______ _____ _____    ______ ____
ROOT
ATOM      1  C   UNL     1       9.421   1.146  22.909  0.00  0.00    +0.133 A 
ATOM      2  O   UNL     1       8.853   0.293  23.822  0.00  0.00    -0.455 OA
ATOM      3  C   UNL     1       8.834  -0.963  23.292  0.00  0.00    +0.136 A 
ATOM      4  C   UNL     1       9.375  -0.931  22.025  0.00  0.00    +0.050 A 
ATOM      5  C   UNL     1       9.733   0.413  21.773  0.00  0.00    +0.050 A 
ENDROOT
BRANCH   1   7
ATOM      6  C   UNL     1      11.006   3.099  23.360  0.00  0.00    +0.049 C 
ATOM      7  C   UNL     1       9.616   2.541  23.168  0.00  0.00    +0.011 C 
ATOM      8  C   UNL     1       8.526   3.337  23.147  0.00  0.00    +0.084 C 
ATOM      9  C   UNL     1       8.534   4.817  23.392  0.00  0.00    +0.257 C 
ATOM     10  O   UNL     1       9.474   5.469  23.816  0.00  0.00    -0.269 OA
ATOM     11  N   UNL     1       7.317   5.347  23.075  0.00  0.00    -0.261 N 
ATOM     12  H   UNL     1       7.143   6.338  23.121  0.00  0.00    +0.157 HD
ATOM     13  C   UNL     1       6.370   4.493  22.657  0.00  0.00    +0.158 C 
ATOM     14  N   UNL     1       5.223   4.871  22.235  0.00  0.00    -0.279 NA
ATOM     15  H   UNL     1       4.703   4.031  21.955  0.00  0.00    +0.189 HD
ATOM     16  S   UNL     1       6.895   2.856  22.745  0.00  0.00    -0.049 S 
ENDBRANCH   1   7
BRANCH   3  17
ATOM     17  C   UNL     1       8.267  -2.013  24.132  0.00  0.00    +0.017 A 
ATOM     18  C   UNL     1       7.292  -2.899  23.642  0.00  0.00    +0.013 A 
ATOM     19  C   UNL     1       6.769  -3.910  24.453  0.00  0.00    +0.029 A 
ATOM     20  C   UNL     1       7.211  -4.028  25.769  0.00  0.00    +0.105 A 
ATOM     21  C   UNL     1       8.183  -3.164  26.276  0.00  0.00    +0.029 A 
ATOM     22  C   UNL     1       8.700  -2.159  25.459  0.00  0.00    +0.013 A 
BRANCH  20  23
ATOM     23  S   UNL     1       6.540  -5.277  26.821  0.00  0.00    +0.056 S 
ATOM     24  O   UNL     1       5.967  -6.328  26.013  0.00  0.00    -0.153 OA
ATOM     25  O   UNL     1       5.824  -4.655  27.910  0.00  0.00    -0.153 OA
BRANCH  23  26
ATOM     26  N   UNL     1       7.943  -5.914  27.485  0.00  0.00    -0.204 NA
ATOM     27  H   UNL     1       8.433  -6.484  26.797  0.00  0.00    +0.144 HD
ATOM     28  H   UNL     1       7.734  -6.391  28.362  0.00  0.00    +0.144 HD
ENDBRANCH  23  26
ENDBRANCH  20  23
ENDBRANCH   3  17
TORSDOF 4
ENDMDL
MODEL 7
REMARK VINA RESULT:      -7.0      2.787      8.948
REMARK  Name = 
REMARK  5 active torsions:
REMARK  status: ('A' for Active; 'I' for Inactive)
REMARK    1  A    between atoms: C_1  and  C_2
REMARK    2  A    between atoms: C_2  and  C_3
REMARK    3  A    between atoms: C_6  and  C_8
REMARK    4  A    between atoms: C_11  and  S_14
REMARK    5  A    between atoms: S_14  and  N_15
REMARK                            x       y       z     vdW  Elec       q    Type
REMARK                         _______ _______ _______ _____ _____    ______ ____
ROOT
ATOM      1  C   UNL     1       8.711  -2.106  24.332  0.00  0.00    +0.133 A 
ATOM      2  O   UNL     1       8.321  -0.790  24.352  0.00  0.00    -0.455 OA
ATOM      3  C   UNL     1       9.191  -0.067  23.591  0.00  0.00    +0.136 A 
ATOM      4  C   UNL     1      10.161  -0.906  23.086  0.00  0.00    +0.050 A 
ATOM      5  C   UNL     1       9.866  -2.200  23.571  0.00  0.00    +0.050 A 
ENDROOT
BRANCH   1   7
ATOM      6  C   UNL     1       7.856  -3.117  26.519  0.00  0.00    +0.049 C 
ATOM      7  C   UNL     1       7.989  -3.138  25.014  0.00  0.00    +0.011 C 
ATOM      8  C   UNL     1       7.368  -4.068  24.258  0.00  0.00    +0.084 C 
ATOM      9  C   UNL     1       6.565  -5.218  24.792  0.00  0.00    +0.257 C 
ATOM     10  O   UNL     1       6.511  -5.576  25.956  0.00  0.00    -0.269 OA
ATOM     11  N   UNL     1       5.892  -5.827  23.773  0.00  0.00    -0.261 N 
ATOM     12  H   UNL     1       5.255  -6.588  23.939  0.00  0.00    +0.157 HD
ATOM     13  C   UNL     1       6.085  -5.339  22.537  0.00  0.00    +0.158 C 
ATOM     14  N   UNL     1       5.440  -5.753  21.513  0.00  0.00    -0.279 NA
ATOM     15  H   UNL     1       5.755  -5.203  20.705  0.00  0.00    +0.189 HD
ATOM     16  S   UNL     1       7.277  -4.097  22.513  0.00  0.00    -0.049 S 
ENDBRANCH   1   7
BRANCH   3  17
ATOM     17  C   UNL     1       8.928   1.365  23.488  0.00  0.00    +0.017 A 
ATOM     18  C   UNL     1       9.872   2.317  23.909  0.00  0.00    +0.013 A 
ATOM     19  C   UNL     1       9.613   3.685  23.791  0.00  0.00    +0.029 A 
ATOM     20  C   UNL     1       8.394   4.107  23.262  0.00  0.00    +0.105 A 
ATOM     21  C   UNL     1       7.443   3.180  22.831  0.00  0.00    +0.029 A 
ATOM     22  C   UNL     1       7.712   1.817  22.953  0.00  0.00    +0.013 A 
BRANCH  20  23
ATOM     23  S   UNL     1       8.032   5.830  23.133  0.00  0.00    +0.056 S 
ATOM     24  O   UNL     1       9.257   6.587  23.242  0.00  0.00    -0.153 OA
ATOM     25  O   UNL     1       6.858   6.135  23.916  0.00  0.00    -0.153 OA
BRANCH  23  26
ATOM     26  N   UNL     1       7.563   5.932  21.525  0.00  0.00    -0.204 NA
ATOM     27  H   UNL     1       7.779   6.855  21.152  0.00  0.00    +0.144 HD
ATOM     28  H   UNL     1       6.589   5.648  21.423  0.00  0.00    +0.144 HD
ENDBRANCH  23  26
ENDBRANCH  20  23
ENDBRANCH   3  17
TORSDOF 4
ENDMDL
MODEL 8
REMARK VINA RESULT:      -7.0      4.199      6.100
REMARK  Name = 
REMARK  5 active torsions:
REMARK  status: ('A' for Active; 'I' for Inactive)
REMARK    1  A    between atoms: C_1  and  C_2
REMARK    2  A    between atoms: C_2  and  C_3
REMARK    3  A    between atoms: C_6  and  C_8
REMARK    4  A    between atoms: C_11  and  S_14
REMARK    5  A    between atoms: S_14  and  N_15
REMARK                            x       y       z     vdW  Elec       q    Type
REMARK                         _______ _______ _______ _____ _____    ______ ____
ROOT
ATOM      1  C   UNL     1       8.967  -2.406  23.582  0.00  0.00    +0.133 A 
ATOM      2  O   UNL     1       7.732  -2.988  23.438  0.00  0.00    -0.455 OA
ATOM      3  C   UNL     1       7.695  -4.124  24.190  0.00  0.00    +0.136 A 
ATOM      4  C   UNL     1       8.912  -4.297  24.814  0.00  0.00    +0.050 A 
ATOM      5  C   UNL     1       9.727  -3.214  24.415  0.00  0.00    +0.050 A 
ENDROOT
BRANCH   1   7
ATOM      6  C   UNL     1       9.753  -1.160  21.494  0.00  0.00    +0.049 C 
ATOM      7  C   UNL     1       9.323  -1.176  22.942  0.00  0.00    +0.011 C 
ATOM      8  C   UNL     1       9.176  -0.037  23.653  0.00  0.00    +0.084 C 
ATOM      9  C   UNL     1       9.493   1.340  23.151  0.00  0.00    +0.257 C 
ATOM     10  O   UNL     1      10.088   1.609  22.121  0.00  0.00    -0.269 OA
ATOM     11  N   UNL     1       9.021   2.274  24.026  0.00  0.00    -0.261 N 
ATOM     12  H   UNL     1       9.089   3.260  23.837  0.00  0.00    +0.157 HD
ATOM     13  C   UNL     1       8.421   1.819  25.138  0.00  0.00    +0.158 C 
ATOM     14  N   UNL     1       7.848   2.586  25.987  0.00  0.00    -0.279 NA
ATOM     15  H   UNL     1       7.450   1.989  26.724  0.00  0.00    +0.189 HD
ATOM     16  S   UNL     1       8.506   0.104  25.261  0.00  0.00    -0.049 S 
ENDBRANCH   1   7
BRANCH   3  17
ATOM     17  C   UNL     1       6.446  -4.879  24.165  0.00  0.00    +0.017 A 
ATOM     18  C   UNL     1       5.604  -4.868  23.040  0.00  0.00    +0.013 A 
ATOM     19  C   UNL     1       4.418  -5.608  23.025  0.00  0.00    +0.029 A 
ATOM     20  C   UNL     1       4.062  -6.352  24.148  0.00  0.00    +0.105 A 
ATOM     21  C   UNL     1       4.886  -6.383  25.275  0.00  0.00    +0.029 A 
ATOM     22  C   UNL     1       6.067  -5.643  25.280  0.00  0.00    +0.013 A 
BRANCH  20  23
ATOM     23  S   UNL     1       2.552  -7.268  24.163  0.00  0.00    +0.056 S 
ATOM     24  O   UNL     1       1.494  -6.439  24.690  0.00  0.00    -0.153 OA
ATOM     25  O   UNL     1       2.806  -8.605  24.645  0.00  0.00    -0.153 OA
BRANCH  23  26
ATOM     26  N   UNL     1       2.257  -7.410  22.518  0.00  0.00    -0.204 NA
ATOM     27  H   UNL     1       2.778  -6.702  22.002  0.00  0.00    +0.144 HD
ATOM     28  H   UNL     1       1.253  -7.413  22.339  0.00  0.00    +0.144 HD
ENDBRANCH  23  26
ENDBRANCH  20  23
ENDBRANCH   3  17
TORSDOF 4
ENDMDL
MODEL 9
REMARK VINA RESULT:      -7.0      2.169      2.964
REMARK  Name = 
REMARK  5 active torsions:
REMARK  status: ('A' for Active; 'I' for Inactive)
REMARK    1  A    between atoms: C_1  and  C_2
REMARK    2  A    between atoms: C_2  and  C_3
REMARK    3  A    between atoms: C_6  and  C_8
REMARK    4  A    between atoms: C_11  and  S_14
REMARK    5  A    between atoms: S_14  and  N_15
REMARK                            x       y       z     vdW  Elec       q    Type
REMARK                         _______ _______ _______ _____ _____    ______ ____
ROOT
ATOM      1  C   UNL     1       9.972   2.464  23.074  0.00  0.00    +0.133 A 
ATOM      2  O   UNL     1       9.700   1.375  23.864  0.00  0.00    -0.455 OA
ATOM      3  C   UNL     1       9.480   0.297  23.059  0.00  0.00    +0.136 A 
ATOM      4  C   UNL     1       9.591   0.683  21.740  0.00  0.00    +0.050 A 
ATOM      5  C   UNL     1       9.887   2.065  21.748  0.00  0.00    +0.050 A 
ENDROOT
BRANCH   1   7
ATOM      6  C   UNL     1      11.663   4.340  23.467  0.00  0.00    +0.049 C 
ATOM      7  C   UNL     1      10.278   3.755  23.613  0.00  0.00    +0.011 C 
ATOM      8  C   UNL     1       9.266   4.453  24.172  0.00  0.00    +0.084 C 
ATOM      9  C   UNL     1       9.394   5.817  24.783  0.00  0.00    +0.257 C 
ATOM     10  O   UNL     1      10.437   6.401  25.023  0.00  0.00    -0.269 OA
ATOM     11  N   UNL     1       8.155   6.326  25.046  0.00  0.00    -0.261 N 
ATOM     12  H   UNL     1       8.031   7.256  25.409  0.00  0.00    +0.157 HD
ATOM     13  C   UNL     1       7.102   5.544  24.760  0.00  0.00    +0.158 C 
ATOM     14  N   UNL     1       5.889   5.939  24.865  0.00  0.00    -0.279 NA
ATOM     15  H   UNL     1       5.284   5.165  24.564  0.00  0.00    +0.189 HD
ATOM     16  S   UNL     1       7.585   3.980  24.229  0.00  0.00    -0.049 S 
ENDBRANCH   1   7
BRANCH   3  17
ATOM     17  C   UNL     1       9.179  -0.964  23.730  0.00  0.00    +0.017 A 
ATOM     18  C   UNL     1       8.065  -1.097  24.576  0.00  0.00    +0.013 A 
ATOM     19  C   UNL     1       7.781  -2.315  25.201  0.00  0.00    +0.029 A 
ATOM     20  C   UNL     1       8.626  -3.404  24.990  0.00  0.00    +0.105 A 
ATOM     21  C   UNL     1       9.734  -3.297  24.149  0.00  0.00    +0.029 A 
ATOM     22  C   UNL     1      10.009  -2.078  23.530  0.00  0.00    +0.013 A 
BRANCH  20  23
ATOM     23  S   UNL     1       8.304  -4.943  25.795  0.00  0.00    +0.056 S 
ATOM     24  O   UNL     1       7.134  -5.555  25.210  0.00  0.00    -0.153 OA
ATOM     25  O   UNL     1       8.468  -4.784  27.221  0.00  0.00    -0.153 OA
BRANCH  23  26
ATOM     26  N   UNL     1       9.615  -5.850  25.271  0.00  0.00    -0.204 NA
ATOM     27  H   UNL     1      10.488  -5.413  25.565  0.00  0.00    +0.144 HD
ATOM     28  H   UNL     1       9.544  -6.026  24.269  0.00  0.00    +0.144 HD
ENDBRANCH  23  26
ENDBRANCH  20  23
ENDBRANCH   3  17
TORSDOF 4
ENDMDL
