MODEL 1
REMARK VINA RESULT:      -5.5      0.000      0.000
REMARK  Name = 
REMARK  6 active torsions:
REMARK  status: ('A' for Active; 'I' for Inactive)
REMARK    1  A    between atoms: N_4  and  C_5
REMARK    2  A    between atoms: C_9  and  C_11
REMARK    3  A    between atoms: C_11  and  C_13
REMARK    4  A    between atoms: C_11  and  C_15
REMARK    5  A    between atoms: C_13  and  S_14
REMARK    6  A    between atoms: C_15  and  O_16
REMARK                            x       y       z     vdW  Elec       q    Type
REMARK                         _______ _______ _______ _____ _____    ______ ____
ROOT
ATOM      1  C   UNL     1       6.788  -4.284  24.728  0.00  0.00    +0.142 A 
ATOM      2  C   UNL     1       7.313  -2.999  24.551  0.00  0.00    +0.050 A 
ATOM      3  C   UNL     1       7.763  -2.560  23.292  0.00  0.00    -0.030 A 
ATOM      4  C   UNL     1       7.474  -3.347  22.172  0.00  0.00    +0.005 A 
ATOM      5  C   UNL     1       6.777  -4.549  22.318  0.00  0.00    +0.004 A 
ATOM      6  C   UNL     1       6.466  -5.025  23.597  0.00  0.00    +0.046 A 
ENDROOT
BRANCH   1  11
ATOM      7  N   UNL     1       7.377  -6.097  27.784  0.00  0.00    -0.289 N 
ATOM      8  H   UNL     1       6.389  -6.145  28.008  0.00  0.00    +0.255 HD
ATOM      9  H   UNL     1       7.837  -6.985  27.922  0.00  0.00    +0.255 HD
ATOM     10  C   UNL     1       7.572  -5.526  26.573  0.00  0.00    +0.382 C 
ATOM     11  N   UNL     1       6.615  -4.862  26.003  0.00  0.00    -0.073 NA
ATOM     12  N   UNL     1       8.830  -5.774  26.146  0.00  0.00    -0.289 N 
ATOM     13  H   UNL     1       9.002  -5.709  25.148  0.00  0.00    +0.255 HD
ATOM     14  H   UNL     1       9.379  -6.485  26.598  0.00  0.00    +0.255 HD
ENDBRANCH   1  11
BRANCH   3  15
ATOM     15  C   UNL     1       8.665  -1.329  23.246  0.00  0.00    +0.137 C 
BRANCH  15  16
ATOM     16  C   UNL     1       9.750  -1.357  22.172  0.00  0.00    +0.313 C 
ATOM     17  O   UNL     1      10.822  -1.931  22.303  0.00  0.00    -0.250 OA
BRANCH  16  18
ATOM     18  O   UNL     1       9.486  -0.625  21.068  0.00  0.00    -0.480 OA
ATOM     19  H   UNL     1       9.958  -0.919  20.263  0.00  0.00    +0.295 HD
ENDBRANCH  16  18
ENDBRANCH  15  16
BRANCH  15  20
ATOM     20  C   UNL     1       9.352  -1.070  24.613  0.00  0.00    +0.085 C 
BRANCH  20  21
ATOM     21  S   UNL     1      10.250   0.515  24.773  0.00  0.00    -0.177 S 
ATOM     22  H   UNL     1       9.514   1.025  25.773  0.00  0.00    +0.102 HD
ENDBRANCH  20  21
ENDBRANCH  15  20
ENDBRANCH   3  15
TORSDOF 6
ENDMDL
MODEL 2
REMARK VINA RESULT:      -5.3      4.491      5.820
REMARK  Name = 
REMARK  6 active torsions:
REMARK  status: ('A' for Active; 'I' for Inactive)
REMARK    1  A    between atoms: N_4  and  C_5
REMARK    2  A    between atoms: C_9  and  C_11
REMARK    3  A    between atoms: C_11  and  C_13
REMARK    4  A    between atoms: C_11  and  C_15
REMARK    5  A    between atoms: C_13  and  S_14
REMARK    6  A    between atoms: C_15  and  O_16
REMARK                            x       y       z     vdW  Elec       q    Type
REMARK                         _______ _______ _______ _____ _____    ______ ____
ROOT
ATOM      1  C   UNL     1       8.739  -2.087  22.733  0.00  0.00    +0.142 A 
ATOM      2  C   UNL     1       7.510  -2.756  22.747  0.00  0.00    +0.050 A 
ATOM      3  C   UNL     1       7.337  -3.951  23.468  0.00  0.00    -0.030 A 
ATOM      4  C   UNL     1       8.347  -4.347  24.352  0.00  0.00    +0.005 A 
ATOM      5  C   UNL     1       9.505  -3.576  24.486  0.00  0.00    +0.004 A 
ATOM      6  C   UNL     1       9.707  -2.468  23.654  0.00  0.00    +0.046 A 
ENDROOT
BRANCH   1  11
ATOM      7  N   UNL     1       9.053   1.124  21.130  0.00  0.00    -0.289 N 
ATOM      8  H   UNL     1       9.207   0.712  20.216  0.00  0.00    +0.255 HD
ATOM      9  H   UNL     1       8.393   1.886  21.092  0.00  0.00    +0.255 HD
ATOM     10  C   UNL     1       8.784   0.170  22.052  0.00  0.00    +0.382 C 
ATOM     11  N   UNL     1       9.039  -1.075  21.797  0.00  0.00    -0.073 NA
ATOM     12  N   UNL     1       8.256   0.739  23.159  0.00  0.00    -0.289 N 
ATOM     13  H   UNL     1       7.708   0.142  23.770  0.00  0.00    +0.255 HD
ATOM     14  H   UNL     1       7.919   1.685  23.121  0.00  0.00    +0.255 HD
ENDBRANCH   1  11
BRANCH   3  15
ATOM     15  C   UNL     1       6.126  -4.819  23.132  0.00  0.00    +0.137 C 
BRANCH  15  16
ATOM     16  C   UNL     1       6.208  -5.561  21.801  0.00  0.00    +0.313 C 
ATOM     17  O   UNL     1       5.935  -5.055  20.721  0.00  0.00    -0.250 OA
BRANCH  16  18
ATOM     18  O   UNL     1       6.529  -6.871  21.890  0.00  0.00    -0.480 OA
ATOM     19  H   UNL     1       6.569  -7.339  21.032  0.00  0.00    +0.295 HD
ENDBRANCH  16  18
ENDBRANCH  15  16
BRANCH  15  20
ATOM     20  C   UNL     1       4.811  -3.996  23.141  0.00  0.00    +0.085 C 
BRANCH  20  21
ATOM     21  S   UNL     1       3.298  -4.906  23.618  0.00  0.00    -0.177 S 
ATOM     22  H   UNL     1       3.603  -5.070  24.915  0.00  0.00    +0.102 HD
ENDBRANCH  20  21
ENDBRANCH  15  20
ENDBRANCH   3  15
TORSDOF 6
ENDMDL
MODEL 3
REMARK VINA RESULT:      -5.3      4.418      6.038
REMARK  Name = 
REMARK  6 active torsions:
REMARK  status: ('A' for Active; 'I' for Inactive)
REMARK    1  A    between atoms: N_4  and  C_5
REMARK    2  A    between atoms: C_9  and  C_11
REMARK    3  A    between atoms: C_11  and  C_13
REMARK    4  A    between atoms: C_11  and  C_15
REMARK    5  A    between atoms: C_13  and  S_14
REMARK    6  A    between atoms: C_15  and  O_16
REMARK                            x       y       z     vdW  Elec       q    Type
REMARK                         _______ _______ _______ _____ _____    ______ ____
ROOT
ATOM      1  C   UNL     1       9.279  -0.385  24.264  0.00  0.00    +0.142 A 
ATOM      2  C   UNL     1       8.652  -1.610  24.014  0.00  0.00    +0.050 A 
ATOM      3  C   UNL     1       8.302  -2.481  25.063  0.00  0.00    -0.030 A 
ATOM      4  C   UNL     1       8.389  -2.007  26.376  0.00  0.00    +0.005 A 
ATOM      5  C   UNL     1       8.836  -0.708  26.627  0.00  0.00    +0.004 A 
ATOM      6  C   UNL     1       9.308   0.085  25.573  0.00  0.00    +0.046 A 
ENDROOT
BRANCH   1  11
ATOM      7  N   UNL     1       9.879   1.951  21.589  0.00  0.00    -0.289 N 
ATOM      8  H   UNL     1      10.745   1.497  21.316  0.00  0.00    +0.255 HD
ATOM      9  H   UNL     1       9.302   2.170  20.791  0.00  0.00    +0.255 HD
ATOM     10  C   UNL     1       9.263   1.263  22.578  0.00  0.00    +0.382 C 
ATOM     11  N   UNL     1       9.911   0.363  23.250  0.00  0.00    -0.073 NA
ATOM     12  N   UNL     1       7.980   1.674  22.691  0.00  0.00    -0.289 N 
ATOM     13  H   UNL     1       7.327   1.036  23.134  0.00  0.00    +0.255 HD
ATOM     14  H   UNL     1       7.565   2.221  21.957  0.00  0.00    +0.255 HD
ENDBRANCH   1  11
BRANCH   3  15
ATOM     15  C   UNL     1       7.993  -3.934  24.711  0.00  0.00    +0.137 C 
BRANCH  15  16
ATOM     16  C   UNL     1       8.981  -4.960  25.259  0.00  0.00    +0.313 C 
ATOM     17  O   UNL     1      10.136  -5.069  24.871  0.00  0.00    -0.250 OA
BRANCH  16  18
ATOM     18  O   UNL     1       8.473  -5.822  26.168  0.00  0.00    -0.480 OA
ATOM     19  H   UNL     1       7.663  -5.507  26.617  0.00  0.00    +0.295 HD
ENDBRANCH  16  18
ENDBRANCH  15  16
BRANCH  15  20
ATOM     20  C   UNL     1       7.889  -4.143  23.177  0.00  0.00    +0.085 C 
BRANCH  20  21
ATOM     21  S   UNL     1       6.962  -5.622  22.630  0.00  0.00    -0.177 S 
ATOM     22  H   UNL     1       5.870  -5.425  23.385  0.00  0.00    +0.102 HD
ENDBRANCH  20  21
ENDBRANCH  15  20
ENDBRANCH   3  15
TORSDOF 6
ENDMDL
MODEL 4
REMARK VINA RESULT:      -5.2      4.420      5.786
REMARK  Name = 
REMARK  6 active torsions:
REMARK  status: ('A' for Active; 'I' for Inactive)
REMARK    1  A    between atoms: N_4  and  C_5
REMARK    2  A    between atoms: C_9  and  C_11
REMARK    3  A    between atoms: C_11  and  C_13
REMARK    4  A    between atoms: C_11  and  C_15
REMARK    5  A    between atoms: C_13  and  S_14
REMARK    6  A    between atoms: C_15  and  O_16
REMARK                            x       y       z     vdW  Elec       q    Type
REMARK                         _______ _______ _______ _____ _____    ______ ____
ROOT
ATOM      1  C   UNL     1       8.192  -0.359  23.157  0.00  0.00    +0.142 A 
ATOM      2  C   UNL     1       8.170  -1.640  22.593  0.00  0.00    +0.050 A 
ATOM      3  C   UNL     1       7.246  -2.611  23.019  0.00  0.00    -0.030 A 
ATOM      4  C   UNL     1       6.202  -2.211  23.860  0.00  0.00    +0.005 A 
ATOM      5  C   UNL     1       6.106  -0.882  24.279  0.00  0.00    +0.004 A 
ATOM      6  C   UNL     1       7.118   0.029  23.950  0.00  0.00    +0.046 A 
ENDROOT
BRANCH   1  11
ATOM      7  N   UNL     1      10.368   2.181  21.821  0.00  0.00    -0.289 N 
ATOM      8  H   UNL     1      11.158   1.872  22.378  0.00  0.00    +0.255 HD
ATOM      9  H   UNL     1      10.631   2.358  20.863  0.00  0.00    +0.255 HD
ATOM     10  C   UNL     1       9.306   1.358  21.988  0.00  0.00    +0.382 C 
ATOM     11  N   UNL     1       9.275   0.527  22.982  0.00  0.00    -0.073 NA
ATOM     12  N   UNL     1       8.402   1.573  21.007  0.00  0.00    -0.289 N 
ATOM     13  H   UNL     1       7.745   0.824  20.810  0.00  0.00    +0.255 HD
ATOM     14  H   UNL     1       8.667   2.093  20.189  0.00  0.00    +0.255 HD
ENDBRANCH   1  11
BRANCH   3  15
ATOM     15  C   UNL     1       7.524  -4.068  22.658  0.00  0.00    +0.137 C 
BRANCH  15  16
ATOM     16  C   UNL     1       6.616  -4.657  21.582  0.00  0.00    +0.313 C 
ATOM     17  O   UNL     1       5.629  -4.087  21.138  0.00  0.00    -0.250 OA
BRANCH  16  18
ATOM     18  O   UNL     1       6.923  -5.914  21.194  0.00  0.00    -0.480 OA
ATOM     19  H   UNL     1       6.157  -6.446  20.896  0.00  0.00    +0.295 HD
ENDBRANCH  16  18
ENDBRANCH  15  16
BRANCH  15  20
ATOM     20  C   UNL     1       7.452  -4.991  23.903  0.00  0.00    +0.085 C 
BRANCH  20  21
ATOM     21  S   UNL     1       8.916  -4.978  24.999  0.00  0.00    -0.177 S 
ATOM     22  H   UNL     1       8.373  -5.670  26.013  0.00  0.00    +0.102 HD
ENDBRANCH  20  21
ENDBRANCH  15  20
ENDBRANCH   3  15
TORSDOF 6
ENDMDL
MODEL 5
REMARK VINA RESULT:      -5.1      4.067      4.738
REMARK  Name = 
REMARK  6 active torsions:
REMARK  status: ('A' for Active; 'I' for Inactive)
REMARK    1  A    between atoms: N_4  and  C_5
REMARK    2  A    between atoms: C_9  and  C_11
REMARK    3  A    between atoms: C_11  and  C_13
REMARK    4  A    between atoms: C_11  and  C_15
REMARK    5  A    between atoms: C_13  and  S_14
REMARK    6  A    between atoms: C_15  and  O_16
REMARK                            x       y       z     vdW  Elec       q    Type
REMARK                         _______ _______ _______ _____ _____    ______ ____
ROOT
ATOM      1  C   UNL     1       5.173  -4.914  23.012  0.00  0.00    +0.142 A 
ATOM      2  C   UNL     1       5.808  -4.216  24.045  0.00  0.00    +0.050 A 
ATOM      3  C   UNL     1       7.160  -4.445  24.360  0.00  0.00    -0.030 A 
ATOM      4  C   UNL     1       7.924  -5.222  23.482  0.00  0.00    +0.005 A 
ATOM      5  C   UNL     1       7.339  -5.770  22.338  0.00  0.00    +0.004 A 
ATOM      6  C   UNL     1       5.961  -5.638  22.126  0.00  0.00    +0.046 A 
ENDROOT
BRANCH   1  11
ATOM      7  N   UNL     1       1.739  -6.000  23.023  0.00  0.00    -0.289 N 
ATOM      8  H   UNL     1       1.444  -5.251  22.406  0.00  0.00    +0.255 HD
ATOM      9  H   UNL     1       1.349  -6.890  22.747  0.00  0.00    +0.255 HD
ATOM     10  C   UNL     1       3.081  -5.985  23.197  0.00  0.00    +0.382 C 
ATOM     11  N   UNL     1       3.770  -4.938  22.866  0.00  0.00    -0.073 NA
ATOM     12  N   UNL     1       3.487  -7.161  23.727  0.00  0.00    -0.289 N 
ATOM     13  H   UNL     1       4.461  -7.415  23.595  0.00  0.00    +0.255 HD
ATOM     14  H   UNL     1       2.866  -7.951  23.723  0.00  0.00    +0.255 HD
ENDBRANCH   1  11
BRANCH   3  15
ATOM     15  C   UNL     1       7.670  -3.958  25.714  0.00  0.00    +0.137 C 
BRANCH  15  16
ATOM     16  C   UNL     1       7.447  -4.919  26.878  0.00  0.00    +0.313 C 
ATOM     17  O   UNL     1       6.689  -4.694  27.811  0.00  0.00    -0.250 OA
BRANCH  16  18
ATOM     18  O   UNL     1       8.215  -6.030  26.863  0.00  0.00    -0.480 OA
ATOM     19  H   UNL     1       8.685  -6.211  27.702  0.00  0.00    +0.295 HD
ENDBRANCH  16  18
ENDBRANCH  15  16
BRANCH  15  20
ATOM     20  C   UNL     1       7.053  -2.588  26.100  0.00  0.00    +0.085 C 
BRANCH  20  21
ATOM     21  S   UNL     1       8.241  -1.261  26.518  0.00  0.00    -0.177 S 
ATOM     22  H   UNL     1       9.347  -1.883  26.080  0.00  0.00    +0.102 HD
ENDBRANCH  20  21
ENDBRANCH  15  20
ENDBRANCH   3  15
TORSDOF 6
ENDMDL
MODEL 6
REMARK VINA RESULT:      -5.0      4.259      5.570
REMARK  Name = 
REMARK  6 active torsions:
REMARK  status: ('A' for Active; 'I' for Inactive)
REMARK    1  A    between atoms: N_4  and  C_5
REMARK    2  A    between atoms: C_9  and  C_11
REMARK    3  A    between atoms: C_11  and  C_13
REMARK    4  A    between atoms: C_11  and  C_15
REMARK    5  A    between atoms: C_13  and  S_14
REMARK    6  A    between atoms: C_15  and  O_16
REMARK                            x       y       z     vdW  Elec       q    Type
REMARK                         _______ _______ _______ _____ _____    ______ ____
ROOT
ATOM      1  C   UNL     1       8.025  -0.663  23.210  0.00  0.00    +0.142 A 
ATOM      2  C   UNL     1       8.061  -1.512  24.321  0.00  0.00    +0.050 A 
ATOM      3  C   UNL     1       9.089  -2.458  24.486  0.00  0.00    -0.030 A 
ATOM      4  C   UNL     1      10.198  -2.388  23.635  0.00  0.00    +0.005 A 
ATOM      5  C   UNL     1      10.258  -1.414  22.636  0.00  0.00    +0.004 A 
ATOM      6  C   UNL     1       9.158  -0.577  22.409  0.00  0.00    +0.046 A 
ENDROOT
BRANCH   1  11
ATOM      7  N   UNL     1       5.612   1.991  22.881  0.00  0.00    -0.289 N 
ATOM      8  H   UNL     1       4.873   1.357  22.596  0.00  0.00    +0.255 HD
ATOM      9  H   UNL     1       5.292   2.653  23.573  0.00  0.00    +0.255 HD
ATOM     10  C   UNL     1       6.736   1.312  23.206  0.00  0.00    +0.382 C 
ATOM     11  N   UNL     1       6.874   0.071  22.855  0.00  0.00    -0.073 NA
ATOM     12  N   UNL     1       7.576   2.117  23.894  0.00  0.00    -0.289 N 
ATOM     13  H   UNL     1       8.273   1.668  24.479  0.00  0.00    +0.255 HD
ATOM     14  H   UNL     1       7.236   2.983  24.276  0.00  0.00    +0.255 HD
ENDBRANCH   1  11
BRANCH   3  15
ATOM     15  C   UNL     1       8.863  -3.592  25.483  0.00  0.00    +0.137 C 
BRANCH  15  16
ATOM     16  C   UNL     1       9.341  -4.967  25.024  0.00  0.00    +0.313 C 
ATOM     17  O   UNL     1       8.848  -5.581  24.088  0.00  0.00    -0.250 OA
BRANCH  16  18
ATOM     18  O   UNL     1      10.313  -5.522  25.780  0.00  0.00    -0.480 OA
ATOM     19  H   UNL     1      11.119  -4.976  25.870  0.00  0.00    +0.295 HD
ENDBRANCH  16  18
ENDBRANCH  15  16
BRANCH  15  20
ATOM     20  C   UNL     1       7.369  -3.714  25.884  0.00  0.00    +0.085 C 
BRANCH  20  21
ATOM     21  S   UNL     1       6.975  -4.986  27.137  0.00  0.00    -0.177 S 
ATOM     22  H   UNL     1       8.166  -5.606  27.126  0.00  0.00    +0.102 HD
ENDBRANCH  20  21
ENDBRANCH  15  20
ENDBRANCH   3  15
TORSDOF 6
ENDMDL
MODEL 7
REMARK VINA RESULT:      -4.9      1.918      2.762
REMARK  Name = 
REMARK  6 active torsions:
REMARK  status: ('A' for Active; 'I' for Inactive)
REMARK    1  A    between atoms: N_4  and  C_5
REMARK    2  A    between atoms: C_9  and  C_11
REMARK    3  A    between atoms: C_11  and  C_13
REMARK    4  A    between atoms: C_11  and  C_15
REMARK    5  A    between atoms: C_13  and  S_14
REMARK    6  A    between atoms: C_15  and  O_16
REMARK                            x       y       z     vdW  Elec       q    Type
REMARK                         _______ _______ _______ _____ _____    ______ ____
ROOT
ATOM      1  C   UNL     1       6.637  -4.638  24.327  0.00  0.00    +0.142 A 
ATOM      2  C   UNL     1       7.255  -3.590  23.636  0.00  0.00    +0.050 A 
ATOM      3  C   UNL     1       8.413  -2.967  24.136  0.00  0.00    -0.030 A 
ATOM      4  C   UNL     1       9.067  -3.555  25.224  0.00  0.00    +0.005 A 
ATOM      5  C   UNL     1       8.558  -4.718  25.806  0.00  0.00    +0.004 A 
ATOM      6  C   UNL     1       7.331  -5.236  25.374  0.00  0.00    +0.046 A 
ENDROOT
BRANCH   1  11
ATOM      7  N   UNL     1       3.849  -6.307  22.772  0.00  0.00    -0.289 N 
ATOM      8  H   UNL     1       3.171  -5.686  23.200  0.00  0.00    +0.255 HD
ATOM      9  H   UNL     1       3.658  -6.453  21.792  0.00  0.00    +0.255 HD
ATOM     10  C   UNL     1       5.113  -5.919  23.064  0.00  0.00    +0.382 C 
ATOM     11  N   UNL     1       5.332  -5.077  24.026  0.00  0.00    -0.073 NA
ATOM     12  N   UNL     1       5.984  -6.530  22.231  0.00  0.00    -0.289 N 
ATOM     13  H   UNL     1       6.891  -6.092  22.107  0.00  0.00    +0.255 HD
ATOM     14  H   UNL     1       5.645  -6.983  21.400  0.00  0.00    +0.255 HD
ENDBRANCH   1  11
BRANCH   3  15
ATOM     15  C   UNL     1       8.799  -1.608  23.556  0.00  0.00    +0.137 C 
BRANCH  15  16
ATOM     16  C   UNL     1       9.797  -1.653  22.402  0.00  0.00    +0.313 C 
ATOM     17  O   UNL     1      10.936  -2.087  22.504  0.00  0.00    -0.250 OA
BRANCH  16  18
ATOM     18  O   UNL     1       9.369  -1.096  21.248  0.00  0.00    -0.480 OA
ATOM     19  H   UNL     1       9.182  -1.736  20.533  0.00  0.00    +0.295 HD
ENDBRANCH  16  18
ENDBRANCH  15  16
BRANCH  15  20
ATOM     20  C   UNL     1       9.369  -0.661  24.645  0.00  0.00    +0.085 C 
BRANCH  20  21
ATOM     21  S   UNL     1       9.333   1.125  24.254  0.00  0.00    -0.177 S 
ATOM     22  H   UNL     1       9.919   1.045  23.048  0.00  0.00    +0.102 HD
ENDBRANCH  20  21
ENDBRANCH  15  20
ENDBRANCH   3  15
TORSDOF 6
ENDMDL
MODEL 8
REMARK VINA RESULT:      -4.9      4.093      5.333
REMARK  Name = 
REMARK  6 active torsions:
REMARK  status: ('A' for Active; 'I' for Inactive)
REMARK    1  A    between atoms: N_4  and  C_5
REMARK    2  A    between atoms: C_9  and  C_11
REMARK    3  A    between atoms: C_11  and  C_13
REMARK    4  A    between atoms: C_11  and  C_15
REMARK    5  A    between atoms: C_13  and  S_14
REMARK    6  A    between atoms: C_15  and  O_16
REMARK                            x       y       z     vdW  Elec       q    Type
REMARK                         _______ _______ _______ _____ _____    ______ ____
ROOT
ATOM      1  C   UNL     1       7.407  -1.806  22.987  0.00  0.00    +0.142 A 
ATOM      2  C   UNL     1       7.913  -2.643  23.988  0.00  0.00    +0.050 A 
ATOM      3  C   UNL     1       7.189  -3.760  24.442  0.00  0.00    -0.030 A 
ATOM      4  C   UNL     1       6.054  -4.153  23.725  0.00  0.00    +0.005 A 
ATOM      5  C   UNL     1       5.646  -3.429  22.602  0.00  0.00    +0.004 A 
ATOM      6  C   UNL     1       6.307  -2.243  22.258  0.00  0.00    +0.046 A 
ENDROOT
BRANCH   1  11
ATOM      7  N   UNL     1       9.525   0.843  21.774  0.00  0.00    -0.289 N 
ATOM      8  H   UNL     1       9.148   1.517  22.431  0.00  0.00    +0.255 HD
ATOM      9  H   UNL     1      10.532   0.885  21.728  0.00  0.00    +0.255 HD
ATOM     10  C   UNL     1       9.006  -0.388  21.992  0.00  0.00    +0.382 C 
ATOM     11  N   UNL     1       7.945  -0.530  22.724  0.00  0.00    -0.073 NA
ATOM     12  N   UNL     1       9.752  -1.319  21.356  0.00  0.00    -0.289 N 
ATOM     13  H   UNL     1       9.692  -2.273  21.697  0.00  0.00    +0.255 HD
ATOM     14  H   UNL     1      10.665  -1.077  21.012  0.00  0.00    +0.255 HD
ENDBRANCH   1  11
BRANCH   3  15
ATOM     15  C   UNL     1       7.602  -4.385  25.773  0.00  0.00    +0.137 C 
BRANCH  15  16
ATOM     16  C   UNL     1       9.018  -4.953  25.814  0.00  0.00    +0.313 C 
ATOM     17  O   UNL     1       9.555  -5.512  24.868  0.00  0.00    -0.250 OA
BRANCH  16  18
ATOM     18  O   UNL     1       9.636  -4.875  27.013  0.00  0.00    -0.480 OA
ATOM     19  H   UNL     1      10.564  -5.182  27.013  0.00  0.00    +0.295 HD
ENDBRANCH  16  18
ENDBRANCH  15  16
BRANCH  15  20
ATOM     20  C   UNL     1       6.623  -5.508  26.207  0.00  0.00    +0.085 C 
BRANCH  20  21
ATOM     21  S   UNL     1       6.082  -5.471  27.953  0.00  0.00    -0.177 S 
ATOM     22  H   UNL     1       7.202  -5.985  28.487  0.00  0.00    +0.102 HD
ENDBRANCH  20  21
ENDBRANCH  15  20
ENDBRANCH   3  15
TORSDOF 6
ENDMDL
MODEL 9
REMARK VINA RESULT:      -4.9      4.739      6.020
REMARK  Name = 
REMARK  6 active torsions:
REMARK  status: ('A' for Active; 'I' for Inactive)
REMARK    1  A    between atoms: N_4  and  C_5
REMARK    2  A    between atoms: C_9  and  C_11
REMARK    3  A    between atoms: C_11  and  C_13
REMARK    4  A    between atoms: C_11  and  C_15
REMARK    5  A    between atoms: C_13  and  S_14
REMARK    6  A    between atoms: C_15  and  O_16
REMARK                            x       y       z     vdW  Elec       q    Type
REMARK                         _______ _______ _______ _____ _____    ______ ____
ROOT
ATOM      1  C   UNL     1       9.056  -1.227  22.709  0.00  0.00    +0.142 A 
ATOM      2  C   UNL     1       7.720  -1.640  22.773  0.00  0.00    +0.050 A 
ATOM      3  C   UNL     1       7.361  -2.868  23.357  0.00  0.00    -0.030 A 
ATOM      4  C   UNL     1       8.335  -3.573  24.072  0.00  0.00    +0.005 A 
ATOM      5  C   UNL     1       9.634  -3.070  24.175  0.00  0.00    +0.004 A 
ATOM      6  C   UNL     1       9.995  -1.917  23.467  0.00  0.00    +0.046 A 
ENDROOT
BRANCH   1  11
ATOM      7  N   UNL     1       9.933   2.050  21.498  0.00  0.00    -0.289 N 
ATOM      8  H   UNL     1       9.894   1.760  20.527  0.00  0.00    +0.255 HD
ATOM      9  H   UNL     1       9.465   2.932  21.645  0.00  0.00    +0.255 HD
ATOM     10  C   UNL     1       9.548   1.046  22.320  0.00  0.00    +0.382 C 
ATOM     11  N   UNL     1       9.483  -0.171  21.877  0.00  0.00    -0.073 NA
ATOM     12  N   UNL     1       9.280   1.537  23.550  0.00  0.00    -0.289 N 
ATOM     13  H   UNL     1       8.674   0.984  24.148  0.00  0.00    +0.255 HD
ATOM     14  H   UNL     1       9.166   2.528  23.677  0.00  0.00    +0.255 HD
ENDBRANCH   1  11
BRANCH   3  15
ATOM     15  C   UNL     1       5.974  -3.427  23.049  0.00  0.00    +0.137 C 
BRANCH  15  16
ATOM     16  C   UNL     1       4.891  -3.075  24.065  0.00  0.00    +0.313 C 
ATOM     17  O   UNL     1       4.904  -2.063  24.751  0.00  0.00    -0.250 OA
BRANCH  16  18
ATOM     18  O   UNL     1       3.929  -4.009  24.228  0.00  0.00    -0.480 OA
ATOM     19  H   UNL     1       3.023  -3.650  24.309  0.00  0.00    +0.295 HD
ENDBRANCH  16  18
ENDBRANCH  15  16
BRANCH  15  20
ATOM     20  C   UNL     1       6.000  -4.970  22.892  0.00  0.00    +0.085 C 
BRANCH  20  21
ATOM     21  S   UNL     1       6.300  -5.600  21.201  0.00  0.00    -0.177 S 
ATOM     22  H   UNL     1       7.539  -5.104  21.055  0.00  0.00    +0.102 HD
ENDBRANCH  20  21
ENDBRANCH  15  20
ENDBRANCH   3  15
TORSDOF 6
ENDMDL
