MODEL 1
REMARK VINA RESULT:      -4.6      0.000      0.000
REMARK  Name = 
REMARK  5 active torsions:
REMARK  status: ('A' for Active; 'I' for Inactive)
REMARK    1  A    between atoms: C_1  and  C_2
REMARK    2  A    between atoms: C_5  and  O_7
REMARK    3  A    between atoms: C_8  and  O_10
REMARK    4  A    between atoms: C_11  and  O_13
REMARK    5  A    between atoms: C_14  and  O_16
REMARK                            x       y       z     vdW  Elec       q    Type
REMARK                         _______ _______ _______ _____ _____    ______ ____
ROOT
ATOM      1  C   UNL     1       5.271  -3.022  24.868  0.00  0.00    +0.041 C 
ATOM      2  C   UNL     1       6.510  -3.911  24.822  0.00  0.00    +0.149 C 
ATOM      3  C   UNL     1       7.738  -3.155  24.286  0.00  0.00    +0.174 C 
ATOM      4  C   UNL     1       8.986  -4.043  24.396  0.00  0.00    +0.179 C 
ATOM      5  C   UNL     1       9.130  -4.660  25.778  0.00  0.00    +0.201 C 
ATOM      6  C   UNL     1       7.814  -5.338  26.171  0.00  0.00    +0.279 C 
ATOM      7  O   UNL     1       6.736  -4.416  26.143  0.00  0.00    -0.343 OA
ENDROOT
BRANCH   3   8
ATOM      8  O   UNL     1       7.521  -2.818  22.909  0.00  0.00    -0.387 OA
ATOM      9  H   UNL     1       8.395  -2.562  22.550  0.00  0.00    +0.210 HD
ENDBRANCH   3   8
BRANCH   4  10
ATOM     10  O   UNL     1      10.164  -3.285  24.063  0.00  0.00    -0.386 OA
ATOM     11  H   UNL     1       9.864  -2.356  24.008  0.00  0.00    +0.210 HD
ENDBRANCH   4  10
BRANCH   5  12
ATOM     12  O   UNL     1      10.216  -5.601  25.729  0.00  0.00    -0.384 OA
ATOM     13  H   UNL     1       9.898  -6.336  25.171  0.00  0.00    +0.210 HD
ENDBRANCH   5  12
BRANCH   6  14
ATOM     14  O   UNL     1       7.945  -5.835  27.493  0.00  0.00    -0.365 OA
ATOM     15  H   UNL     1       7.155  -5.498  27.950  0.00  0.00    +0.213 HD
ENDBRANCH   6  14
TORSDOF 4
ENDMDL
MODEL 2
REMARK VINA RESULT:      -4.6      4.413      6.083
REMARK  Name = 
REMARK  5 active torsions:
REMARK  status: ('A' for Active; 'I' for Inactive)
REMARK    1  A    between atoms: C_1  and  C_2
REMARK    2  A    between atoms: C_5  and  O_7
REMARK    3  A    between atoms: C_8  and  O_10
REMARK    4  A    between atoms: C_11  and  O_13
REMARK    5  A    between atoms: C_14  and  O_16
REMARK                            x       y       z     vdW  Elec       q    Type
REMARK                         _______ _______ _______ _____ _____    ______ ____
ROOT
ATOM      1  C   UNL     1       9.599  -2.371  24.153  0.00  0.00    +0.041 C 
ATOM      2  C   UNL     1       9.862  -0.940  23.697  0.00  0.00    +0.149 C 
ATOM      3  C   UNL     1       9.339  -0.686  22.272  0.00  0.00    +0.174 C 
ATOM      4  C   UNL     1       9.494   0.800  21.917  0.00  0.00    +0.179 C 
ATOM      5  C   UNL     1       8.946   1.710  23.003  0.00  0.00    +0.201 C 
ATOM      6  C   UNL     1       9.538   1.301  24.355  0.00  0.00    +0.279 C 
ATOM      7  O   UNL     1       9.254  -0.057  24.648  0.00  0.00    -0.343 OA
ENDROOT
BRANCH   3   8
ATOM      8  O   UNL     1      10.096  -1.474  21.344  0.00  0.00    -0.387 OA
ATOM      9  H   UNL     1       9.526  -2.231  21.100  0.00  0.00    +0.210 HD
ENDBRANCH   3   8
BRANCH   4  10
ATOM     10  O   UNL     1       8.848   1.077  20.659  0.00  0.00    -0.386 OA
ATOM     11  H   UNL     1       9.478   0.775  19.976  0.00  0.00    +0.210 HD
ENDBRANCH   4  10
BRANCH   5  12
ATOM     12  O   UNL     1       9.292   3.062  22.661  0.00  0.00    -0.384 OA
ATOM     13  H   UNL     1       8.461   3.569  22.726  0.00  0.00    +0.210 HD
ENDBRANCH   5  12
BRANCH   6  14
ATOM     14  O   UNL     1       8.951   2.109  25.362  0.00  0.00    -0.365 OA
ATOM     15  H   UNL     1       9.661   2.217  26.019  0.00  0.00    +0.213 HD
ENDBRANCH   6  14
TORSDOF 4
ENDMDL
MODEL 3
REMARK VINA RESULT:      -4.5      4.530      6.241
REMARK  Name = 
REMARK  5 active torsions:
REMARK  status: ('A' for Active; 'I' for Inactive)
REMARK    1  A    between atoms: C_1  and  C_2
REMARK    2  A    between atoms: C_5  and  O_7
REMARK    3  A    between atoms: C_8  and  O_10
REMARK    4  A    between atoms: C_11  and  O_13
REMARK    5  A    between atoms: C_14  and  O_16
REMARK                            x       y       z     vdW  Elec       q    Type
REMARK                         _______ _______ _______ _____ _____    ______ ____
ROOT
ATOM      1  C   UNL     1       9.059  -0.890  26.054  0.00  0.00    +0.041 C 
ATOM      2  C   UNL     1       9.729  -0.143  24.907  0.00  0.00    +0.149 C 
ATOM      3  C   UNL     1       9.465  -0.819  23.550  0.00  0.00    +0.174 C 
ATOM      4  C   UNL     1      10.033   0.046  22.416  0.00  0.00    +0.179 C 
ATOM      5  C   UNL     1       9.604   1.500  22.534  0.00  0.00    +0.201 C 
ATOM      6  C   UNL     1       9.904   2.004  23.949  0.00  0.00    +0.279 C 
ATOM      7  O   UNL     1       9.252   1.208  24.924  0.00  0.00    -0.343 OA
ENDROOT
BRANCH   3   8
ATOM      8  O   UNL     1      10.106  -2.101  23.529  0.00  0.00    -0.387 OA
ATOM      9  H   UNL     1      10.874  -2.014  22.927  0.00  0.00    +0.210 HD
ENDBRANCH   3   8
BRANCH   4  10
ATOM     10  O   UNL     1       9.637  -0.490  21.139  0.00  0.00    -0.386 OA
ATOM     11  H   UNL     1       8.765  -0.090  20.953  0.00  0.00    +0.210 HD
ENDBRANCH   4  10
BRANCH   5  12
ATOM     12  O   UNL     1      10.320   2.252  21.540  0.00  0.00    -0.384 OA
ATOM     13  H   UNL     1      11.253   1.979  21.630  0.00  0.00    +0.210 HD
ENDBRANCH   5  12
BRANCH   6  14
ATOM     14  O   UNL     1       9.422   3.334  24.059  0.00  0.00    -0.365 OA
ATOM     15  H   UNL     1       9.627   3.730  23.195  0.00  0.00    +0.213 HD
ENDBRANCH   6  14
TORSDOF 4
ENDMDL
MODEL 4
REMARK VINA RESULT:      -4.5      4.081      5.942
REMARK  Name = 
REMARK  5 active torsions:
REMARK  status: ('A' for Active; 'I' for Inactive)
REMARK    1  A    between atoms: C_1  and  C_2
REMARK    2  A    between atoms: C_5  and  O_7
REMARK    3  A    between atoms: C_8  and  O_10
REMARK    4  A    between atoms: C_11  and  O_13
REMARK    5  A    between atoms: C_14  and  O_16
REMARK                            x       y       z     vdW  Elec       q    Type
REMARK                         _______ _______ _______ _____ _____    ______ ____
ROOT
ATOM      1  C   UNL     1       8.316   2.432  25.126  0.00  0.00    +0.041 C 
ATOM      2  C   UNL     1       9.152   1.505  24.251  0.00  0.00    +0.149 C 
ATOM      3  C   UNL     1       9.148   0.059  24.779  0.00  0.00    +0.174 C 
ATOM      4  C   UNL     1       9.878  -0.860  23.789  0.00  0.00    +0.179 C 
ATOM      5  C   UNL     1       9.393  -0.666  22.362  0.00  0.00    +0.201 C 
ATOM      6  C   UNL     1       9.429   0.824  22.011  0.00  0.00    +0.279 C 
ATOM      7  O   UNL     1       8.641   1.581  22.916  0.00  0.00    -0.343 OA
ENDROOT
BRANCH   3   8
ATOM      8  O   UNL     1       9.819   0.016  26.045  0.00  0.00    -0.387 OA
ATOM      9  H   UNL     1      10.722   0.360  25.887  0.00  0.00    +0.210 HD
ENDBRANCH   3   8
BRANCH   4  10
ATOM     10  O   UNL     1       9.724  -2.236  24.187  0.00  0.00    -0.386 OA
ATOM     11  H   UNL     1       8.760  -2.380  24.244  0.00  0.00    +0.210 HD
ENDBRANCH   4  10
BRANCH   5  12
ATOM     12  O   UNL     1      10.248  -1.434  21.499  0.00  0.00    -0.384 OA
ATOM     13  H   UNL     1      10.567  -0.806  20.823  0.00  0.00    +0.210 HD
ENDBRANCH   5  12
BRANCH   6  14
ATOM     14  O   UNL     1       8.897   0.989  20.707  0.00  0.00    -0.365 OA
ATOM     15  H   UNL     1       8.300   0.227  20.599  0.00  0.00    +0.213 HD
ENDBRANCH   6  14
TORSDOF 4
ENDMDL
MODEL 5
REMARK VINA RESULT:      -4.4      1.115      3.154
REMARK  Name = 
REMARK  5 active torsions:
REMARK  status: ('A' for Active; 'I' for Inactive)
REMARK    1  A    between atoms: C_1  and  C_2
REMARK    2  A    between atoms: C_5  and  O_7
REMARK    3  A    between atoms: C_8  and  O_10
REMARK    4  A    between atoms: C_11  and  O_13
REMARK    5  A    between atoms: C_14  and  O_16
REMARK                            x       y       z     vdW  Elec       q    Type
REMARK                         _______ _______ _______ _____ _____    ______ ____
ROOT
ATOM      1  C   UNL     1       5.492  -4.441  26.927  0.00  0.00    +0.041 C 
ATOM      2  C   UNL     1       6.879  -4.016  26.458  0.00  0.00    +0.149 C 
ATOM      3  C   UNL     1       7.798  -5.226  26.215  0.00  0.00    +0.174 C 
ATOM      4  C   UNL     1       9.128  -4.758  25.607  0.00  0.00    +0.179 C 
ATOM      5  C   UNL     1       8.921  -3.827  24.424  0.00  0.00    +0.201 C 
ATOM      6  C   UNL     1       7.958  -2.704  24.823  0.00  0.00    +0.279 C 
ATOM      7  O   UNL     1       6.720  -3.229  25.272  0.00  0.00    -0.343 OA
ENDROOT
BRANCH   3   8
ATOM      8  O   UNL     1       8.057  -5.880  27.465  0.00  0.00    -0.387 OA
ATOM      9  H   UNL     1       8.595  -5.257  27.994  0.00  0.00    +0.210 HD
ENDBRANCH   3   8
BRANCH   4  10
ATOM     10  O   UNL     1       9.920  -5.896  25.215  0.00  0.00    -0.386 OA
ATOM     11  H   UNL     1       9.274  -6.576  24.942  0.00  0.00    +0.210 HD
ENDBRANCH   4  10
BRANCH   5  12
ATOM     12  O   UNL     1      10.206  -3.311  24.039  0.00  0.00    -0.384 OA
ATOM     13  H   UNL     1      10.091  -2.344  23.979  0.00  0.00    +0.210 HD
ENDBRANCH   5  12
BRANCH   6  14
ATOM     14  O   UNL     1       7.717  -1.897  23.682  0.00  0.00    -0.365 OA
ATOM     15  H   UNL     1       6.863  -1.472  23.872  0.00  0.00    +0.213 HD
ENDBRANCH   6  14
TORSDOF 4
ENDMDL
MODEL 6
REMARK VINA RESULT:      -4.4      4.178      5.210
REMARK  Name = 
REMARK  5 active torsions:
REMARK  status: ('A' for Active; 'I' for Inactive)
REMARK    1  A    between atoms: C_1  and  C_2
REMARK    2  A    between atoms: C_5  and  O_7
REMARK    3  A    between atoms: C_8  and  O_10
REMARK    4  A    between atoms: C_11  and  O_13
REMARK    5  A    between atoms: C_14  and  O_16
REMARK                            x       y       z     vdW  Elec       q    Type
REMARK                         _______ _______ _______ _____ _____    ______ ____
ROOT
ATOM      1  C   UNL     1       9.350   3.120  23.246  0.00  0.00    +0.041 C 
ATOM      2  C   UNL     1       9.064   1.634  23.426  0.00  0.00    +0.149 C 
ATOM      3  C   UNL     1       9.781   0.778  22.366  0.00  0.00    +0.174 C 
ATOM      4  C   UNL     1       9.581  -0.712  22.676  0.00  0.00    +0.179 C 
ATOM      5  C   UNL     1       9.892  -1.043  24.127  0.00  0.00    +0.201 C 
ATOM      6  C   UNL     1       9.128  -0.081  25.042  0.00  0.00    +0.279 C 
ATOM      7  O   UNL     1       9.456   1.268  24.753  0.00  0.00    -0.343 OA
ENDROOT
BRANCH   3   8
ATOM      8  O   UNL     1       9.231   1.068  21.074  0.00  0.00    -0.387 OA
ATOM      9  H   UNL     1       8.427   1.603  21.233  0.00  0.00    +0.210 HD
ENDBRANCH   3   8
BRANCH   4  10
ATOM     10  O   UNL     1      10.392  -1.513  21.796  0.00  0.00    -0.386 OA
ATOM     11  H   UNL     1       9.767  -1.898  21.151  0.00  0.00    +0.210 HD
ENDBRANCH   4  10
BRANCH   5  12
ATOM     12  O   UNL     1       9.511  -2.409  24.358  0.00  0.00    -0.384 OA
ATOM     13  H   UNL     1       8.728  -2.560  23.794  0.00  0.00    +0.210 HD
ENDBRANCH   5  12
BRANCH   6  14
ATOM     14  O   UNL     1       9.496  -0.356  26.384  0.00  0.00    -0.365 OA
ATOM     15  H   UNL     1       8.943   0.250  26.907  0.00  0.00    +0.213 HD
ENDBRANCH   6  14
TORSDOF 4
ENDMDL
MODEL 7
REMARK VINA RESULT:      -4.2      4.061      5.685
REMARK  Name = 
REMARK  5 active torsions:
REMARK  status: ('A' for Active; 'I' for Inactive)
REMARK    1  A    between atoms: C_1  and  C_2
REMARK    2  A    between atoms: C_5  and  O_7
REMARK    3  A    between atoms: C_8  and  O_10
REMARK    4  A    between atoms: C_11  and  O_13
REMARK    5  A    between atoms: C_14  and  O_16
REMARK                            x       y       z     vdW  Elec       q    Type
REMARK                         _______ _______ _______ _____ _____    ______ ____
ROOT
ATOM      1  C   UNL     1       8.691  -1.898  25.900  0.00  0.00    +0.041 C 
ATOM      2  C   UNL     1       8.673  -0.953  24.703  0.00  0.00    +0.149 C 
ATOM      3  C   UNL     1       9.211   0.442  25.065  0.00  0.00    +0.174 C 
ATOM      4  C   UNL     1       9.309   1.308  23.801  0.00  0.00    +0.179 C 
ATOM      5  C   UNL     1      10.023   0.588  22.668  0.00  0.00    +0.201 C 
ATOM      6  C   UNL     1       9.388  -0.791  22.463  0.00  0.00    +0.279 C 
ATOM      7  O   UNL     1       9.438  -1.558  23.654  0.00  0.00    -0.343 OA
ENDROOT
BRANCH   3   8
ATOM      8  O   UNL     1       8.315   1.067  25.995  0.00  0.00    -0.387 OA
ATOM      9  H   UNL     1       8.372   0.545  26.821  0.00  0.00    +0.210 HD
ENDBRANCH   3   8
BRANCH   4  10
ATOM     10  O   UNL     1       9.975   2.549  24.102  0.00  0.00    -0.386 OA
ATOM     11  H   UNL     1       9.265   3.219  24.134  0.00  0.00    +0.210 HD
ENDBRANCH   4  10
BRANCH   5  12
ATOM     12  O   UNL     1       9.910   1.404  21.490  0.00  0.00    -0.384 OA
ATOM     13  H   UNL     1       9.506   0.828  20.813  0.00  0.00    +0.210 HD
ENDBRANCH   5  12
BRANCH   6  14
ATOM     14  O   UNL     1      10.120  -1.474  21.458  0.00  0.00    -0.365 OA
ATOM     15  H   UNL     1      10.919  -0.931  21.340  0.00  0.00    +0.213 HD
ENDBRANCH   6  14
TORSDOF 4
ENDMDL
MODEL 8
REMARK VINA RESULT:      -4.2      1.617      3.355
REMARK  Name = 
REMARK  5 active torsions:
REMARK  status: ('A' for Active; 'I' for Inactive)
REMARK    1  A    between atoms: C_1  and  C_2
REMARK    2  A    between atoms: C_5  and  O_7
REMARK    3  A    between atoms: C_8  and  O_10
REMARK    4  A    between atoms: C_11  and  O_13
REMARK    5  A    between atoms: C_14  and  O_16
REMARK                            x       y       z     vdW  Elec       q    Type
REMARK                         _______ _______ _______ _____ _____    ______ ____
ROOT
ATOM      1  C   UNL     1       4.663  -5.146  24.144  0.00  0.00    +0.041 C 
ATOM      2  C   UNL     1       5.815  -4.753  25.062  0.00  0.00    +0.149 C 
ATOM      3  C   UNL     1       5.913  -5.677  26.289  0.00  0.00    +0.174 C 
ATOM      4  C   UNL     1       7.170  -5.334  27.102  0.00  0.00    +0.179 C 
ATOM      5  C   UNL     1       8.411  -5.247  26.229  0.00  0.00    +0.201 C 
ATOM      6  C   UNL     1       8.133  -4.320  25.041  0.00  0.00    +0.279 C 
ATOM      7  O   UNL     1       7.020  -4.775  24.288  0.00  0.00    -0.343 OA
ENDROOT
BRANCH   3   8
ATOM      8  O   UNL     1       4.755  -5.490  27.113  0.00  0.00    -0.387 OA
ATOM      9  H   UNL     1       3.994  -5.827  26.596  0.00  0.00    +0.210 HD
ENDBRANCH   3   8
BRANCH   4  10
ATOM     10  O   UNL     1       7.362  -6.305  28.148  0.00  0.00    -0.386 OA
ATOM     11  H   UNL     1       7.694  -5.795  28.913  0.00  0.00    +0.210 HD
ENDBRANCH   4  10
BRANCH   5  12
ATOM     12  O   UNL     1       9.488  -4.755  27.043  0.00  0.00    -0.384 OA
ATOM     13  H   UNL     1       9.270  -5.026  27.955  0.00  0.00    +0.210 HD
ENDBRANCH   5  12
BRANCH   6  14
ATOM     14  O   UNL     1       9.275  -4.319  24.199  0.00  0.00    -0.365 OA
ATOM     15  H   UNL     1       9.814  -5.056  24.535  0.00  0.00    +0.213 HD
ENDBRANCH   6  14
TORSDOF 4
ENDMDL
MODEL 9
REMARK VINA RESULT:      -4.1      1.539      2.498
REMARK  Name = 
REMARK  5 active torsions:
REMARK  status: ('A' for Active; 'I' for Inactive)
REMARK    1  A    between atoms: C_1  and  C_2
REMARK    2  A    between atoms: C_5  and  O_7
REMARK    3  A    between atoms: C_8  and  O_10
REMARK    4  A    between atoms: C_11  and  O_13
REMARK    5  A    between atoms: C_14  and  O_16
REMARK                            x       y       z     vdW  Elec       q    Type
REMARK                         _______ _______ _______ _____ _____    ______ ____
ROOT
ATOM      1  C   UNL     1       6.335  -3.727  23.286  0.00  0.00    +0.041 C 
ATOM      2  C   UNL     1       6.710  -4.699  24.398  0.00  0.00    +0.149 C 
ATOM      3  C   UNL     1       8.032  -4.307  25.082  0.00  0.00    +0.174 C 
ATOM      4  C   UNL     1       8.291  -5.227  26.284  0.00  0.00    +0.179 C 
ATOM      5  C   UNL     1       7.077  -5.340  27.191  0.00  0.00    +0.201 C 
ATOM      6  C   UNL     1       5.847  -5.700  26.351  0.00  0.00    +0.279 C 
ATOM      7  O   UNL     1       5.625  -4.739  25.332  0.00  0.00    -0.343 OA
ENDROOT
BRANCH   3   8
ATOM      8  O   UNL     1       9.108  -4.446  24.144  0.00  0.00    -0.387 OA
ATOM      9  H   UNL     1       9.780  -5.009  24.579  0.00  0.00    +0.210 HD
ENDBRANCH   3   8
BRANCH   4  10
ATOM     10  O   UNL     1       9.430  -4.756  27.030  0.00  0.00    -0.386 OA
ATOM     11  H   UNL     1       9.815  -4.041  26.486  0.00  0.00    +0.210 HD
ENDBRANCH   4  10
BRANCH   5  12
ATOM     12  O   UNL     1       7.357  -6.347  28.178  0.00  0.00    -0.384 OA
ATOM     13  H   UNL     1       7.981  -5.932  28.802  0.00  0.00    +0.210 HD
ENDBRANCH   5  12
BRANCH   6  14
ATOM     14  O   UNL     1       4.714  -5.721  27.204  0.00  0.00    -0.365 OA
ATOM     15  H   UNL     1       3.985  -5.991  26.619  0.00  0.00    +0.213 HD
ENDBRANCH   6  14
TORSDOF 4
ENDMDL
