MODEL 1
REMARK VINA RESULT:      -5.7      0.000      0.000
REMARK  Name = 
REMARK  6 active torsions:
REMARK  status: ('A' for Active; 'I' for Inactive)
REMARK    1  A    between atoms: N_1  and  CA_2
REMARK    2  A    between atoms: CA_2  and  C_4
REMARK    3  A    between atoms: CA_2  and  C_14
REMARK    4  A    between atoms: C_4  and  C_5
REMARK    5  A    between atoms: C_9  and  O_10
REMARK    6  A    between atoms: C_14  and  O_15
REMARK                            x       y       z     vdW  Elec       q    Type
REMARK                         _______ _______ _______ _____ _____    ______ ____
ROOT
ATOM      1  C   UNL     1       9.027  -1.354  24.021  0.00  0.00    +0.005 C 
ATOM      2  C   UNL     1       8.630  -1.294  22.587  0.00  0.00    +0.186 C 
ATOM      3  O   UNL     1       7.893  -2.142  22.097  0.00  0.00    -0.287 OA
ATOM      4  C   UNL     1       9.073  -0.142  21.788  0.00  0.00    +0.100 C 
ATOM      5  C   UNL     1       9.841   0.813  22.316  0.00  0.00    +0.167 C 
ATOM      6  C   UNL     1      10.305   0.728  23.724  0.00  0.00    +0.221 C 
ATOM      7  O   UNL     1      11.044   1.594  24.177  0.00  0.00    -0.284 OA
ATOM      8  C   UNL     1       9.832  -0.409  24.532  0.00  0.00    +0.062 C 
ENDROOT
BRANCH   5   9
ATOM      9  O   UNL     1      10.225   1.914  21.574  0.00  0.00    -0.503 OA
ATOM     10  H   UNL     1      10.377   2.628  22.232  0.00  0.00    +0.292 HD
ENDBRANCH   5   9
BRANCH   1  11
ATOM     11  C   UNL     1       8.483  -2.504  24.840  0.00  0.00    +0.069 C 
BRANCH  11  12
ATOM     12  CA  UNL     1       9.157  -3.865  24.565  0.00  0.00    +0.165 C 
BRANCH  12  13
ATOM     13  N   UNL     1       8.418  -4.756  23.617  0.00  0.00    -0.318 NA
ATOM     14  H1  UNL     1       8.002  -5.538  24.135  0.00  0.00    +0.119 HD
ATOM     15  H2  UNL     1       7.575  -4.249  23.321  0.00  0.00    +0.119 HD
ENDBRANCH  12  13
BRANCH  12  16
ATOM     16  C   UNL     1       9.386  -4.620  25.884  0.00  0.00    +0.322 C 
ATOM     17  OXT UNL     1       8.795  -4.407  26.930  0.00  0.00    -0.249 OA
BRANCH  16  18
ATOM     18  O   UNL     1      10.324  -5.595  25.736  0.00  0.00    -0.480 OA
ATOM     19  H   UNL     1      10.175  -6.227  26.485  0.00  0.00    +0.295 HD
ENDBRANCH  16  18
ENDBRANCH  12  16
ENDBRANCH  11  12
ENDBRANCH   1  11
TORSDOF 6
ENDMDL
MODEL 2
REMARK VINA RESULT:      -5.6      2.263      5.956
REMARK  Name = 
REMARK  6 active torsions:
REMARK  status: ('A' for Active; 'I' for Inactive)
REMARK    1  A    between atoms: N_1  and  CA_2
REMARK    2  A    between atoms: CA_2  and  C_4
REMARK    3  A    between atoms: CA_2  and  C_14
REMARK    4  A    between atoms: C_4  and  C_5
REMARK    5  A    between atoms: C_9  and  O_10
REMARK    6  A    between atoms: C_14  and  O_15
REMARK                            x       y       z     vdW  Elec       q    Type
REMARK                         _______ _______ _______ _____ _____    ______ ____
ROOT
ATOM      1  C   UNL     1       7.883  -3.711  23.829  0.00  0.00    +0.005 C 
ATOM      2  C   UNL     1       9.165  -3.900  24.564  0.00  0.00    +0.186 C 
ATOM      3  O   UNL     1      10.205  -3.385  24.167  0.00  0.00    -0.287 OA
ATOM      4  C   UNL     1       9.141  -4.650  25.828  0.00  0.00    +0.100 C 
ATOM      5  C   UNL     1       8.011  -5.182  26.296  0.00  0.00    +0.167 C 
ATOM      6  C   UNL     1       6.740  -5.065  25.538  0.00  0.00    +0.221 C 
ATOM      7  O   UNL     1       5.721  -5.596  25.964  0.00  0.00    -0.284 OA
ATOM      8  C   UNL     1       6.759  -4.284  24.289  0.00  0.00    +0.062 C 
ENDROOT
BRANCH   5   9
ATOM      9  O   UNL     1       7.983  -5.853  27.504  0.00  0.00    -0.503 OA
ATOM     10  H   UNL     1       8.208  -6.785  27.287  0.00  0.00    +0.292 HD
ENDBRANCH   5   9
BRANCH   1  11
ATOM     11  C   UNL     1       7.923  -2.861  22.578  0.00  0.00    +0.069 C 
BRANCH  11  12
ATOM     12  CA  UNL     1       8.113  -1.351  22.833  0.00  0.00    +0.165 C 
BRANCH  12  13
ATOM     13  N   UNL     1       6.866  -0.531  22.727  0.00  0.00    -0.318 NA
ATOM     14  H1  UNL     1       7.099   0.463  22.832  0.00  0.00    +0.119 HD
ATOM     15  H2  UNL     1       6.569  -0.558  21.744  0.00  0.00    +0.119 HD
ENDBRANCH  12  13
BRANCH  12  16
ATOM     16  C   UNL     1       9.169  -0.779  21.873  0.00  0.00    +0.322 C 
ATOM     17  OXT UNL     1       9.121   0.320  21.345  0.00  0.00    -0.249 OA
BRANCH  16  18
ATOM     18  O   UNL     1      10.200  -1.650  21.701  0.00  0.00    -0.480 OA
ATOM     19  H   UNL     1      10.060  -2.061  20.810  0.00  0.00    +0.295 HD
ENDBRANCH  16  18
ENDBRANCH  12  16
ENDBRANCH  11  12
ENDBRANCH   1  11
TORSDOF 6
ENDMDL
MODEL 3
REMARK VINA RESULT:      -5.4      1.600      1.746
REMARK  Name = 
REMARK  6 active torsions:
REMARK  status: ('A' for Active; 'I' for Inactive)
REMARK    1  A    between atoms: N_1  and  CA_2
REMARK    2  A    between atoms: CA_2  and  C_4
REMARK    3  A    between atoms: CA_2  and  C_14
REMARK    4  A    between atoms: C_4  and  C_5
REMARK    5  A    between atoms: C_9  and  O_10
REMARK    6  A    between atoms: C_14  and  O_15
REMARK                            x       y       z     vdW  Elec       q    Type
REMARK                         _______ _______ _______ _____ _____    ______ ____
ROOT
ATOM      1  C   UNL     1       9.857  -1.386  23.584  0.00  0.00    +0.005 C 
ATOM      2  C   UNL     1       9.492  -1.305  22.143  0.00  0.00    +0.186 C 
ATOM      3  O   UNL     1       9.084  -2.290  21.536  0.00  0.00    -0.287 OA
ATOM      4  C   UNL     1       9.549   0.006  21.480  0.00  0.00    +0.100 C 
ATOM      5  C   UNL     1       9.949   1.096  22.136  0.00  0.00    +0.167 C 
ATOM      6  C   UNL     1      10.387   1.017  23.553  0.00  0.00    +0.221 C 
ATOM      7  O   UNL     1      10.791   2.023  24.126  0.00  0.00    -0.284 OA
ATOM      8  C   UNL     1      10.297  -0.291  24.224  0.00  0.00    +0.062 C 
ENDROOT
BRANCH   5   9
ATOM      9  O   UNL     1       9.965   2.335  21.523  0.00  0.00    -0.503 OA
ATOM     10  H   UNL     1       9.021   2.594  21.441  0.00  0.00    +0.292 HD
ENDBRANCH   5   9
BRANCH   1  11
ATOM     11  C   UNL     1       9.705  -2.731  24.261  0.00  0.00    +0.069 C 
BRANCH  11  12
ATOM     12  CA  UNL     1       8.324  -2.974  24.905  0.00  0.00    +0.165 C 
BRANCH  12  13
ATOM     13  N   UNL     1       8.313  -2.952  26.401  0.00  0.00    -0.318 NA
ATOM     14  H1  UNL     1       9.276  -2.885  26.750  0.00  0.00    +0.119 HD
ATOM     15  H2  UNL     1       7.939  -2.039  26.687  0.00  0.00    +0.119 HD
ENDBRANCH  12  13
BRANCH  12  16
ATOM     16  C   UNL     1       7.740  -4.311  24.421  0.00  0.00    +0.322 C 
ATOM     17  OXT UNL     1       7.298  -5.190  25.142  0.00  0.00    -0.249 OA
BRANCH  16  18
ATOM     18  O   UNL     1       7.746  -4.387  23.063  0.00  0.00    -0.480 OA
ATOM     19  H   UNL     1       7.178  -3.637  22.749  0.00  0.00    +0.295 HD
ENDBRANCH  16  18
ENDBRANCH  12  16
ENDBRANCH  11  12
ENDBRANCH   1  11
TORSDOF 6
ENDMDL
MODEL 4
REMARK VINA RESULT:      -5.3      2.022      5.689
REMARK  Name = 
REMARK  6 active torsions:
REMARK  status: ('A' for Active; 'I' for Inactive)
REMARK    1  A    between atoms: N_1  and  CA_2
REMARK    2  A    between atoms: CA_2  and  C_4
REMARK    3  A    between atoms: CA_2  and  C_14
REMARK    4  A    between atoms: C_4  and  C_5
REMARK    5  A    between atoms: C_9  and  O_10
REMARK    6  A    between atoms: C_14  and  O_15
REMARK                            x       y       z     vdW  Elec       q    Type
REMARK                         _______ _______ _______ _____ _____    ______ ____
ROOT
ATOM      1  C   UNL     1       9.548  -1.361  24.298  0.00  0.00    +0.005 C 
ATOM      2  C   UNL     1       8.853  -1.019  25.570  0.00  0.00    +0.186 C 
ATOM      3  O   UNL     1       8.591   0.145  25.856  0.00  0.00    -0.287 OA
ATOM      4  C   UNL     1       8.409  -2.117  26.441  0.00  0.00    +0.100 C 
ATOM      5  C   UNL     1       8.648  -3.391  26.125  0.00  0.00    +0.167 C 
ATOM      6  C   UNL     1       9.404  -3.744  24.897  0.00  0.00    +0.221 C 
ATOM      7  O   UNL     1       9.650  -4.918  24.646  0.00  0.00    -0.284 OA
ATOM      8  C   UNL     1       9.818  -2.643  24.009  0.00  0.00    +0.062 C 
ENDROOT
BRANCH   5   9
ATOM      9  O   UNL     1       8.196  -4.423  26.925  0.00  0.00    -0.503 OA
ATOM     10  H   UNL     1       7.596  -4.000  27.578  0.00  0.00    +0.292 HD
ENDBRANCH   5   9
BRANCH   1  11
ATOM     11  C   UNL     1       9.914  -0.214  23.382  0.00  0.00    +0.069 C 
BRANCH  11  12
ATOM     12  CA  UNL     1       9.049  -0.107  22.108  0.00  0.00    +0.165 C 
BRANCH  12  13
ATOM     13  N   UNL     1       9.568  -0.862  20.926  0.00  0.00    -0.318 NA
ATOM     14  H1  UNL     1       9.507  -0.272  20.089  0.00  0.00    +0.119 HD
ATOM     15  H2  UNL     1      10.587  -0.936  21.038  0.00  0.00    +0.119 HD
ENDBRANCH  12  13
BRANCH  12  16
ATOM     16  C   UNL     1       8.863   1.368  21.716  0.00  0.00    +0.322 C 
ATOM     17  OXT UNL     1       7.789   1.931  21.580  0.00  0.00    -0.249 OA
BRANCH  16  18
ATOM     18  O   UNL     1      10.062   1.992  21.566  0.00  0.00    -0.480 OA
ATOM     19  H   UNL     1       9.949   2.892  21.967  0.00  0.00    +0.295 HD
ENDBRANCH  16  18
ENDBRANCH  12  16
ENDBRANCH  11  12
ENDBRANCH   1  11
TORSDOF 6
ENDMDL
MODEL 5
REMARK VINA RESULT:      -5.3      2.429      2.992
REMARK  Name = 
REMARK  6 active torsions:
REMARK  status: ('A' for Active; 'I' for Inactive)
REMARK    1  A    between atoms: N_1  and  CA_2
REMARK    2  A    between atoms: CA_2  and  C_4
REMARK    3  A    between atoms: CA_2  and  C_14
REMARK    4  A    between atoms: C_4  and  C_5
REMARK    5  A    between atoms: C_9  and  O_10
REMARK    6  A    between atoms: C_14  and  O_15
REMARK                            x       y       z     vdW  Elec       q    Type
REMARK                         _______ _______ _______ _____ _____    ______ ____
ROOT
ATOM      1  C   UNL     1       8.053  -1.419  22.932  0.00  0.00    +0.005 C 
ATOM      2  C   UNL     1       9.521  -1.432  22.679  0.00  0.00    +0.186 C 
ATOM      3  O   UNL     1      10.176  -2.461  22.802  0.00  0.00    -0.287 OA
ATOM      4  C   UNL     1      10.157  -0.198  22.193  0.00  0.00    +0.100 C 
ATOM      5  C   UNL     1       9.451   0.919  22.014  0.00  0.00    +0.167 C 
ATOM      6  C   UNL     1       8.002   0.968  22.332  0.00  0.00    +0.221 C 
ATOM      7  O   UNL     1       7.381   2.016  22.200  0.00  0.00    -0.284 OA
ATOM      8  C   UNL     1       7.360  -0.278  22.786  0.00  0.00    +0.062 C 
ENDROOT
BRANCH   5   9
ATOM      9  O   UNL     1      10.043   2.067  21.520  0.00  0.00    -0.503 OA
ATOM     10  H   UNL     1      10.659   2.364  22.226  0.00  0.00    +0.292 HD
ENDBRANCH   5   9
BRANCH   1  11
ATOM     11  C   UNL     1       7.412  -2.725  23.346  0.00  0.00    +0.069 C 
BRANCH  11  12
ATOM     12  CA  UNL     1       6.921  -3.601  22.174  0.00  0.00    +0.165 C 
BRANCH  12  13
ATOM     13  N   UNL     1       5.445  -3.565  21.934  0.00  0.00    -0.318 NA
ATOM     14  H1  UNL     1       5.137  -2.590  21.843  0.00  0.00    +0.119 HD
ATOM     15  H2  UNL     1       5.286  -3.908  20.979  0.00  0.00    +0.119 HD
ENDBRANCH  12  13
BRANCH  12  16
ATOM     16  C   UNL     1       7.358  -5.060  22.383  0.00  0.00    +0.322 C 
ATOM     17  OXT UNL     1       8.137  -5.447  23.238  0.00  0.00    -0.249 OA
BRANCH  16  18
ATOM     18  O   UNL     1       6.736  -5.890  21.503  0.00  0.00    -0.480 OA
ATOM     19  H   UNL     1       6.390  -5.306  20.780  0.00  0.00    +0.295 HD
ENDBRANCH  16  18
ENDBRANCH  12  16
ENDBRANCH  11  12
ENDBRANCH   1  11
TORSDOF 6
ENDMDL
MODEL 6
REMARK VINA RESULT:      -5.2      1.815      2.272
REMARK  Name = 
REMARK  6 active torsions:
REMARK  status: ('A' for Active; 'I' for Inactive)
REMARK    1  A    between atoms: N_1  and  CA_2
REMARK    2  A    between atoms: CA_2  and  C_4
REMARK    3  A    between atoms: CA_2  and  C_14
REMARK    4  A    between atoms: C_4  and  C_5
REMARK    5  A    between atoms: C_9  and  O_10
REMARK    6  A    between atoms: C_14  and  O_15
REMARK                            x       y       z     vdW  Elec       q    Type
REMARK                         _______ _______ _______ _____ _____    ______ ____
ROOT
ATOM      1  C   UNL     1       8.375  -1.746  23.141  0.00  0.00    +0.005 C 
ATOM      2  C   UNL     1       9.748  -1.440  22.652  0.00  0.00    +0.186 C 
ATOM      3  O   UNL     1      10.639  -2.281  22.699  0.00  0.00    -0.287 OA
ATOM      4  C   UNL     1       9.992  -0.131  22.028  0.00  0.00    +0.100 C 
ATOM      5  C   UNL     1       9.023   0.780  21.930  0.00  0.00    +0.167 C 
ATOM      6  C   UNL     1       7.669   0.517  22.480  0.00  0.00    +0.221 C 
ATOM      7  O   UNL     1       6.804   1.384  22.417  0.00  0.00    -0.284 OA
ATOM      8  C   UNL     1       7.417  -0.807  23.073  0.00  0.00    +0.062 C 
ENDROOT
BRANCH   5   9
ATOM      9  O   UNL     1       9.243   1.995  21.309  0.00  0.00    -0.503 OA
ATOM     10  H   UNL     1       8.824   2.664  21.894  0.00  0.00    +0.292 HD
ENDBRANCH   5   9
BRANCH   1  11
ATOM     11  C   UNL     1       8.133  -3.132  23.697  0.00  0.00    +0.069 C 
BRANCH  11  12
ATOM     12  CA  UNL     1       8.265  -3.242  25.231  0.00  0.00    +0.165 C 
BRANCH  12  13
ATOM     13  N   UNL     1       8.716  -1.991  25.917  0.00  0.00    -0.318 NA
ATOM     14  H1  UNL     1       9.718  -1.851  25.748  0.00  0.00    +0.119 HD
ATOM     15  H2  UNL     1       8.318  -1.200  25.396  0.00  0.00    +0.119 HD
ENDBRANCH  12  13
BRANCH  12  16
ATOM     16  C   UNL     1       9.221  -4.388  25.600  0.00  0.00    +0.322 C 
ATOM     17  OXT UNL     1      10.101  -4.831  24.881  0.00  0.00    -0.249 OA
BRANCH  16  18
ATOM     18  O   UNL     1       8.985  -4.837  26.862  0.00  0.00    -0.480 OA
ATOM     19  H   UNL     1       9.657  -4.389  27.437  0.00  0.00    +0.295 HD
ENDBRANCH  16  18
ENDBRANCH  12  16
ENDBRANCH  11  12
ENDBRANCH   1  11
TORSDOF 6
ENDMDL
MODEL 7
REMARK VINA RESULT:      -5.1      2.441      5.791
REMARK  Name = 
REMARK  6 active torsions:
REMARK  status: ('A' for Active; 'I' for Inactive)
REMARK    1  A    between atoms: N_1  and  CA_2
REMARK    2  A    between atoms: CA_2  and  C_4
REMARK    3  A    between atoms: CA_2  and  C_14
REMARK    4  A    between atoms: C_4  and  C_5
REMARK    5  A    between atoms: C_9  and  O_10
REMARK    6  A    between atoms: C_14  and  O_15
REMARK                            x       y       z     vdW  Elec       q    Type
REMARK                         _______ _______ _______ _____ _____    ______ ____
ROOT
ATOM      1  C   UNL     1       8.090  -2.456  25.273  0.00  0.00    +0.005 C 
ATOM      2  C   UNL     1       9.056  -3.565  25.040  0.00  0.00    +0.186 C 
ATOM      3  O   UNL     1       9.985  -3.442  24.248  0.00  0.00    -0.287 OA
ATOM      4  C   UNL     1       8.925  -4.788  25.847  0.00  0.00    +0.100 C 
ATOM      5  C   UNL     1       7.946  -4.923  26.744  0.00  0.00    +0.167 C 
ATOM      6  C   UNL     1       6.932  -3.855  26.934  0.00  0.00    +0.221 C 
ATOM      7  O   UNL     1       6.016  -4.017  27.733  0.00  0.00    -0.284 OA
ATOM      8  C   UNL     1       7.086  -2.618  26.149  0.00  0.00    +0.062 C 
ENDROOT
BRANCH   5   9
ATOM      9  O   UNL     1       7.847  -6.056  27.529  0.00  0.00    -0.503 OA
ATOM     10  H   UNL     1       8.774  -6.315  27.727  0.00  0.00    +0.292 HD
ENDBRANCH   5   9
BRANCH   1  11
ATOM     11  C   UNL     1       8.304  -1.179  24.491  0.00  0.00    +0.069 C 
BRANCH  11  12
ATOM     12  CA  UNL     1       9.252  -0.164  25.164  0.00  0.00    +0.165 C 
BRANCH  12  13
ATOM     13  N   UNL     1       8.627   1.149  25.515  0.00  0.00    -0.318 NA
ATOM     14  H1  UNL     1       8.873   1.846  24.804  0.00  0.00    +0.119 HD
ATOM     15  H2  UNL     1       7.616   1.055  25.354  0.00  0.00    +0.119 HD
ENDBRANCH  12  13
BRANCH  12  16
ATOM     16  C   UNL     1      10.478   0.089  24.271  0.00  0.00    +0.322 C 
ATOM     17  OXT UNL     1      11.369   0.888  24.507  0.00  0.00    -0.249 OA
BRANCH  16  18
ATOM     18  O   UNL     1      10.467  -0.722  23.179  0.00  0.00    -0.480 OA
ATOM     19  H   UNL     1      11.415  -0.817  22.905  0.00  0.00    +0.295 HD
ENDBRANCH  16  18
ENDBRANCH  12  16
ENDBRANCH  11  12
ENDBRANCH   1  11
TORSDOF 6
ENDMDL
MODEL 8
REMARK VINA RESULT:      -5.0      2.744      5.605
REMARK  Name = 
REMARK  6 active torsions:
REMARK  status: ('A' for Active; 'I' for Inactive)
REMARK    1  A    between atoms: N_1  and  CA_2
REMARK    2  A    between atoms: CA_2  and  C_4
REMARK    3  A    between atoms: CA_2  and  C_14
REMARK    4  A    between atoms: C_4  and  C_5
REMARK    5  A    between atoms: C_9  and  O_10
REMARK    6  A    between atoms: C_14  and  O_15
REMARK                            x       y       z     vdW  Elec       q    Type
REMARK                         _______ _______ _______ _____ _____    ______ ____
ROOT
ATOM      1  C   UNL     1       7.810  -2.828  23.463  0.00  0.00    +0.005 C 
ATOM      2  C   UNL     1       8.309  -4.132  23.981  0.00  0.00    +0.186 C 
ATOM      3  O   UNL     1       9.099  -4.181  24.918  0.00  0.00    -0.287 OA
ATOM      4  C   UNL     1       7.767  -5.369  23.399  0.00  0.00    +0.100 C 
ATOM      5  C   UNL     1       6.876  -5.334  22.407  0.00  0.00    +0.167 C 
ATOM      6  C   UNL     1       6.425  -4.042  21.831  0.00  0.00    +0.221 C 
ATOM      7  O   UNL     1       5.637  -4.033  20.892  0.00  0.00    -0.284 OA
ATOM      8  C   UNL     1       6.943  -2.804  22.438  0.00  0.00    +0.062 C 
ENDROOT
BRANCH   5   9
ATOM      9  O   UNL     1       6.338  -6.496  21.887  0.00  0.00    -0.503 OA
ATOM     10  H   UNL     1       7.068  -6.913  21.378  0.00  0.00    +0.292 HD
ENDBRANCH   5   9
BRANCH   1  11
ATOM     11  C   UNL     1       8.320  -1.575  24.141  0.00  0.00    +0.069 C 
BRANCH  11  12
ATOM     12  CA  UNL     1       9.755  -1.168  23.745  0.00  0.00    +0.165 C 
BRANCH  12  13
ATOM     13  N   UNL     1      10.387  -0.142  24.631  0.00  0.00    -0.318 NA
ATOM     14  H1  UNL     1      10.506  -0.529  25.573  0.00  0.00    +0.119 HD
ATOM     15  H2  UNL     1      11.367  -0.049  24.334  0.00  0.00    +0.119 HD
ENDBRANCH  12  13
BRANCH  12  16
ATOM     16  C   UNL     1       9.781  -0.660  22.294  0.00  0.00    +0.322 C 
ATOM     17  OXT UNL     1       9.410   0.443  21.926  0.00  0.00    -0.249 OA
BRANCH  16  18
ATOM     18  O   UNL     1      10.307  -1.593  21.456  0.00  0.00    -0.480 OA
ATOM     19  H   UNL     1      11.167  -1.216  21.139  0.00  0.00    +0.295 HD
ENDBRANCH  16  18
ENDBRANCH  12  16
ENDBRANCH  11  12
ENDBRANCH   1  11
TORSDOF 6
ENDMDL
MODEL 9
REMARK VINA RESULT:      -5.0      4.073      5.499
REMARK  Name = 
REMARK  6 active torsions:
REMARK  status: ('A' for Active; 'I' for Inactive)
REMARK    1  A    between atoms: N_1  and  CA_2
REMARK    2  A    between atoms: CA_2  and  C_4
REMARK    3  A    between atoms: CA_2  and  C_14
REMARK    4  A    between atoms: C_4  and  C_5
REMARK    5  A    between atoms: C_9  and  O_10
REMARK    6  A    between atoms: C_14  and  O_15
REMARK                            x       y       z     vdW  Elec       q    Type
REMARK                         _______ _______ _______ _____ _____    ______ ____
ROOT
ATOM      1  C   UNL     1       7.280  -4.344  23.818  0.00  0.00    +0.005 C 
ATOM      2  C   UNL     1       7.287  -5.523  22.908  0.00  0.00    +0.186 C 
ATOM      3  O   UNL     1       8.340  -6.038  22.546  0.00  0.00    -0.287 OA
ATOM      4  C   UNL     1       5.998  -6.113  22.519  0.00  0.00    +0.100 C 
ATOM      5  C   UNL     1       4.844  -5.592  22.937  0.00  0.00    +0.167 C 
ATOM      6  C   UNL     1       4.819  -4.373  23.784  0.00  0.00    +0.221 C 
ATOM      7  O   UNL     1       3.747  -3.885  24.124  0.00  0.00    -0.284 OA
ATOM      8  C   UNL     1       6.112  -3.804  24.201  0.00  0.00    +0.062 C 
ENDROOT
BRANCH   5   9
ATOM      9  O   UNL     1       3.634  -6.171  22.602  0.00  0.00    -0.503 OA
ATOM     10  H   UNL     1       2.951  -5.521  22.880  0.00  0.00    +0.292 HD
ENDBRANCH   5   9
BRANCH   1  11
ATOM     11  C   UNL     1       8.622  -3.813  24.271  0.00  0.00    +0.069 C 
BRANCH  11  12
ATOM     12  CA  UNL     1       9.249  -4.577  25.456  0.00  0.00    +0.165 C 
BRANCH  12  13
ATOM     13  N   UNL     1       9.816  -5.919  25.114  0.00  0.00    -0.318 NA
ATOM     14  H1  UNL     1      10.543  -6.167  25.794  0.00  0.00    +0.119 HD
ATOM     15  H2  UNL     1       9.095  -6.617  25.338  0.00  0.00    +0.119 HD
ENDBRANCH  12  13
BRANCH  12  16
ATOM     16  C   UNL     1       8.219  -4.743  26.585  0.00  0.00    +0.322 C 
ATOM     17  OXT UNL     1       7.676  -3.829  27.183  0.00  0.00    -0.249 OA
BRANCH  16  18
ATOM     18  O   UNL     1       7.956  -6.056  26.822  0.00  0.00    -0.480 OA
ATOM     19  H   UNL     1       6.986  -6.171  26.655  0.00  0.00    +0.295 HD
ENDBRANCH  16  18
ENDBRANCH  12  16
ENDBRANCH  11  12
ENDBRANCH   1  11
TORSDOF 6
ENDMDL
