MODEL 1
REMARK VINA RESULT:      -4.2      0.000      0.000
REMARK  Name = 
REMARK  1 active torsions:
REMARK  status: ('A' for Active; 'I' for Inactive)
REMARK    1  A    between atoms: C_2  and  C_4
REMARK                            x       y       z     vdW  Elec       q    Type
REMARK                         _______ _______ _______ _____ _____    ______ ____
ROOT
ATOM      1  C   UNL     1       8.796  -4.197  24.378  0.00  0.00    +0.143 A 
ATOM      2  C   UNL     1       7.646  -4.212  23.603  0.00  0.00    +0.143 A 
ATOM      3  N   UNL     1       7.415  -3.287  22.635  0.00  0.00    -0.259 NA
ATOM      4  C   UNL     1       8.384  -2.355  22.483  0.00  0.00    +0.130 A 
ATOM      5  C   UNL     1       9.535  -2.341  23.259  0.00  0.00    +0.131 A 
ATOM      6  N   UNL     1       9.776  -3.258  24.225  0.00  0.00    -0.247 NA
ENDROOT
BRANCH   1  10
ATOM      7  N   UNL     1      10.294  -5.606  25.651  0.00  0.00    -0.324 N 
ATOM      8  H   UNL     1      11.041  -5.180  25.115  0.00  0.00    +0.145 HD
ATOM      9  H   UNL     1      10.499  -6.302  26.353  0.00  0.00    +0.145 HD
ATOM     10  C   UNL     1       8.995  -5.232  25.429  0.00  0.00    +0.261 C 
ATOM     11  O   UNL     1       8.064  -5.721  26.055  0.00  0.00    -0.269 OA
ENDBRANCH   1  10
TORSDOF 1
ENDMDL
MODEL 2
REMARK VINA RESULT:      -4.1      4.310      5.633
REMARK  Name = 
REMARK  1 active torsions:
REMARK  status: ('A' for Active; 'I' for Inactive)
REMARK    1  A    between atoms: C_2  and  C_4
REMARK                            x       y       z     vdW  Elec       q    Type
REMARK                         _______ _______ _______ _____ _____    ______ ____
ROOT
ATOM      1  C   UNL     1      10.004   0.350  23.069  0.00  0.00    +0.143 A 
ATOM      2  C   UNL     1      10.006  -0.525  21.993  0.00  0.00    +0.143 A 
ATOM      3  N   UNL     1       9.850  -1.865  22.150  0.00  0.00    -0.259 NA
ATOM      4  C   UNL     1       9.692  -2.282  23.427  0.00  0.00    +0.130 A 
ATOM      5  C   UNL     1       9.689  -1.407  24.504  0.00  0.00    +0.131 A 
ATOM      6  N   UNL     1       9.844  -0.070  24.359  0.00  0.00    -0.247 NA
ENDROOT
BRANCH   1  10
ATOM      7  N   UNL     1       9.906   2.247  21.573  0.00  0.00    -0.324 N 
ATOM      8  H   UNL     1       9.599   1.588  20.867  0.00  0.00    +0.145 HD
ATOM      9  H   UNL     1      10.005   3.226  21.350  0.00  0.00    +0.145 HD
ATOM     10  C   UNL     1      10.185   1.809  22.840  0.00  0.00    +0.261 C 
ATOM     11  O   UNL     1      10.558   2.572  23.721  0.00  0.00    -0.269 OA
ENDBRANCH   1  10
TORSDOF 1
ENDMDL
MODEL 3
REMARK VINA RESULT:      -4.1      0.941      1.605
REMARK  Name = 
REMARK  1 active torsions:
REMARK  status: ('A' for Active; 'I' for Inactive)
REMARK    1  A    between atoms: C_2  and  C_4
REMARK                            x       y       z     vdW  Elec       q    Type
REMARK                         _______ _______ _______ _____ _____    ______ ____
ROOT
ATOM      1  C   UNL     1       8.660  -4.286  24.382  0.00  0.00    +0.143 A 
ATOM      2  C   UNL     1       9.444  -3.150  24.248  0.00  0.00    +0.143 A 
ATOM      3  N   UNL     1       9.236  -2.240  23.260  0.00  0.00    -0.259 NA
ATOM      4  C   UNL     1       8.212  -2.523  22.421  0.00  0.00    +0.130 A 
ATOM      5  C   UNL     1       7.428  -3.660  22.557  0.00  0.00    +0.131 A 
ATOM      6  N   UNL     1       7.626  -4.572  23.537  0.00  0.00    -0.247 NA
ENDROOT
BRANCH   1  10
ATOM      7  N   UNL     1      10.256  -5.553  25.684  0.00  0.00    -0.324 N 
ATOM      8  H   UNL     1      10.968  -5.126  25.103  0.00  0.00    +0.145 HD
ATOM      9  H   UNL     1      10.512  -6.200  26.416  0.00  0.00    +0.145 HD
ATOM     10  C   UNL     1       8.936  -5.251  25.481  0.00  0.00    +0.261 C 
ATOM     11  O   UNL     1       8.046  -5.745  26.160  0.00  0.00    -0.269 OA
ENDBRANCH   1  10
TORSDOF 1
ENDMDL
MODEL 4
REMARK VINA RESULT:      -3.9      2.585      3.615
REMARK  Name = 
REMARK  1 active torsions:
REMARK  status: ('A' for Active; 'I' for Inactive)
REMARK    1  A    between atoms: C_2  and  C_4
REMARK                            x       y       z     vdW  Elec       q    Type
REMARK                         _______ _______ _______ _____ _____    ______ ____
ROOT
ATOM      1  C   UNL     1       7.325  -4.422  22.558  0.00  0.00    +0.143 A 
ATOM      2  C   UNL     1       7.919  -5.222  23.523  0.00  0.00    +0.143 A 
ATOM      3  N   UNL     1       8.861  -4.746  24.377  0.00  0.00    -0.259 NA
ATOM      4  C   UNL     1       9.177  -3.439  24.219  0.00  0.00    +0.130 A 
ATOM      5  C   UNL     1       8.582  -2.639  23.254  0.00  0.00    +0.131 A 
ATOM      6  N   UNL     1       7.641  -3.103  22.399  0.00  0.00    -0.247 NA
ENDROOT
BRANCH   1  10
ATOM      7  N   UNL     1       6.048  -6.334  21.807  0.00  0.00    -0.324 N 
ATOM      8  H   UNL     1       6.548  -6.860  22.514  0.00  0.00    +0.145 HD
ATOM      9  H   UNL     1       5.362  -6.786  21.222  0.00  0.00    +0.145 HD
ATOM     10  C   UNL     1       6.300  -4.998  21.645  0.00  0.00    +0.261 C 
ATOM     11  O   UNL     1       5.719  -4.326  20.804  0.00  0.00    -0.269 OA
ENDBRANCH   1  10
TORSDOF 1
ENDMDL
MODEL 5
REMARK VINA RESULT:      -3.9      2.741      4.243
REMARK  Name = 
REMARK  1 active torsions:
REMARK  status: ('A' for Active; 'I' for Inactive)
REMARK    1  A    between atoms: C_2  and  C_4
REMARK                            x       y       z     vdW  Elec       q    Type
REMARK                         _______ _______ _______ _____ _____    ______ ____
ROOT
ATOM      1  C   UNL     1       9.250  -2.123  22.928  0.00  0.00    +0.143 A 
ATOM      2  C   UNL     1       9.881  -2.800  23.961  0.00  0.00    +0.143 A 
ATOM      3  N   UNL     1       9.389  -3.958  24.473  0.00  0.00    -0.259 NA
ATOM      4  C   UNL     1       8.243  -4.400  23.904  0.00  0.00    +0.130 A 
ATOM      5  C   UNL     1       7.612  -3.722  22.870  0.00  0.00    +0.131 A 
ATOM      6  N   UNL     1       8.094  -2.568  22.352  0.00  0.00    -0.247 NA
ENDROOT
BRANCH   1  10
ATOM      7  N   UNL     1       9.559  -0.574  21.096  0.00  0.00    -0.324 N 
ATOM      8  H   UNL     1       8.994  -1.213  20.550  0.00  0.00    +0.145 HD
ATOM      9  H   UNL     1       9.921   0.272  20.682  0.00  0.00    +0.145 HD
ATOM     10  C   UNL     1       9.832  -0.855  22.409  0.00  0.00    +0.261 C 
ATOM     11  O   UNL     1      10.509  -0.110  23.103  0.00  0.00    -0.269 OA
ENDBRANCH   1  10
TORSDOF 1
ENDMDL
MODEL 6
REMARK VINA RESULT:      -3.9      2.329      3.314
REMARK  Name = 
REMARK  1 active torsions:
REMARK  status: ('A' for Active; 'I' for Inactive)
REMARK    1  A    between atoms: C_2  and  C_4
REMARK                            x       y       z     vdW  Elec       q    Type
REMARK                         _______ _______ _______ _____ _____    ______ ____
ROOT
ATOM      1  C   UNL     1       7.947  -5.092  25.166  0.00  0.00    +0.143 A 
ATOM      2  C   UNL     1       7.105  -4.925  24.076  0.00  0.00    +0.143 A 
ATOM      3  N   UNL     1       5.781  -5.221  24.133  0.00  0.00    -0.259 NA
ATOM      4  C   UNL     1       5.344  -5.689  25.325  0.00  0.00    +0.130 A 
ATOM      5  C   UNL     1       6.186  -5.856  26.416  0.00  0.00    +0.131 A 
ATOM      6  N   UNL     1       7.507  -5.563  26.371  0.00  0.00    -0.247 NA
ENDROOT
BRANCH   1  10
ATOM      7  N   UNL     1      10.248  -5.575  25.731  0.00  0.00    -0.324 N 
ATOM      8  H   UNL     1       9.882  -6.349  26.272  0.00  0.00    +0.145 HD
ATOM      9  H   UNL     1      11.242  -5.403  25.690  0.00  0.00    +0.145 HD
ATOM     10  C   UNL     1       9.391  -4.755  25.046  0.00  0.00    +0.261 C 
ATOM     11  O   UNL     1       9.792  -3.809  24.382  0.00  0.00    -0.269 OA
ENDBRANCH   1  10
TORSDOF 1
ENDMDL
MODEL 7
REMARK VINA RESULT:      -3.9      3.521      4.594
REMARK  Name = 
REMARK  1 active torsions:
REMARK  status: ('A' for Active; 'I' for Inactive)
REMARK    1  A    between atoms: C_2  and  C_4
REMARK                            x       y       z     vdW  Elec       q    Type
REMARK                         _______ _______ _______ _____ _____    ______ ____
ROOT
ATOM      1  C   UNL     1       9.919  -0.481  23.087  0.00  0.00    +0.143 A 
ATOM      2  C   UNL     1       9.773   0.305  21.954  0.00  0.00    +0.143 A 
ATOM      3  N   UNL     1      10.026   1.640  21.963  0.00  0.00    -0.259 NA
ATOM      4  C   UNL     1      10.429   2.144  23.153  0.00  0.00    +0.130 A 
ATOM      5  C   UNL     1      10.575   1.356  24.286  0.00  0.00    +0.131 A 
ATOM      6  N   UNL     1      10.327   0.025  24.288  0.00  0.00    -0.247 NA
ENDROOT
BRANCH   1  10
ATOM      7  N   UNL     1       8.562  -2.291  22.233  0.00  0.00    -0.324 N 
ATOM      8  H   UNL     1       8.037  -1.576  21.743  0.00  0.00    +0.145 HD
ATOM      9  H   UNL     1       8.310  -3.264  22.142  0.00  0.00    +0.145 HD
ATOM     10  C   UNL     1       9.624  -1.939  23.021  0.00  0.00    +0.261 C 
ATOM     11  O   UNL     1      10.285  -2.771  23.628  0.00  0.00    -0.269 OA
ENDBRANCH   1  10
TORSDOF 1
ENDMDL
MODEL 8
REMARK VINA RESULT:      -3.7      2.435      3.830
REMARK  Name = 
REMARK  1 active torsions:
REMARK  status: ('A' for Active; 'I' for Inactive)
REMARK    1  A    between atoms: C_2  and  C_4
REMARK                            x       y       z     vdW  Elec       q    Type
REMARK                         _______ _______ _______ _____ _____    ______ ____
ROOT
ATOM      1  C   UNL     1       9.323  -3.030  24.591  0.00  0.00    +0.143 A 
ATOM      2  C   UNL     1       8.397  -2.669  25.557  0.00  0.00    +0.143 A 
ATOM      3  N   UNL     1       8.010  -3.519  26.542  0.00  0.00    -0.259 NA
ATOM      4  C   UNL     1       8.592  -4.741  26.513  0.00  0.00    +0.130 A 
ATOM      5  C   UNL     1       9.520  -5.102  25.546  0.00  0.00    +0.131 A 
ATOM      6  N   UNL     1       9.913  -4.262  24.560  0.00  0.00    -0.247 NA
ENDROOT
BRANCH   1  10
ATOM      7  N   UNL     1       9.010  -0.880  23.528  0.00  0.00    -0.324 N 
ATOM      8  H   UNL     1       8.288  -0.719  24.221  0.00  0.00    +0.145 HD
ATOM      9  H   UNL     1       9.223  -0.176  22.837  0.00  0.00    +0.145 HD
ATOM     10  C   UNL     1       9.708  -2.058  23.531  0.00  0.00    +0.261 C 
ATOM     11  O   UNL     1      10.588  -2.292  22.714  0.00  0.00    -0.269 OA
ENDBRANCH   1  10
TORSDOF 1
ENDMDL
MODEL 9
REMARK VINA RESULT:      -3.7      1.770      2.152
REMARK  Name = 
REMARK  1 active torsions:
REMARK  status: ('A' for Active; 'I' for Inactive)
REMARK    1  A    between atoms: C_2  and  C_4
REMARK                            x       y       z     vdW  Elec       q    Type
REMARK                         _______ _______ _______ _____ _____    ______ ____
ROOT
ATOM      1  C   UNL     1       7.794  -4.682  24.331  0.00  0.00    +0.143 A 
ATOM      2  C   UNL     1       6.507  -5.170  24.504  0.00  0.00    +0.143 A 
ATOM      3  N   UNL     1       5.475  -4.785  23.709  0.00  0.00    -0.259 NA
ATOM      4  C   UNL     1       5.793  -3.894  22.740  0.00  0.00    +0.130 A 
ATOM      5  C   UNL     1       7.081  -3.407  22.567  0.00  0.00    +0.131 A 
ATOM      6  N   UNL     1       8.117  -3.785  23.353  0.00  0.00    -0.247 NA
ENDROOT
BRANCH   1  10
ATOM      7  N   UNL     1       8.481  -5.742  26.393  0.00  0.00    -0.324 N 
ATOM      8  H   UNL     1       7.492  -5.856  26.585  0.00  0.00    +0.145 HD
ATOM      9  H   UNL     1       9.172  -6.076  27.049  0.00  0.00    +0.145 HD
ATOM     10  C   UNL     1       8.886  -5.135  25.235  0.00  0.00    +0.261 C 
ATOM     11  O   UNL     1      10.069  -4.978  24.965  0.00  0.00    -0.269 OA
ENDBRANCH   1  10
TORSDOF 1
ENDMDL
