MODEL 1
REMARK VINA RESULT:      -5.4      0.000      0.000
REMARK  Name = 
REMARK  9 active torsions:
REMARK  status: ('A' for Active; 'I' for Inactive)
REMARK    1  A    between atoms: C_1  and  C_2
REMARK    2  A    between atoms: C_2  and  N_3
REMARK    3  A    between atoms: N_3  and  C_4
REMARK    4  A    between atoms: N_3  and  C_6
REMARK    5  A    between atoms: C_4  and  C_5
REMARK    6  A    between atoms: C_6  and  C_7
REMARK    7  A    between atoms: N_9  and  C_10
REMARK    8  A    between atoms: C_11  and  C_12
REMARK    9  A    between atoms: C_16  and  C_17
REMARK                            x       y       z     vdW  Elec       q    Type
REMARK                         _______ _______ _______ _____ _____    ______ ____
ROOT
ATOM      1  C   UNL     1       7.731  -2.622  22.751  0.00  0.00    +0.231 C 
ATOM      2  N   UNL     1       7.990  -3.909  23.192  0.00  0.00    -0.284 N 
ATOM      3  H   UNL     1       8.739  -4.344  22.664  0.00  0.00    +0.155 HD
ATOM      4  O   UNL     1       6.640  -2.056  22.766  0.00  0.00    -0.274 OA
ENDROOT
BRANCH   2   5
ATOM      5  C   UNL     1       7.000  -4.741  23.763  0.00  0.00    +0.039 A 
ATOM      6  C   UNL     1       6.190  -5.572  22.951  0.00  0.00    -0.029 A 
ATOM      7  C   UNL     1       6.299  -5.625  21.448  0.00  0.00    +0.045 C 
ATOM      8  C   UNL     1       5.193  -6.361  23.552  0.00  0.00    +0.005 A 
ATOM      9  C   UNL     1       4.980  -6.322  24.924  0.00  0.00    +0.001 A 
ATOM     10  C   UNL     1       5.762  -5.494  25.719  0.00  0.00    +0.005 A 
ATOM     11  C   UNL     1       6.773  -4.689  25.156  0.00  0.00    -0.029 A 
ATOM     12  C   UNL     1       7.623  -3.912  26.127  0.00  0.00    +0.045 C 
ENDBRANCH   2   5
BRANCH   1  13
ATOM     13  C   UNL     1       8.966  -1.923  22.180  0.00  0.00    +0.180 C 
BRANCH  13  14
ATOM     14  N   UNL     1       9.151  -0.554  22.730  0.00  0.00    -0.295 NA
BRANCH  14  16
ATOM     15  C   UNL     1       9.576  -0.261  25.196  0.00  0.00    +0.020 C 
ATOM     16  C   UNL     1      10.155  -0.555  23.815  0.00  0.00    +0.081 C 
ENDBRANCH  14  16
BRANCH  14  17
ATOM     17  C   UNL     1       9.479   0.384  21.634  0.00  0.00    +0.081 C 
ATOM     18  C   UNL     1      10.026   1.752  22.040  0.00  0.00    +0.020 C 
ENDBRANCH  14  17
ENDBRANCH  13  14
ENDBRANCH   1  13
TORSDOF 5
ENDMDL
MODEL 2
REMARK VINA RESULT:      -5.4      0.073      2.124
REMARK  Name = 
REMARK  9 active torsions:
REMARK  status: ('A' for Active; 'I' for Inactive)
REMARK    1  A    between atoms: C_1  and  C_2
REMARK    2  A    between atoms: C_2  and  N_3
REMARK    3  A    between atoms: N_3  and  C_4
REMARK    4  A    between atoms: N_3  and  C_6
REMARK    5  A    between atoms: C_4  and  C_5
REMARK    6  A    between atoms: C_6  and  C_7
REMARK    7  A    between atoms: N_9  and  C_10
REMARK    8  A    between atoms: C_11  and  C_12
REMARK    9  A    between atoms: C_16  and  C_17
REMARK                            x       y       z     vdW  Elec       q    Type
REMARK                         _______ _______ _______ _____ _____    ______ ____
ROOT
ATOM      1  C   UNL     1       7.708  -2.595  22.760  0.00  0.00    +0.231 C 
ATOM      2  N   UNL     1       7.932  -3.893  23.189  0.00  0.00    -0.284 N 
ATOM      3  H   UNL     1       8.671  -4.342  22.660  0.00  0.00    +0.155 HD
ATOM      4  O   UNL     1       6.633  -2.000  22.777  0.00  0.00    -0.274 OA
ENDROOT
BRANCH   2   5
ATOM      5  C   UNL     1       6.917  -4.704  23.748  0.00  0.00    +0.039 A 
ATOM      6  C   UNL     1       6.685  -4.720  25.145  0.00  0.00    -0.029 A 
ATOM      7  C   UNL     1       7.488  -3.911  26.130  0.00  0.00    +0.045 C 
ATOM      8  C   UNL     1       5.688  -5.565  25.667  0.00  0.00    +0.005 A 
ATOM      9  C   UNL     1       4.945  -6.395  24.836  0.00  0.00    +0.001 A 
ATOM     10  C   UNL     1       5.185  -6.392  23.468  0.00  0.00    +0.005 A 
ATOM     11  C   UNL     1       6.173  -5.559  22.904  0.00  0.00    -0.029 A 
ATOM     12  C   UNL     1       6.272  -5.566  21.401  0.00  0.00    +0.045 C 
ENDBRANCH   2   5
BRANCH   1  13
ATOM     13  C   UNL     1       8.964  -1.923  22.202  0.00  0.00    +0.180 C 
BRANCH  13  14
ATOM     14  N   UNL     1       9.162  -0.550  22.736  0.00  0.00    -0.295 NA
BRANCH  14  16
ATOM     15  C   UNL     1       9.573  -0.243  25.203  0.00  0.00    +0.020 C 
ATOM     16  C   UNL     1      10.159  -0.549  23.827  0.00  0.00    +0.081 C 
ENDBRANCH  14  16
BRANCH  14  17
ATOM     17  C   UNL     1       9.507   0.371  21.631  0.00  0.00    +0.081 C 
ATOM     18  C   UNL     1      10.030   1.753  22.024  0.00  0.00    +0.020 C 
ENDBRANCH  14  17
ENDBRANCH  13  14
ENDBRANCH   1  13
TORSDOF 5
ENDMDL
MODEL 3
REMARK VINA RESULT:      -5.4      1.829      5.934
REMARK  Name = 
REMARK  9 active torsions:
REMARK  status: ('A' for Active; 'I' for Inactive)
REMARK    1  A    between atoms: C_1  and  C_2
REMARK    2  A    between atoms: C_2  and  N_3
REMARK    3  A    between atoms: N_3  and  C_4
REMARK    4  A    between atoms: N_3  and  C_6
REMARK    5  A    between atoms: C_4  and  C_5
REMARK    6  A    between atoms: C_6  and  C_7
REMARK    7  A    between atoms: N_9  and  C_10
REMARK    8  A    between atoms: C_11  and  C_12
REMARK    9  A    between atoms: C_16  and  C_17
REMARK                            x       y       z     vdW  Elec       q    Type
REMARK                         _______ _______ _______ _____ _____    ______ ____
ROOT
ATOM      1  C   UNL     1       8.835  -3.724  24.268  0.00  0.00    +0.231 C 
ATOM      2  N   UNL     1       8.247  -2.479  24.116  0.00  0.00    -0.284 N 
ATOM      3  H   UNL     1       7.399  -2.529  23.562  0.00  0.00    +0.155 HD
ATOM      4  O   UNL     1      10.038  -3.949  24.380  0.00  0.00    -0.274 OA
ENDROOT
BRANCH   2   5
ATOM      5  C   UNL     1       8.987  -1.274  24.105  0.00  0.00    +0.039 A 
ATOM      6  C   UNL     1       9.487  -0.738  22.893  0.00  0.00    -0.029 A 
ATOM      7  C   UNL     1       9.292  -1.396  21.551  0.00  0.00    +0.045 C 
ATOM      8  C   UNL     1      10.247   0.445  22.926  0.00  0.00    +0.005 A 
ATOM      9  C   UNL     1      10.531   1.081  24.128  0.00  0.00    +0.001 A 
ATOM     10  C   UNL     1      10.056   0.545  25.318  0.00  0.00    +0.005 A 
ATOM     11  C   UNL     1       9.289  -0.637  25.329  0.00  0.00    -0.029 A 
ATOM     12  C   UNL     1       8.743  -1.065  26.667  0.00  0.00    +0.045 C 
ENDBRANCH   2   5
BRANCH   1  13
ATOM     13  C   UNL     1       7.823  -4.871  24.255  0.00  0.00    +0.180 C 
BRANCH  13  14
ATOM     14  N   UNL     1       6.848  -4.756  23.138  0.00  0.00    -0.295 NA
BRANCH  14  16
ATOM     15  C   UNL     1       6.148  -5.843  20.975  0.00  0.00    +0.020 C 
ATOM     16  C   UNL     1       7.257  -5.600  21.995  0.00  0.00    +0.081 C 
ENDBRANCH  14  16
BRANCH  14  17
ATOM     17  C   UNL     1       5.487  -5.063  23.630  0.00  0.00    +0.081 C 
ATOM     18  C   UNL     1       4.521  -3.886  23.764  0.00  0.00    +0.020 C 
ENDBRANCH  14  17
ENDBRANCH  13  14
ENDBRANCH   1  13
TORSDOF 5
ENDMDL
MODEL 4
REMARK VINA RESULT:      -5.3      1.661      6.410
REMARK  Name = 
REMARK  9 active torsions:
REMARK  status: ('A' for Active; 'I' for Inactive)
REMARK    1  A    between atoms: C_1  and  C_2
REMARK    2  A    between atoms: C_2  and  N_3
REMARK    3  A    between atoms: N_3  and  C_4
REMARK    4  A    between atoms: N_3  and  C_6
REMARK    5  A    between atoms: C_4  and  C_5
REMARK    6  A    between atoms: C_6  and  C_7
REMARK    7  A    between atoms: N_9  and  C_10
REMARK    8  A    between atoms: C_11  and  C_12
REMARK    9  A    between atoms: C_16  and  C_17
REMARK                            x       y       z     vdW  Elec       q    Type
REMARK                         _______ _______ _______ _____ _____    ______ ____
ROOT
ATOM      1  C   UNL     1       9.055  -3.240  23.910  0.00  0.00    +0.231 C 
ATOM      2  N   UNL     1       8.416  -2.021  23.748  0.00  0.00    -0.284 N 
ATOM      3  H   UNL     1       7.578  -2.108  23.184  0.00  0.00    +0.155 HD
ATOM      4  O   UNL     1      10.265  -3.414  24.037  0.00  0.00    -0.274 OA
ENDROOT
BRANCH   2   5
ATOM      5  C   UNL     1       9.105  -0.786  23.743  0.00  0.00    +0.039 A 
ATOM      6  C   UNL     1       9.377  -0.100  24.951  0.00  0.00    -0.029 A 
ATOM      7  C   UNL     1       8.953  -0.603  26.307  0.00  0.00    +0.045 C 
ATOM      8  C   UNL     1      10.036   1.143  24.904  0.00  0.00    +0.005 A 
ATOM      9  C   UNL     1      10.403   1.712  23.691  0.00  0.00    +0.001 A 
ATOM     10  C   UNL     1      10.120   1.048  22.505  0.00  0.00    +0.005 A 
ATOM     11  C   UNL     1       9.464  -0.200  22.509  0.00  0.00    -0.029 A 
ATOM     12  C   UNL     1       9.303  -0.873  21.170  0.00  0.00    +0.045 C 
ENDBRANCH   2   5
BRANCH   1  13
ATOM     13  C   UNL     1       8.093  -4.429  23.887  0.00  0.00    +0.180 C 
BRANCH  13  14
ATOM     14  N   UNL     1       6.765  -4.075  23.319  0.00  0.00    -0.295 NA
BRANCH  14  16
ATOM     15  C   UNL     1       6.924  -6.030  21.737  0.00  0.00    +0.020 C 
ATOM     16  C   UNL     1       6.651  -4.539  21.920  0.00  0.00    +0.081 C 
ENDBRANCH  14  16
BRANCH  14  17
ATOM     17  C   UNL     1       5.693  -4.597  24.194  0.00  0.00    +0.081 C 
ATOM     18  C   UNL     1       6.128  -5.217  25.522  0.00  0.00    +0.020 C 
ENDBRANCH  14  17
ENDBRANCH  13  14
ENDBRANCH   1  13
TORSDOF 5
ENDMDL
MODEL 5
REMARK VINA RESULT:      -5.3      1.554      1.705
REMARK  Name = 
REMARK  9 active torsions:
REMARK  status: ('A' for Active; 'I' for Inactive)
REMARK    1  A    between atoms: C_1  and  C_2
REMARK    2  A    between atoms: C_2  and  N_3
REMARK    3  A    between atoms: N_3  and  C_4
REMARK    4  A    between atoms: N_3  and  C_6
REMARK    5  A    between atoms: C_4  and  C_5
REMARK    6  A    between atoms: C_6  and  C_7
REMARK    7  A    between atoms: N_9  and  C_10
REMARK    8  A    between atoms: C_11  and  C_12
REMARK    9  A    between atoms: C_16  and  C_17
REMARK                            x       y       z     vdW  Elec       q    Type
REMARK                         _______ _______ _______ _____ _____    ______ ____
ROOT
ATOM      1  C   UNL     1       8.980  -3.912  24.363  0.00  0.00    +0.231 C 
ATOM      2  N   UNL     1       7.613  -3.685  24.362  0.00  0.00    -0.284 N 
ATOM      3  H   UNL     1       7.386  -2.757  24.703  0.00  0.00    +0.155 HD
ATOM      4  O   UNL     1       9.535  -4.995  24.537  0.00  0.00    -0.274 OA
ENDROOT
BRANCH   2   5
ATOM      5  C   UNL     1       6.661  -4.716  24.534  0.00  0.00    +0.039 A 
ATOM      6  C   UNL     1       6.069  -5.355  23.418  0.00  0.00    -0.029 A 
ATOM      7  C   UNL     1       6.382  -4.988  21.989  0.00  0.00    +0.045 C 
ATOM      8  C   UNL     1       5.102  -6.354  23.629  0.00  0.00    +0.005 A 
ATOM      9  C   UNL     1       4.706  -6.707  24.913  0.00  0.00    +0.001 A 
ATOM     10  C   UNL     1       5.273  -6.068  26.008  0.00  0.00    +0.005 A 
ATOM     11  C   UNL     1       6.247  -5.063  25.840  0.00  0.00    -0.029 A 
ATOM     12  C   UNL     1       6.864  -4.515  27.101  0.00  0.00    +0.045 C 
ENDBRANCH   2   5
BRANCH   1  13
ATOM     13  C   UNL     1       9.800  -2.639  24.150  0.00  0.00    +0.180 C 
BRANCH  13  14
ATOM     14  N   UNL     1       9.046  -1.593  23.409  0.00  0.00    -0.295 NA
BRANCH  14  16
ATOM     15  C   UNL     1      10.260   0.019  24.917  0.00  0.00    +0.020 C 
ATOM     16  C   UNL     1       8.965  -0.345  24.197  0.00  0.00    +0.081 C 
ENDBRANCH  14  16
BRANCH  14  17
ATOM     17  C   UNL     1       9.647  -1.398  22.072  0.00  0.00    +0.081 C 
ATOM     18  C   UNL     1       9.348  -0.075  21.368  0.00  0.00    +0.020 C 
ENDBRANCH  14  17
ENDBRANCH  13  14
ENDBRANCH   1  13
TORSDOF 5
ENDMDL
MODEL 6
REMARK VINA RESULT:      -5.2      1.988      3.476
REMARK  Name = 
REMARK  9 active torsions:
REMARK  status: ('A' for Active; 'I' for Inactive)
REMARK    1  A    between atoms: C_1  and  C_2
REMARK    2  A    between atoms: C_2  and  N_3
REMARK    3  A    between atoms: N_3  and  C_4
REMARK    4  A    between atoms: N_3  and  C_6
REMARK    5  A    between atoms: C_4  and  C_5
REMARK    6  A    between atoms: C_6  and  C_7
REMARK    7  A    between atoms: N_9  and  C_10
REMARK    8  A    between atoms: C_11  and  C_12
REMARK    9  A    between atoms: C_16  and  C_17
REMARK                            x       y       z     vdW  Elec       q    Type
REMARK                         _______ _______ _______ _____ _____    ______ ____
ROOT
ATOM      1  C   UNL     1       9.398  -1.301  22.431  0.00  0.00    +0.231 C 
ATOM      2  N   UNL     1       8.271  -1.560  23.194  0.00  0.00    -0.284 N 
ATOM      3  H   UNL     1       7.745  -0.715  23.387  0.00  0.00    +0.155 HD
ATOM      4  O   UNL     1      10.461  -1.916  22.474  0.00  0.00    -0.274 OA
ENDROOT
BRANCH   2   5
ATOM      5  C   UNL     1       8.199  -2.624  24.123  0.00  0.00    +0.039 A 
ATOM      6  C   UNL     1       8.537  -2.427  25.483  0.00  0.00    -0.029 A 
ATOM      7  C   UNL     1       9.007  -1.107  26.040  0.00  0.00    +0.045 C 
ATOM      8  C   UNL     1       8.485  -3.518  26.371  0.00  0.00    +0.005 A 
ATOM      9  C   UNL     1       8.126  -4.785  25.927  0.00  0.00    +0.001 A 
ATOM     10  C   UNL     1       7.811  -4.982  24.589  0.00  0.00    +0.005 A 
ATOM     11  C   UNL     1       7.849  -3.916  23.668  0.00  0.00    -0.029 A 
ATOM     12  C   UNL     1       7.389  -4.228  22.268  0.00  0.00    +0.045 C 
ENDBRANCH   2   5
BRANCH   1  13
ATOM     13  C   UNL     1       9.226  -0.102  21.496  0.00  0.00    +0.180 C 
BRANCH  13  14
ATOM     14  N   UNL     1       8.909   1.152  22.231  0.00  0.00    -0.295 NA
BRANCH  14  16
ATOM     15  C   UNL     1      10.627   2.152  23.779  0.00  0.00    +0.020 C 
ATOM     16  C   UNL     1      10.108   2.008  22.351  0.00  0.00    +0.081 C 
ENDBRANCH  14  16
BRANCH  14  17
ATOM     17  C   UNL     1       7.769   1.835  21.583  0.00  0.00    +0.081 C 
ATOM     18  C   UNL     1       7.393   3.215  22.125  0.00  0.00    +0.020 C 
ENDBRANCH  14  17
ENDBRANCH  13  14
ENDBRANCH   1  13
TORSDOF 5
ENDMDL
MODEL 7
REMARK VINA RESULT:      -5.1      1.821      6.252
REMARK  Name = 
REMARK  9 active torsions:
REMARK  status: ('A' for Active; 'I' for Inactive)
REMARK    1  A    between atoms: C_1  and  C_2
REMARK    2  A    between atoms: C_2  and  N_3
REMARK    3  A    between atoms: N_3  and  C_4
REMARK    4  A    between atoms: N_3  and  C_6
REMARK    5  A    between atoms: C_4  and  C_5
REMARK    6  A    between atoms: C_6  and  C_7
REMARK    7  A    between atoms: N_9  and  C_10
REMARK    8  A    between atoms: C_11  and  C_12
REMARK    9  A    between atoms: C_16  and  C_17
REMARK                            x       y       z     vdW  Elec       q    Type
REMARK                         _______ _______ _______ _____ _____    ______ ____
ROOT
ATOM      1  C   UNL     1       8.492  -2.008  24.329  0.00  0.00    +0.231 C 
ATOM      2  N   UNL     1       7.889  -0.886  23.785  0.00  0.00    -0.284 N 
ATOM      3  H   UNL     1       7.122  -1.133  23.170  0.00  0.00    +0.155 HD
ATOM      4  O   UNL     1       9.677  -2.118  24.636  0.00  0.00    -0.274 OA
ENDROOT
BRANCH   2   5
ATOM      5  C   UNL     1       8.586   0.320  23.540  0.00  0.00    +0.039 A 
ATOM      6  C   UNL     1       9.321   0.506  22.345  0.00  0.00    -0.029 A 
ATOM      7  C   UNL     1       9.436  -0.543  21.268  0.00  0.00    +0.045 C 
ATOM      8  C   UNL     1      10.029   1.707  22.151  0.00  0.00    +0.005 A 
ATOM      9  C   UNL     1      10.032   2.700  23.123  0.00  0.00    +0.001 A 
ATOM     10  C   UNL     1       9.325   2.511  24.303  0.00  0.00    +0.005 A 
ATOM     11  C   UNL     1       8.601   1.324  24.535  0.00  0.00    -0.029 A 
ATOM     12  C   UNL     1       7.791   1.274  25.804  0.00  0.00    +0.045 C 
ENDBRANCH   2   5
BRANCH   1  13
ATOM     13  C   UNL     1       7.527  -3.182  24.504  0.00  0.00    +0.180 C 
BRANCH  13  14
ATOM     14  N   UNL     1       8.071  -4.452  23.954  0.00  0.00    -0.295 NA
BRANCH  14  16
ATOM     15  C   UNL     1       8.100  -5.171  26.369  0.00  0.00    +0.020 C 
ATOM     16  C   UNL     1       8.778  -5.218  25.003  0.00  0.00    +0.081 C 
ENDBRANCH  14  16
BRANCH  14  17
ATOM     17  C   UNL     1       6.987  -5.220  23.304  0.00  0.00    +0.081 C 
ATOM     18  C   UNL     1       7.166  -5.544  21.821  0.00  0.00    +0.020 C 
ENDBRANCH  14  17
ENDBRANCH  13  14
ENDBRANCH   1  13
TORSDOF 5
ENDMDL
MODEL 8
REMARK VINA RESULT:      -5.0      1.845      2.453
REMARK  Name = 
REMARK  9 active torsions:
REMARK  status: ('A' for Active; 'I' for Inactive)
REMARK    1  A    between atoms: C_1  and  C_2
REMARK    2  A    between atoms: C_2  and  N_3
REMARK    3  A    between atoms: N_3  and  C_4
REMARK    4  A    between atoms: N_3  and  C_6
REMARK    5  A    between atoms: C_4  and  C_5
REMARK    6  A    between atoms: C_6  and  C_7
REMARK    7  A    between atoms: N_9  and  C_10
REMARK    8  A    between atoms: C_11  and  C_12
REMARK    9  A    between atoms: C_16  and  C_17
REMARK                            x       y       z     vdW  Elec       q    Type
REMARK                         _______ _______ _______ _____ _____    ______ ____
ROOT
ATOM      1  C   UNL     1       9.630  -1.676  23.000  0.00  0.00    +0.231 C 
ATOM      2  N   UNL     1       8.373  -1.761  23.574  0.00  0.00    -0.284 N 
ATOM      3  H   UNL     1       7.990  -0.845  23.779  0.00  0.00    +0.155 HD
ATOM      4  O   UNL     1      10.542  -2.492  23.123  0.00  0.00    -0.274 OA
ENDROOT
BRANCH   2   5
ATOM      5  C   UNL     1       7.964  -2.854  24.372  0.00  0.00    +0.039 A 
ATOM      6  C   UNL     1       7.446  -4.033  23.783  0.00  0.00    -0.029 A 
ATOM      7  C   UNL     1       7.274  -4.211  22.296  0.00  0.00    +0.045 C 
ATOM      8  C   UNL     1       7.019  -5.087  24.611  0.00  0.00    +0.005 A 
ATOM      9  C   UNL     1       7.080  -4.980  25.995  0.00  0.00    +0.001 A 
ATOM     10  C   UNL     1       7.571  -3.817  26.574  0.00  0.00    +0.005 A 
ATOM     11  C   UNL     1       8.011  -2.739  25.780  0.00  0.00    -0.029 A 
ATOM     12  C   UNL     1       8.618  -1.573  26.516  0.00  0.00    +0.045 C 
ENDBRANCH   2   5
BRANCH   1  13
ATOM     13  C   UNL     1       9.828  -0.402  22.176  0.00  0.00    +0.180 C 
BRANCH  13  14
ATOM     14  N   UNL     1       9.187   0.785  22.801  0.00  0.00    -0.295 NA
BRANCH  14  16
ATOM     15  C   UNL     1      10.653   2.732  23.440  0.00  0.00    +0.020 C 
ATOM     16  C   UNL     1      10.068   1.378  23.830  0.00  0.00    +0.081 C 
ENDBRANCH  14  16
BRANCH  14  17
ATOM     17  C   UNL     1       8.789   1.748  21.751  0.00  0.00    +0.081 C 
ATOM     18  C   UNL     1       7.387   2.347  21.862  0.00  0.00    +0.020 C 
ENDBRANCH  14  17
ENDBRANCH  13  14
ENDBRANCH   1  13
TORSDOF 5
ENDMDL
MODEL 9
REMARK VINA RESULT:      -5.0      1.713      1.827
REMARK  Name = 
REMARK  9 active torsions:
REMARK  status: ('A' for Active; 'I' for Inactive)
REMARK    1  A    between atoms: C_1  and  C_2
REMARK    2  A    between atoms: C_2  and  N_3
REMARK    3  A    between atoms: N_3  and  C_4
REMARK    4  A    between atoms: N_3  and  C_6
REMARK    5  A    between atoms: C_4  and  C_5
REMARK    6  A    between atoms: C_6  and  C_7
REMARK    7  A    between atoms: N_9  and  C_10
REMARK    8  A    between atoms: C_11  and  C_12
REMARK    9  A    between atoms: C_16  and  C_17
REMARK                            x       y       z     vdW  Elec       q    Type
REMARK                         _______ _______ _______ _____ _____    ______ ____
ROOT
ATOM      1  C   UNL     1       8.601  -3.143  23.762  0.00  0.00    +0.231 C 
ATOM      2  N   UNL     1       7.479  -3.031  22.957  0.00  0.00    -0.284 N 
ATOM      3  H   UNL     1       7.388  -2.100  22.567  0.00  0.00    +0.155 HD
ATOM      4  O   UNL     1       8.718  -3.868  24.748  0.00  0.00    -0.274 OA
ENDROOT
BRANCH   2   5
ATOM      5  C   UNL     1       6.305  -3.790  23.164  0.00  0.00    +0.039 A 
ATOM      6  C   UNL     1       6.128  -5.045  22.531  0.00  0.00    -0.029 A 
ATOM      7  C   UNL     1       7.140  -5.652  21.595  0.00  0.00    +0.045 C 
ATOM      8  C   UNL     1       4.931  -5.756  22.736  0.00  0.00    +0.005 A 
ATOM      9  C   UNL     1       3.917  -5.238  23.531  0.00  0.00    +0.001 A 
ATOM     10  C   UNL     1       4.083  -4.000  24.138  0.00  0.00    +0.005 A 
ATOM     11  C   UNL     1       5.267  -3.256  23.961  0.00  0.00    -0.029 A 
ATOM     12  C   UNL     1       5.375  -1.976  24.749  0.00  0.00    +0.045 C 
ENDBRANCH   2   5
BRANCH   1  13
ATOM     13  C   UNL     1       9.744  -2.222  23.330  0.00  0.00    +0.180 C 
BRANCH  13  14
ATOM     14  N   UNL     1       9.454  -0.789  23.603  0.00  0.00    -0.295 NA
BRANCH  14  16
ATOM     15  C   UNL     1       8.637  -0.179  25.908  0.00  0.00    +0.020 C 
ATOM     16  C   UNL     1       9.829  -0.433  24.989  0.00  0.00    +0.081 C 
ENDBRANCH  14  16
BRANCH  14  17
ATOM     17  C   UNL     1      10.115   0.056  22.586  0.00  0.00    +0.081 C 
ATOM     18  C   UNL     1       9.260   0.501  21.399  0.00  0.00    +0.020 C 
ENDBRANCH  14  17
ENDBRANCH  13  14
ENDBRANCH   1  13
TORSDOF 5
ENDMDL
