MODEL 1
REMARK VINA RESULT:      -6.7      0.000      0.000
REMARK  Name = 
REMARK  7 active torsions:
REMARK  status: ('A' for Active; 'I' for Inactive)
REMARK    1  A    between atoms: O_1  and  C_2
REMARK    2  A    between atoms: C_2  and  C_4
REMARK    3  A    between atoms: C_4  and  C_5
REMARK    4  A    between atoms: C_5  and  N_6
REMARK    5  A    between atoms: C_7  and  C_9
REMARK    6  A    between atoms: C_10  and  O_11
REMARK    7  A    between atoms: C_15  and  C_17
REMARK                            x       y       z     vdW  Elec       q    Type
REMARK                         _______ _______ _______ _____ _____    ______ ____
ROOT
ATOM      1  C   UNL     1       7.135  -3.915  25.280  0.00  0.00    +0.080 A 
ATOM      2  C   UNL     1       7.852  -2.757  24.930  0.00  0.00    +0.025 A 
ATOM      3  C   UNL     1       8.076  -2.393  23.590  0.00  0.00    -0.013 A 
ATOM      4  C   UNL     1       7.591  -3.272  22.604  0.00  0.00    +0.026 A 
ATOM      5  C   UNL     1       6.925  -4.462  22.940  0.00  0.00    +0.056 A 
ATOM      6  I   UNL     1       6.307  -5.709  21.372  0.00  0.00    -0.040 I 
ATOM      7  C   UNL     1       6.695  -4.789  24.277  0.00  0.00    +0.142 A 
ENDROOT
BRANCH   3   8
ATOM      8  C   UNL     1       8.790  -1.138  23.241  0.00  0.00    +0.018 A 
ATOM      9  C   UNL     1       8.757  -0.617  21.931  0.00  0.00    +0.014 A 
ATOM     10  C   UNL     1       9.420   0.572  21.604  0.00  0.00    +0.039 A 
ATOM     11  C   UNL     1      10.140   1.251  22.577  0.00  0.00    +0.126 A 
ATOM     12  F   UNL     1      10.778   2.384  22.257  0.00  0.00    -0.205 F 
ATOM     13  C   UNL     1      10.205   0.770  23.872  0.00  0.00    +0.077 A 
ATOM     14  C   UNL     1       9.531  -0.405  24.193  0.00  0.00    +0.134 A 
ATOM     15  F   UNL     1       9.602  -0.820  25.467  0.00  0.00    -0.205 F 
ENDBRANCH   3   8
BRANCH   1  18
ATOM     16  N   UNL     1       5.554  -4.063  27.134  0.00  0.00    -0.311 N 
ATOM     17  H   UNL     1       4.823  -4.026  26.425  0.00  0.00    +0.149 HD
ATOM     18  C   UNL     1       6.858  -4.214  26.710  0.00  0.00    +0.248 C 
ATOM     19  O   UNL     1       7.762  -4.631  27.429  0.00  0.00    -0.270 OA
BRANCH  16  20
ATOM     20  C   UNL     1       5.169  -4.442  28.480  0.00  0.00    +0.115 C 
BRANCH  20  21
ATOM     21  C   UNL     1       4.241  -5.643  28.512  0.00  0.00    +0.139 C 
BRANCH  21  22
ATOM     22  C   UNL     1       4.959  -6.859  28.000  0.00  0.00    +0.306 C 
ATOM     23  O   UNL     1       5.736  -7.513  28.682  0.00  0.00    -0.251 OA
BRANCH  22  24
ATOM     24  O   UNL     1       4.629  -7.210  26.739  0.00  0.00    -0.481 OA
ATOM     25  H   UNL     1       5.287  -7.765  26.279  0.00  0.00    +0.295 HD
ENDBRANCH  22  24
ENDBRANCH  21  22
ENDBRANCH  20  21
ENDBRANCH  16  20
ENDBRANCH   1  18
BRANCH   7  26
ATOM     26  O   UNL     1       6.036  -5.954  24.578  0.00  0.00    -0.505 OA
ATOM     27  H   UNL     1       6.694  -6.683  24.630  0.00  0.00    +0.292 HD
ENDBRANCH   7  26
TORSDOF 7
ENDMDL
MODEL 2
REMARK VINA RESULT:      -6.5      5.341      8.034
REMARK  Name = 
REMARK  7 active torsions:
REMARK  status: ('A' for Active; 'I' for Inactive)
REMARK    1  A    between atoms: O_1  and  C_2
REMARK    2  A    between atoms: C_2  and  C_4
REMARK    3  A    between atoms: C_4  and  C_5
REMARK    4  A    between atoms: C_5  and  N_6
REMARK    5  A    between atoms: C_7  and  C_9
REMARK    6  A    between atoms: C_10  and  O_11
REMARK    7  A    between atoms: C_15  and  C_17
REMARK                            x       y       z     vdW  Elec       q    Type
REMARK                         _______ _______ _______ _____ _____    ______ ____
ROOT
ATOM      1  C   UNL     1       8.964   0.546  24.482  0.00  0.00    +0.080 A 
ATOM      2  C   UNL     1       8.787  -0.741  23.945  0.00  0.00    +0.025 A 
ATOM      3  C   UNL     1       7.599  -1.471  24.130  0.00  0.00    -0.013 A 
ATOM      4  C   UNL     1       6.605  -0.873  24.925  0.00  0.00    +0.026 A 
ATOM      5  C   UNL     1       6.792   0.387  25.517  0.00  0.00    +0.056 A 
ATOM      6  I   UNL     1       5.250   1.134  26.727  0.00  0.00    -0.040 I 
ATOM      7  C   UNL     1       7.971   1.101  25.299  0.00  0.00    +0.142 A 
ENDROOT
BRANCH   3   8
ATOM      8  C   UNL     1       7.411  -2.807  23.510  0.00  0.00    +0.018 A 
ATOM      9  C   UNL     1       6.606  -2.978  22.365  0.00  0.00    +0.014 A 
ATOM     10  C   UNL     1       6.437  -4.235  21.774  0.00  0.00    +0.039 A 
ATOM     11  C   UNL     1       7.060  -5.346  22.326  0.00  0.00    +0.126 A 
ATOM     12  F   UNL     1       6.890  -6.548  21.760  0.00  0.00    -0.205 F 
ATOM     13  C   UNL     1       7.851  -5.226  23.453  0.00  0.00    +0.077 A 
ATOM     14  C   UNL     1       8.026  -3.969  24.027  0.00  0.00    +0.134 A 
ATOM     15  F   UNL     1       8.822  -3.896  25.105  0.00  0.00    -0.205 F 
ENDBRANCH   3   8
BRANCH   1  18
ATOM     16  N   UNL     1      10.055   2.543  23.598  0.00  0.00    -0.311 N 
ATOM     17  H   UNL     1       9.135   2.980  23.635  0.00  0.00    +0.149 HD
ATOM     18  C   UNL     1      10.209   1.309  24.193  0.00  0.00    +0.248 C 
ATOM     19  O   UNL     1      11.294   0.851  24.538  0.00  0.00    -0.270 OA
BRANCH  16  20
ATOM     20  C   UNL     1      11.202   3.404  23.384  0.00  0.00    +0.115 C 
BRANCH  20  21
ATOM     21  C   UNL     1      10.922   4.856  23.726  0.00  0.00    +0.139 C 
BRANCH  21  22
ATOM     22  C   UNL     1       9.452   5.050  23.971  0.00  0.00    +0.306 C 
ATOM     23  O   UNL     1       8.953   5.032  25.088  0.00  0.00    -0.251 OA
BRANCH  22  24
ATOM     24  O   UNL     1       8.733   5.310  22.859  0.00  0.00    -0.481 OA
ATOM     25  H   UNL     1       7.954   5.882  22.995  0.00  0.00    +0.295 HD
ENDBRANCH  22  24
ENDBRANCH  21  22
ENDBRANCH  20  21
ENDBRANCH  16  20
ENDBRANCH   1  18
BRANCH   7  26
ATOM     26  O   UNL     1       8.126   2.333  25.883  0.00  0.00    -0.505 OA
ATOM     27  H   UNL     1       7.237   2.684  26.118  0.00  0.00    +0.292 HD
ENDBRANCH   7  26
TORSDOF 7
ENDMDL
MODEL 3
REMARK VINA RESULT:      -6.5      1.391      1.687
REMARK  Name = 
REMARK  7 active torsions:
REMARK  status: ('A' for Active; 'I' for Inactive)
REMARK    1  A    between atoms: O_1  and  C_2
REMARK    2  A    between atoms: C_2  and  C_4
REMARK    3  A    between atoms: C_4  and  C_5
REMARK    4  A    between atoms: C_5  and  N_6
REMARK    5  A    between atoms: C_7  and  C_9
REMARK    6  A    between atoms: C_10  and  O_11
REMARK    7  A    between atoms: C_15  and  C_17
REMARK                            x       y       z     vdW  Elec       q    Type
REMARK                         _______ _______ _______ _____ _____    ______ ____
ROOT
ATOM      1  C   UNL     1       7.021  -4.435  26.015  0.00  0.00    +0.080 A 
ATOM      2  C   UNL     1       7.756  -3.246  25.870  0.00  0.00    +0.025 A 
ATOM      3  C   UNL     1       7.986  -2.659  24.613  0.00  0.00    -0.013 A 
ATOM      4  C   UNL     1       7.488  -3.345  23.491  0.00  0.00    +0.026 A 
ATOM      5  C   UNL     1       6.803  -4.565  23.617  0.00  0.00    +0.056 A 
ATOM      6  I   UNL     1       6.166  -5.511  21.857  0.00  0.00    -0.040 I 
ATOM      7  C   UNL     1       6.567  -5.115  24.878  0.00  0.00    +0.142 A 
ENDROOT
BRANCH   3   8
ATOM      8  C   UNL     1       8.720  -1.374  24.486  0.00  0.00    +0.018 A 
ATOM      9  C   UNL     1       8.215  -0.182  25.045  0.00  0.00    +0.014 A 
ATOM     10  C   UNL     1       8.911   1.027  24.936  0.00  0.00    +0.039 A 
ATOM     11  C   UNL     1      10.118   1.068  24.252  0.00  0.00    +0.126 A 
ATOM     12  F   UNL     1      10.778   2.228  24.144  0.00  0.00    -0.205 F 
ATOM     13  C   UNL     1      10.646  -0.075  23.680  0.00  0.00    +0.077 A 
ATOM     14  C   UNL     1       9.955  -1.278  23.806  0.00  0.00    +0.134 A 
ATOM     15  F   UNL     1      10.517  -2.365  23.257  0.00  0.00    -0.205 F 
ENDBRANCH   3   8
BRANCH   1  18
ATOM     16  N   UNL     1       5.610  -4.497  28.007  0.00  0.00    -0.311 N 
ATOM     17  H   UNL     1       4.904  -4.031  27.439  0.00  0.00    +0.149 HD
ATOM     18  C   UNL     1       6.738  -4.974  27.373  0.00  0.00    +0.248 C 
ATOM     19  O   UNL     1       7.464  -5.845  27.844  0.00  0.00    -0.270 OA
BRANCH  16  20
ATOM     20  C   UNL     1       5.193  -5.048  29.282  0.00  0.00    +0.115 C 
BRANCH  20  21
ATOM     21  C   UNL     1       4.099  -6.091  29.144  0.00  0.00    +0.139 C 
BRANCH  21  22
ATOM     22  C   UNL     1       3.640  -6.166  27.715  0.00  0.00    +0.306 C 
ATOM     23  O   UNL     1       2.927  -5.319  27.196  0.00  0.00    -0.251 OA
BRANCH  22  24
ATOM     24  O   UNL     1       4.132  -7.219  27.028  0.00  0.00    -0.481 OA
ATOM     25  H   UNL     1       3.505  -7.637  26.408  0.00  0.00    +0.295 HD
ENDBRANCH  22  24
ENDBRANCH  21  22
ENDBRANCH  20  21
ENDBRANCH  16  20
ENDBRANCH   1  18
BRANCH   7  26
ATOM     26  O   UNL     1       5.890  -6.304  24.974  0.00  0.00    -0.505 OA
ATOM     27  H   UNL     1       4.943  -6.113  25.161  0.00  0.00    +0.292 HD
ENDBRANCH   7  26
TORSDOF 7
ENDMDL
MODEL 4
REMARK VINA RESULT:      -6.3      3.841      7.635
REMARK  Name = 
REMARK  7 active torsions:
REMARK  status: ('A' for Active; 'I' for Inactive)
REMARK    1  A    between atoms: O_1  and  C_2
REMARK    2  A    between atoms: C_2  and  C_4
REMARK    3  A    between atoms: C_4  and  C_5
REMARK    4  A    between atoms: C_5  and  N_6
REMARK    5  A    between atoms: C_7  and  C_9
REMARK    6  A    between atoms: C_10  and  O_11
REMARK    7  A    between atoms: C_15  and  C_17
REMARK                            x       y       z     vdW  Elec       q    Type
REMARK                         _______ _______ _______ _____ _____    ______ ____
ROOT
ATOM      1  C   UNL     1       7.457  -2.745  24.716  0.00  0.00    +0.080 A 
ATOM      2  C   UNL     1       6.822  -3.344  25.817  0.00  0.00    +0.025 A 
ATOM      3  C   UNL     1       6.168  -4.585  25.718  0.00  0.00    -0.013 A 
ATOM      4  C   UNL     1       6.132  -5.184  24.446  0.00  0.00    +0.026 A 
ATOM      5  C   UNL     1       6.711  -4.568  23.324  0.00  0.00    +0.056 A 
ATOM      6  I   UNL     1       6.534  -5.543  21.477  0.00  0.00    -0.040 I 
ATOM      7  C   UNL     1       7.375  -3.347  23.454  0.00  0.00    +0.142 A 
ENDROOT
BRANCH   3   8
ATOM      8  C   UNL     1       5.547  -5.227  26.906  0.00  0.00    +0.018 A 
ATOM      9  C   UNL     1       4.147  -5.265  27.070  0.00  0.00    +0.014 A 
ATOM     10  C   UNL     1       3.561  -5.879  28.183  0.00  0.00    +0.039 A 
ATOM     11  C   UNL     1       4.366  -6.453  29.157  0.00  0.00    +0.126 A 
ATOM     12  F   UNL     1       3.800  -7.034  30.223  0.00  0.00    -0.205 F 
ATOM     13  C   UNL     1       5.743  -6.432  29.040  0.00  0.00    +0.077 A 
ATOM     14  C   UNL     1       6.318  -5.831  27.922  0.00  0.00    +0.134 A 
ATOM     15  F   UNL     1       7.657  -5.856  27.839  0.00  0.00    -0.205 F 
ENDBRANCH   3   8
BRANCH   1  18
ATOM     16  N   UNL     1       7.939  -0.467  23.981  0.00  0.00    -0.311 N 
ATOM     17  H   UNL     1       7.086  -0.538  23.426  0.00  0.00    +0.149 HD
ATOM     18  C   UNL     1       8.203  -1.469  24.891  0.00  0.00    +0.248 C 
ATOM     19  O   UNL     1       8.961  -1.336  25.847  0.00  0.00    -0.270 OA
BRANCH  16  20
ATOM     20  C   UNL     1       8.532   0.847  24.141  0.00  0.00    +0.115 C 
BRANCH  20  21
ATOM     21  C   UNL     1       9.890   0.966  23.474  0.00  0.00    +0.139 C 
BRANCH  21  22
ATOM     22  C   UNL     1       9.738   0.879  21.982  0.00  0.00    +0.306 C 
ATOM     23  O   UNL     1       9.475  -0.161  21.396  0.00  0.00    -0.251 OA
BRANCH  22  24
ATOM     24  O   UNL     1       9.854   2.063  21.342  0.00  0.00    -0.481 OA
ATOM     25  H   UNL     1       9.008   2.502  21.130  0.00  0.00    +0.295 HD
ENDBRANCH  22  24
ENDBRANCH  21  22
ENDBRANCH  20  21
ENDBRANCH  16  20
ENDBRANCH   1  18
BRANCH   7  26
ATOM     26  O   UNL     1       7.939  -2.770  22.345  0.00  0.00    -0.505 OA
ATOM     27  H   UNL     1       8.572  -3.407  21.945  0.00  0.00    +0.292 HD
ENDBRANCH   7  26
TORSDOF 7
ENDMDL
MODEL 5
REMARK VINA RESULT:      -6.2      6.233      8.558
REMARK  Name = 
REMARK  7 active torsions:
REMARK  status: ('A' for Active; 'I' for Inactive)
REMARK    1  A    between atoms: O_1  and  C_2
REMARK    2  A    between atoms: C_2  and  C_4
REMARK    3  A    between atoms: C_4  and  C_5
REMARK    4  A    between atoms: C_5  and  N_6
REMARK    5  A    between atoms: C_7  and  C_9
REMARK    6  A    between atoms: C_10  and  O_11
REMARK    7  A    between atoms: C_15  and  C_17
REMARK                            x       y       z     vdW  Elec       q    Type
REMARK                         _______ _______ _______ _____ _____    ______ ____
ROOT
ATOM      1  C   UNL     1       8.569   4.391  24.041  0.00  0.00    +0.080 A 
ATOM      2  C   UNL     1       8.580   2.986  24.019  0.00  0.00    +0.025 A 
ATOM      3  C   UNL     1       9.760   2.251  23.811  0.00  0.00    -0.013 A 
ATOM      4  C   UNL     1      10.934   2.989  23.573  0.00  0.00    +0.026 A 
ATOM      5  C   UNL     1      10.927   4.393  23.534  0.00  0.00    +0.056 A 
ATOM      6  I   UNL     1      12.736   5.365  23.111  0.00  0.00    -0.040 I 
ATOM      7  C   UNL     1       9.746   5.100  23.766  0.00  0.00    +0.142 A 
ENDROOT
BRANCH   3   8
ATOM      8  C   UNL     1       9.760   0.766  23.844  0.00  0.00    +0.018 A 
ATOM      9  C   UNL     1       9.559   0.059  25.048  0.00  0.00    +0.014 A 
ATOM     10  C   UNL     1       9.547  -1.340  25.078  0.00  0.00    +0.039 A 
ATOM     11  C   UNL     1       9.750  -2.057  23.907  0.00  0.00    +0.126 A 
ATOM     12  F   UNL     1       9.744  -3.396  23.942  0.00  0.00    -0.205 F 
ATOM     13  C   UNL     1       9.959  -1.404  22.706  0.00  0.00    +0.077 A 
ATOM     14  C   UNL     1       9.955  -0.012  22.681  0.00  0.00    +0.134 A 
ATOM     15  F   UNL     1      10.137   0.578  21.490  0.00  0.00    -0.205 F 
ENDBRANCH   3   8
BRANCH   1  18
ATOM     16  N   UNL     1       6.136   4.541  23.905  0.00  0.00    -0.311 N 
ATOM     17  H   UNL     1       6.157   3.553  23.654  0.00  0.00    +0.149 HD
ATOM     18  C   UNL     1       7.308   5.121  24.343  0.00  0.00    +0.248 C 
ATOM     19  O   UNL     1       7.349   6.155  25.004  0.00  0.00    -0.270 OA
BRANCH  16  20
ATOM     20  C   UNL     1       4.853   5.122  24.253  0.00  0.00    +0.115 C 
BRANCH  20  21
ATOM     21  C   UNL     1       3.765   4.795  23.246  0.00  0.00    +0.139 C 
BRANCH  21  22
ATOM     22  C   UNL     1       3.586   3.307  23.150  0.00  0.00    +0.306 C 
ATOM     23  O   UNL     1       3.805   2.545  24.082  0.00  0.00    -0.251 OA
BRANCH  22  24
ATOM     24  O   UNL     1       3.099   2.881  21.965  0.00  0.00    -0.481 OA
ATOM     25  H   UNL     1       2.203   3.199  21.748  0.00  0.00    +0.295 HD
ENDBRANCH  22  24
ENDBRANCH  21  22
ENDBRANCH  20  21
ENDBRANCH  16  20
ENDBRANCH   1  18
BRANCH   7  26
ATOM     26  O   UNL     1       9.767   6.471  23.729  0.00  0.00    -0.505 OA
ATOM     27  H   UNL     1      10.614   6.783  24.119  0.00  0.00    +0.292 HD
ENDBRANCH   7  26
TORSDOF 7
ENDMDL
MODEL 6
REMARK VINA RESULT:      -6.1      3.357      4.538
REMARK  Name = 
REMARK  7 active torsions:
REMARK  status: ('A' for Active; 'I' for Inactive)
REMARK    1  A    between atoms: O_1  and  C_2
REMARK    2  A    between atoms: C_2  and  C_4
REMARK    3  A    between atoms: C_4  and  C_5
REMARK    4  A    between atoms: C_5  and  N_6
REMARK    5  A    between atoms: C_7  and  C_9
REMARK    6  A    between atoms: C_10  and  O_11
REMARK    7  A    between atoms: C_15  and  C_17
REMARK                            x       y       z     vdW  Elec       q    Type
REMARK                         _______ _______ _______ _____ _____    ______ ____
ROOT
ATOM      1  C   UNL     1       7.962  -2.054  24.778  0.00  0.00    +0.080 A 
ATOM      2  C   UNL     1       8.594  -0.869  24.362  0.00  0.00    +0.025 A 
ATOM      3  C   UNL     1       8.272   0.383  24.914  0.00  0.00    -0.013 A 
ATOM      4  C   UNL     1       7.243   0.407  25.873  0.00  0.00    +0.026 A 
ATOM      5  C   UNL     1       6.562  -0.760  26.255  0.00  0.00    +0.056 A 
ATOM      6  I   UNL     1       5.011  -0.572  27.652  0.00  0.00    -0.040 I 
ATOM      7  C   UNL     1       6.918  -1.995  25.709  0.00  0.00    +0.142 A 
ENDROOT
BRANCH   3   8
ATOM      8  C   UNL     1       8.988   1.616  24.499  0.00  0.00    +0.018 A 
ATOM      9  C   UNL     1       8.361   2.879  24.547  0.00  0.00    +0.014 A 
ATOM     10  C   UNL     1       9.038   4.043  24.167  0.00  0.00    +0.039 A 
ATOM     11  C   UNL     1      10.350   3.963  23.719  0.00  0.00    +0.126 A 
ATOM     12  F   UNL     1      10.991   5.079  23.350  0.00  0.00    -0.205 F 
ATOM     13  C   UNL     1      11.000   2.745  23.649  0.00  0.00    +0.077 A 
ATOM     14  C   UNL     1      10.324   1.592  24.042  0.00  0.00    +0.134 A 
ATOM     15  F   UNL     1      11.002   0.436  23.980  0.00  0.00    -0.205 F 
ENDBRANCH   3   8
BRANCH   1  18
ATOM     16  N   UNL     1       7.407  -4.173  23.700  0.00  0.00    -0.311 N 
ATOM     17  H   UNL     1       6.508  -3.746  23.477  0.00  0.00    +0.149 HD
ATOM     18  C   UNL     1       8.395  -3.364  24.219  0.00  0.00    +0.248 C 
ATOM     19  O   UNL     1       9.590  -3.644  24.186  0.00  0.00    -0.270 OA
BRANCH  16  20
ATOM     20  C   UNL     1       7.747  -5.414  23.032  0.00  0.00    +0.115 C 
BRANCH  20  21
ATOM     21  C   UNL     1       6.828  -5.728  21.865  0.00  0.00    +0.139 C 
BRANCH  21  22
ATOM     22  C   UNL     1       5.642  -4.807  21.885  0.00  0.00    +0.306 C 
ATOM     23  O   UNL     1       4.634  -5.029  22.542  0.00  0.00    -0.251 OA
BRANCH  22  24
ATOM     24  O   UNL     1       5.803  -3.677  21.165  0.00  0.00    -0.481 OA
ATOM     25  H   UNL     1       5.871  -2.858  21.691  0.00  0.00    +0.295 HD
ENDBRANCH  22  24
ENDBRANCH  21  22
ENDBRANCH  20  21
ENDBRANCH  16  20
ENDBRANCH   1  18
BRANCH   7  26
ATOM     26  O   UNL     1       6.242  -3.121  26.103  0.00  0.00    -0.505 OA
ATOM     27  H   UNL     1       6.608  -3.894  25.618  0.00  0.00    +0.292 HD
ENDBRANCH   7  26
TORSDOF 7
ENDMDL
MODEL 7
REMARK VINA RESULT:      -6.1      4.971      7.379
REMARK  Name = 
REMARK  7 active torsions:
REMARK  status: ('A' for Active; 'I' for Inactive)
REMARK    1  A    between atoms: O_1  and  C_2
REMARK    2  A    between atoms: C_2  and  C_4
REMARK    3  A    between atoms: C_4  and  C_5
REMARK    4  A    between atoms: C_5  and  N_6
REMARK    5  A    between atoms: C_7  and  C_9
REMARK    6  A    between atoms: C_10  and  O_11
REMARK    7  A    between atoms: C_15  and  C_17
REMARK                            x       y       z     vdW  Elec       q    Type
REMARK                         _______ _______ _______ _____ _____    ______ ____
ROOT
ATOM      1  C   UNL     1       6.572   0.706  24.942  0.00  0.00    +0.080 A 
ATOM      2  C   UNL     1       6.845  -0.455  24.199  0.00  0.00    +0.025 A 
ATOM      3  C   UNL     1       6.146  -1.658  24.408  0.00  0.00    -0.013 A 
ATOM      4  C   UNL     1       5.189  -1.664  25.438  0.00  0.00    +0.026 A 
ATOM      5  C   UNL     1       4.947  -0.528  26.228  0.00  0.00    +0.056 A 
ATOM      6  I   UNL     1       3.534  -0.693  27.768  0.00  0.00    -0.040 I 
ATOM      7  C   UNL     1       5.638   0.661  25.984  0.00  0.00    +0.142 A 
ENDROOT
BRANCH   3   8
ATOM      8  C   UNL     1       6.413  -2.859  23.577  0.00  0.00    +0.018 A 
ATOM      9  C   UNL     1       5.824  -3.016  22.305  0.00  0.00    +0.014 A 
ATOM     10  C   UNL     1       6.083  -4.142  21.515  0.00  0.00    +0.039 A 
ATOM     11  C   UNL     1       6.925  -5.138  21.991  0.00  0.00    +0.126 A 
ATOM     12  F   UNL     1       7.165  -6.217  21.234  0.00  0.00    -0.205 F 
ATOM     13  C   UNL     1       7.517  -5.029  23.235  0.00  0.00    +0.077 A 
ATOM     14  C   UNL     1       7.266  -3.899  24.009  0.00  0.00    +0.134 A 
ATOM     15  F   UNL     1       7.881  -3.825  25.199  0.00  0.00    -0.205 F 
ENDBRANCH   3   8
BRANCH   1  18
ATOM     16  N   UNL     1       8.662   1.932  24.645  0.00  0.00    -0.311 N 
ATOM     17  H   UNL     1       9.113   1.019  24.599  0.00  0.00    +0.149 HD
ATOM     18  C   UNL     1       7.284   1.975  24.628  0.00  0.00    +0.248 C 
ATOM     19  O   UNL     1       6.638   2.971  24.316  0.00  0.00    -0.270 OA
BRANCH  16  20
ATOM     20  C   UNL     1       9.438   3.089  24.241  0.00  0.00    +0.115 C 
BRANCH  20  21
ATOM     21  C   UNL     1      10.495   2.757  23.203  0.00  0.00    +0.139 C 
BRANCH  21  22
ATOM     22  C   UNL     1       9.979   1.701  22.267  0.00  0.00    +0.306 C 
ATOM     23  O   UNL     1      10.276   0.519  22.363  0.00  0.00    -0.251 OA
BRANCH  22  24
ATOM     24  O   UNL     1       9.106   2.157  21.342  0.00  0.00    -0.481 OA
ATOM     25  H   UNL     1       9.453   2.856  20.757  0.00  0.00    +0.295 HD
ENDBRANCH  22  24
ENDBRANCH  21  22
ENDBRANCH  20  21
ENDBRANCH  16  20
ENDBRANCH   1  18
BRANCH   7  26
ATOM     26  O   UNL     1       5.379   1.758  26.766  0.00  0.00    -0.505 OA
ATOM     27  H   UNL     1       4.565   2.197  26.432  0.00  0.00    +0.292 HD
ENDBRANCH   7  26
TORSDOF 7
ENDMDL
MODEL 8
REMARK VINA RESULT:      -6.1      6.926      8.886
REMARK  Name = 
REMARK  7 active torsions:
REMARK  status: ('A' for Active; 'I' for Inactive)
REMARK    1  A    between atoms: O_1  and  C_2
REMARK    2  A    between atoms: C_2  and  C_4
REMARK    3  A    between atoms: C_4  and  C_5
REMARK    4  A    between atoms: C_5  and  N_6
REMARK    5  A    between atoms: C_7  and  C_9
REMARK    6  A    between atoms: C_10  and  O_11
REMARK    7  A    between atoms: C_15  and  C_17
REMARK                            x       y       z     vdW  Elec       q    Type
REMARK                         _______ _______ _______ _____ _____    ______ ____
ROOT
ATOM      1  C   UNL     1       5.325   3.213  22.947  0.00  0.00    +0.080 A 
ATOM      2  C   UNL     1       6.156   2.079  22.922  0.00  0.00    +0.025 A 
ATOM      3  C   UNL     1       7.553   2.174  23.044  0.00  0.00    -0.013 A 
ATOM      4  C   UNL     1       8.095   3.468  23.142  0.00  0.00    +0.026 A 
ATOM      5  C   UNL     1       7.282   4.613  23.108  0.00  0.00    +0.056 A 
ATOM      6  I   UNL     1       8.226   6.483  23.205  0.00  0.00    -0.040 I 
ATOM      7  C   UNL     1       5.895   4.491  23.010  0.00  0.00    +0.142 A 
ENDROOT
BRANCH   3   8
ATOM      8  C   UNL     1       8.409   0.960  23.068  0.00  0.00    +0.018 A 
ATOM      9  C   UNL     1       8.672   0.273  24.271  0.00  0.00    +0.014 A 
ATOM     10  C   UNL     1       9.470  -0.877  24.293  0.00  0.00    +0.039 A 
ATOM     11  C   UNL     1      10.029  -1.351  23.114  0.00  0.00    +0.126 A 
ATOM     12  F   UNL     1      10.797  -2.449  23.142  0.00  0.00    -0.205 F 
ATOM     13  C   UNL     1       9.804  -0.703  21.914  0.00  0.00    +0.077 A 
ATOM     14  C   UNL     1       8.998   0.432  21.898  0.00  0.00    +0.134 A 
ATOM     15  F   UNL     1       8.787   1.013  20.707  0.00  0.00    -0.205 F 
ENDBRANCH   3   8
BRANCH   1  18
ATOM     16  N   UNL     1       3.250   3.210  21.660  0.00  0.00    -0.311 N 
ATOM     17  H   UNL     1       3.843   3.154  20.833  0.00  0.00    +0.149 HD
ATOM     18  C   UNL     1       3.846   3.054  22.894  0.00  0.00    +0.248 C 
ATOM     19  O   UNL     1       3.233   2.738  23.909  0.00  0.00    -0.270 OA
BRANCH  16  20
ATOM     20  C   UNL     1       1.832   2.961  21.492  0.00  0.00    +0.115 C 
BRANCH  20  21
ATOM     21  C   UNL     1       1.412   2.901  20.034  0.00  0.00    +0.139 C 
BRANCH  21  22
ATOM     22  C   UNL     1       1.910   4.118  19.307  0.00  0.00    +0.306 C 
ATOM     23  O   UNL     1       1.844   5.247  19.771  0.00  0.00    -0.251 OA
BRANCH  22  24
ATOM     24  O   UNL     1       2.495   3.855  18.119  0.00  0.00    -0.481 OA
ATOM     25  H   UNL     1       3.467   3.782  18.145  0.00  0.00    +0.295 HD
ENDBRANCH  22  24
ENDBRANCH  21  22
ENDBRANCH  20  21
ENDBRANCH  16  20
ENDBRANCH   1  18
BRANCH   7  26
ATOM     26  O   UNL     1       5.123   5.624  22.987  0.00  0.00    -0.505 OA
ATOM     27  H   UNL     1       5.644   6.368  23.364  0.00  0.00    +0.292 HD
ENDBRANCH   7  26
TORSDOF 7
ENDMDL
MODEL 9
REMARK VINA RESULT:      -6.1      5.564      8.593
REMARK  Name = 
REMARK  7 active torsions:
REMARK  status: ('A' for Active; 'I' for Inactive)
REMARK    1  A    between atoms: O_1  and  C_2
REMARK    2  A    between atoms: C_2  and  C_4
REMARK    3  A    between atoms: C_4  and  C_5
REMARK    4  A    between atoms: C_5  and  N_6
REMARK    5  A    between atoms: C_7  and  C_9
REMARK    6  A    between atoms: C_10  and  O_11
REMARK    7  A    between atoms: C_15  and  C_17
REMARK                            x       y       z     vdW  Elec       q    Type
REMARK                         _______ _______ _______ _____ _____    ______ ____
ROOT
ATOM      1  C   UNL     1       7.974   0.722  23.634  0.00  0.00    +0.080 A 
ATOM      2  C   UNL     1       7.979  -0.627  23.242  0.00  0.00    +0.025 A 
ATOM      3  C   UNL     1       7.041  -1.552  23.734  0.00  0.00    -0.013 A 
ATOM      4  C   UNL     1       6.120  -1.076  24.685  0.00  0.00    +0.026 A 
ATOM      5  C   UNL     1       6.141   0.255  25.131  0.00  0.00    +0.056 A 
ATOM      6  I   UNL     1       4.748   0.816  26.594  0.00  0.00    -0.040 I 
ATOM      7  C   UNL     1       7.068   1.160  24.609  0.00  0.00    +0.142 A 
ENDROOT
BRANCH   3   8
ATOM      8  C   UNL     1       7.029  -2.962  23.267  0.00  0.00    +0.018 A 
ATOM      9  C   UNL     1       7.872  -3.933  23.848  0.00  0.00    +0.014 A 
ATOM     10  C   UNL     1       7.854  -5.264  23.416  0.00  0.00    +0.039 A 
ATOM     11  C   UNL     1       7.004  -5.644  22.387  0.00  0.00    +0.126 A 
ATOM     12  F   UNL     1       6.996  -6.918  21.973  0.00  0.00    -0.205 F 
ATOM     13  C   UNL     1       6.168  -4.723  21.784  0.00  0.00    +0.077 A 
ATOM     14  C   UNL     1       6.180  -3.403  22.229  0.00  0.00    +0.134 A 
ATOM     15  F   UNL     1       5.334  -2.550  21.632  0.00  0.00    -0.205 F 
ENDBRANCH   3   8
BRANCH   1  18
ATOM     16  N   UNL     1       9.801   2.322  23.886  0.00  0.00    -0.311 N 
ATOM     17  H   UNL     1       9.926   1.930  24.819  0.00  0.00    +0.149 HD
ATOM     18  C   UNL     1       8.938   1.678  23.025  0.00  0.00    +0.248 C 
ATOM     19  O   UNL     1       8.970   1.812  21.805  0.00  0.00    -0.270 OA
BRANCH  16  20
ATOM     20  C   UNL     1      10.849   3.182  23.371  0.00  0.00    +0.115 C 
BRANCH  20  21
ATOM     21  C   UNL     1      10.630   4.646  23.710  0.00  0.00    +0.139 C 
BRANCH  21  22
ATOM     22  C   UNL     1      11.887   5.425  23.449  0.00  0.00    +0.306 C 
ATOM     23  O   UNL     1      12.433   6.117  24.298  0.00  0.00    -0.251 OA
BRANCH  22  24
ATOM     24  O   UNL     1      12.404   5.250  22.214  0.00  0.00    -0.481 OA
ATOM     25  H   UNL     1      12.864   6.028  21.845  0.00  0.00    +0.295 HD
ENDBRANCH  22  24
ENDBRANCH  21  22
ENDBRANCH  20  21
ENDBRANCH  16  20
ENDBRANCH   1  18
BRANCH   7  26
ATOM     26  O   UNL     1       7.063   2.457  25.056  0.00  0.00    -0.505 OA
ATOM     27  H   UNL     1       6.132   2.731  25.218  0.00  0.00    +0.292 HD
ENDBRANCH   7  26
TORSDOF 7
ENDMDL
