MODEL 1
REMARK VINA RESULT:      43.1      0.000      0.000
REMARK  Name = 
REMARK  28 active torsions:
REMARK  status: ('A' for Active; 'I' for Inactive)
REMARK    1  A    between atoms: C_1  and  N_2
REMARK    2  A    between atoms: N_2  and  CA_3
REMARK    3  A    between atoms: CA_3  and  CB_5
REMARK    4  A    between atoms: CA_3  and  C_9
REMARK    5  A    between atoms: CB_5  and  CG_6
REMARK    6  A    between atoms: CG_6  and  CD1_7
REMARK    7  A    between atoms: CG_6  and  CD2_8
REMARK    8  A    between atoms: N_11  and  C_12
REMARK    9  A    between atoms: C_14  and  O_16
REMARK   10  A    between atoms: C_24  and  O_25
REMARK   11  A    between atoms: O_25  and  C_26
REMARK   12  A    between atoms: C_29  and  C_31
REMARK   13  A    between atoms: C_31  and  O_32
REMARK   14  A    between atoms: C_33  and  O_35
REMARK   15  A    between atoms: C_36  and  O_38
REMARK   16  A    between atoms: C_39  and  O_41
REMARK   17  A    between atoms: CA_51  and  CB_53
REMARK   18  A    between atoms: CB_53  and  CG_54
REMARK   19  A    between atoms: C_68  and  O_69
REMARK   20  A    between atoms: C_75  and  O_76
REMARK   21  A    between atoms: C_78  and  O_79
REMARK   22  A    between atoms: C_80  and  C_113
REMARK   23  A    between atoms: C_90  and  O_92
REMARK   24  A    between atoms: O_92  and  C_93
REMARK   25  A    between atoms: C_96  and  C_97
REMARK   26  A    between atoms: C_96  and  N_98
REMARK   27  A    between atoms: C_101  and  C_103
REMARK   28  A    between atoms: C_113  and  O_114
REMARK                            x       y       z     vdW  Elec       q    Type
REMARK                         _______ _______ _______ _____ _____    ______ ____
ROOT
ATOM      1  C   UNK A   2       4.920  -8.341  25.731  0.00  0.00    +0.192 C 
ATOM      2  C   UNK A   2       5.808  -6.888  25.465  0.00  0.00    +0.237 C 
ATOM      3  O   UNK A   2       6.180  -6.629  24.316  0.00  0.00    -0.274 OA
ATOM      4  N   ASN A   3       6.338  -6.132  26.542  0.00  0.00    -0.302 N 
ATOM      5  H   ASN A   3       5.694  -6.097  27.330  0.00  0.00    +0.150 HD
ATOM      6  CA  ASN A   3       7.366  -4.929  26.564  0.00  0.00    +0.168 C 
ATOM      7  C   ASN A   3       6.517  -3.627  26.599  0.00  0.00    +0.235 C 
ATOM      8  O   ASN A   3       5.630  -3.473  27.435  0.00  0.00    -0.274 OA
ATOM      9  N   UNK A   4       6.913  -2.658  25.676  0.00  0.00    -0.299 N 
ATOM     10  H   UNK A   4       7.882  -2.368  25.665  0.00  0.00    +0.150 HD
ATOM     11  C   UNK A   4       6.074  -1.626  25.114  0.00  0.00    +0.190 C 
ATOM     12  C   UNK A   4       6.622  -1.306  23.668  0.00  0.00    +0.239 C 
ATOM     13  N   UNK A   5       7.540  -0.265  23.607  0.00  0.00    -0.299 N 
ATOM     14  H   UNK A   5       8.029  -0.042  24.470  0.00  0.00    +0.150 HD
ATOM     15  C   UNK A   5       7.052   0.895  22.875  0.00  0.00    +0.190 C 
ATOM     16  C   UNK A   5       6.241   1.884  23.967  0.00  0.00    +0.239 C 
ATOM     17  O   UNK A   5       5.583   2.848  23.565  0.00  0.00    -0.273 OA
ATOM     18  N   UNK A   6       6.205   1.599  25.380  0.00  0.00    -0.300 N 
ATOM     19  H   UNK A   6       5.279   1.215  25.540  0.00  0.00    +0.150 HD
ATOM     20  C   UNK A   6       6.342   2.731  26.471  0.00  0.00    +0.192 C 
ATOM     21  C   UNK A   6       5.829   2.603  28.026  0.00  0.00    +0.180 C 
ATOM     22  C   UNK A   6       4.469   1.962  28.228  0.00  0.00    -0.015 A 
ATOM     23  C   UNK A   6       4.276   1.022  29.254  0.00  0.00    +0.010 A 
ATOM     24  C   UNK A   6       3.264   0.041  29.155  0.00  0.00    +0.048 A 
ATOM     25  C   UNK A   6       2.430   0.021  28.038  0.00  0.00    +0.147 A 
ATOM     26  O   UNK A   6       1.814  -1.188  27.603  0.00  0.00    -0.451 OA
ATOM     27  C   UNK A   6       2.494  -1.943  26.589  0.00  0.00    +0.174 A 
ATOM     28  C   UNK A   6       3.854  -1.578  26.334  0.00  0.00    +0.056 A 
ATOM     29  C   UNK A   6       1.922  -2.947  25.735  0.00  0.00    +0.208 A 
ATOM     30  C   UNK A   6       2.672  -3.201  24.498  0.00  0.00    +0.174 A 
ATOM     31  C   UNK A   6       3.970  -2.730  24.257  0.00  0.00    +0.056 A 
ATOM     32  O   UNK A   6       2.238  -3.986  23.414  0.00  0.00    -0.451 OA
ATOM     33  C   UNK A   6       2.623  -5.309  23.476  0.00  0.00    +0.147 A 
ATOM     34  C   UNK A   6       2.527  -5.883  24.729  0.00  0.00    +0.048 A 
ATOM     35  C   UNK A   6       2.421  -7.217  24.876  0.00  0.00    +0.010 A 
ATOM     36  C   UNK A   6       3.101  -7.949  23.935  0.00  0.00    -0.015 A 
ATOM     37  C   UNK A   6       3.275  -7.469  22.629  0.00  0.00    +0.030 A 
ATOM     38  C   UNK A   6       2.964  -6.124  22.384  0.00  0.00    +0.083 A 
ATOM     39 CL   UNK A   6       3.209  -5.511  20.791  0.00  0.00    -0.080 Cl
ATOM     40  C   UNK A   6       2.300   1.268  27.407  0.00  0.00    +0.083 A 
ATOM     41 CL   UNK A   6       0.714   1.882  27.089  0.00  0.00    -0.080 Cl
ATOM     42  C   UNK A   6       3.351   2.221  27.447  0.00  0.00    +0.030 A 
ATOM     43  C   UNK A   6       7.858   2.838  26.671  0.00  0.00    +0.237 C 
ATOM     44  O   UNK A   6       8.489   2.434  27.644  0.00  0.00    -0.274 OA
ATOM     45  N   UNK A   7       8.527   3.283  25.579  0.00  0.00    -0.297 N 
ATOM     46  H   UNK A   7       7.988   3.541  24.756  0.00  0.00    +0.150 HD
ATOM     47  C   UNK A   7       9.837   2.725  25.359  0.00  0.00    +0.213 C 
ATOM     48  C   UNK A   7      10.726   3.779  24.722  0.00  0.00    -0.002 A 
ATOM     49  C   UNK A   7      11.313   4.632  25.707  0.00  0.00    +0.052 A 
ATOM     50  C   UNK A   7      11.716   5.873  25.344  0.00  0.00    +0.121 A 
ATOM     51  C   UNK A   7      11.655   6.340  24.060  0.00  0.00    +0.091 A 
ATOM     52  C   UNK A   7      11.134   5.489  23.065  0.00  0.00    +0.128 A 
ATOM     53  C   UNK A   7      10.687   4.161  23.320  0.00  0.00    +0.033 A 
ATOM     54  C   UNK A   7      10.022   3.284  22.224  0.00  0.00    +0.028 A 
ATOM     55  C   UNK A   7      10.079   3.359  20.838  0.00  0.00    +0.125 A 
ATOM     56  C   UNK A   7       9.284   2.490  20.048  0.00  0.00    +0.046 A 
ATOM     57  C   UNK A   7       8.276   1.663  20.626  0.00  0.00    +0.009 A 
ATOM     58  C   UNK A   7       9.236   2.179  22.621  0.00  0.00    +0.018 A 
ATOM     59  C   UNK A   7       8.139   1.604  22.007  0.00  0.00    -0.018 A 
ATOM     60  O   UNK A   4       6.339  -1.931  22.642  0.00  0.00    -0.273 OA
ATOM     61  C   UNK A   4       4.602  -1.954  25.196  0.00  0.00    -0.011 A 
ATOM     62  C   UNK A   6       3.952  -8.993  24.577  0.00  0.00    +0.174 C 
ENDROOT
BRANCH   1  64
ATOM     63  C   LEU A   1       4.301  -7.557  27.903  0.00  0.00    +0.231 C 
ATOM     64  N   UNK A   2       4.322  -8.648  27.064  0.00  0.00    -0.300 N 
ATOM     65  H   UNK A   2       4.701  -9.489  27.502  0.00  0.00    +0.150 HD
ATOM     66  O   LEU A   1       4.107  -6.439  27.417  0.00  0.00    -0.274 OA
BRANCH  63  67
ATOM     67  CA  LEU A   1       4.802  -7.727  29.361  0.00  0.00    +0.140 C 
BRANCH  67  69
ATOM     68  C   ACE A   0       2.882  -8.889  30.432  0.00  0.00    +0.101 C 
ATOM     69  N   LEU A   1       3.738  -7.703  30.390  0.00  0.00    -0.309 NA
ATOM     70  H   LEU A   1       3.132  -6.908  30.172  0.00  0.00    +0.122 HD
ENDBRANCH  67  69
BRANCH  67  71
ATOM     71  CB  LEU A   1       5.937  -6.694  29.500  0.00  0.00    +0.031 C 
BRANCH  71  72
ATOM     72  CG  LEU A   1       5.597  -5.221  29.295  0.00  0.00    -0.015 C 
ATOM     73  CD2 LEU A   1       6.177  -4.453  30.485  0.00  0.00    +0.007 C 
ATOM     74  CD1 LEU A   1       4.092  -5.025  29.161  0.00  0.00    +0.007 C 
ENDBRANCH  71  72
ENDBRANCH  67  71
ENDBRANCH  63  67
ENDBRANCH   1  64
BRANCH  62  75
ATOM     75  O   UNK A   6       3.016  -9.948  25.170  0.00  0.00    -0.385 OA
ATOM     76  H   UNK A   6       2.642 -10.475  24.435  0.00  0.00    +0.210 HD
ENDBRANCH  62  75
BRANCH  55  77
ATOM     77  O   UNK A   7      10.913   4.194  20.149  0.00  0.00    -0.506 OA
ATOM     78  H   UNK A   7      10.602   4.204  19.223  0.00  0.00    +0.292 HD
ENDBRANCH  55  77
BRANCH  50  79
ATOM     79  O   UNK A   7      12.173   6.789  26.287  0.00  0.00    -0.507 OA
ATOM     80  H   UNK A   7      11.480   6.901  26.988  0.00  0.00    +0.292 HD
ENDBRANCH  50  79
BRANCH  52  81
ATOM     81  O   UNK A   7      11.011   6.055  21.817  0.00  0.00    -0.506 OA
ATOM     82  H   UNK A   7      11.061   5.349  21.143  0.00  0.00    +0.292 HD
ENDBRANCH  52  81
BRANCH  47  83
ATOM     83  C   UNK A   7      10.308   1.357  25.916  0.00  0.00    +0.330 C 
ATOM     84  O   UNK A   7      10.964   0.580  25.212  0.00  0.00    -0.249 OA
BRANCH  83  85
ATOM     85  O   UNK A   7      10.053   1.087  27.204  0.00  0.00    -0.479 OA
ATOM     86  H   UNK A   7       9.543   1.767  27.675  0.00  0.00    +0.295 HD
ENDBRANCH  83  85
ENDBRANCH  47  83
BRANCH  21  87
ATOM     87  O   UNK A   6       5.907   3.934  28.613  0.00  0.00    -0.341 OA
BRANCH  87  88
ATOM     88  C   UNK A   6       5.049   4.983  28.086  0.00  0.00    +0.254 C 
ATOM     89  O   UNK A   6       4.872   4.895  26.671  0.00  0.00    -0.341 OA
ATOM     90  C   UNK A   6       3.967   5.870  26.145  0.00  0.00    +0.186 C 
ATOM     91  C   UNK A   6       3.955   5.783  24.622  0.00  0.00    +0.046 C 
ATOM     92  C   UNK A   6       2.566   5.713  26.737  0.00  0.00    +0.181 C 
ATOM     93  O   UNK A   6       1.541   5.773  26.052  0.00  0.00    -0.293 OA
ATOM     94  C   UNK A   6       2.526   5.706  28.277  0.00  0.00    +0.080 C 
ATOM     95  C   UNK A   6       1.179   5.163  28.798  0.00  0.00    +0.036 C 
ATOM     96  C   UNK A   6       3.679   4.806  28.780  0.00  0.00    +0.090 C 
BRANCH  94  97
ATOM     97  N   UNK A   6       2.644   7.106  28.776  0.00  0.00    -0.319 NA
ATOM     98  H   UNK A   6       2.602   7.141  29.800  0.00  0.00    +0.119 HD
ATOM     99  H   UNK A   6       1.843   7.671  28.508  0.00  0.00    +0.119 HD
ENDBRANCH  94  97
ENDBRANCH  87  88
ENDBRANCH  21  87
BRANCH  29 100
ATOM    100  O   UNK A   6       0.766  -3.723  25.848  0.00  0.00    -0.453 OA
BRANCH 100 101
ATOM    101  C   UNK A   6       0.444  -4.905  26.714  0.00  0.00    +0.340 C 
ATOM    102  C   UNK A   6       0.984  -6.264  26.022  0.00  0.00    +0.214 C 
ATOM    103  C   UNK A   6       0.647  -7.550  26.833  0.00  0.00    +0.180 C 
ATOM    104  C   UNK A   6       1.004  -7.434  28.300  0.00  0.00    +0.177 C 
ATOM    105  C   UNK A   6       0.528  -6.083  28.851  0.00  0.00    +0.179 C 
ATOM    106  O   UNK A   6       0.982  -4.928  28.070  0.00  0.00    -0.331 OA
BRANCH 104 107
ATOM    107  O   UNK A   6       0.443  -8.550  29.025  0.00  0.00    -0.386 OA
ATOM    108  H   UNK A   6       0.149  -9.254  28.420  0.00  0.00    +0.210 HD
ENDBRANCH 104 107
BRANCH 103 109
ATOM    109  O   UNK A   6       1.326  -8.715  26.306  0.00  0.00    -0.386 OA
ATOM    110  H   UNK A   6       1.268  -8.680  25.325  0.00  0.00    +0.210 HD
ENDBRANCH 103 109
BRANCH 102 111
ATOM    111  O   UNK A   6       0.449  -6.473  24.707  0.00  0.00    -0.383 OA
ATOM    112  H   UNK A   6      -0.517  -6.579  24.830  0.00  0.00    +0.210 HD
ENDBRANCH 102 111
BRANCH 105 113
ATOM    113  C   UNK A   6       1.032  -5.993  30.307  0.00  0.00    +0.190 C 
BRANCH 113 114
ATOM    114  O   UNK A   6       2.287  -6.638  30.482  0.00  0.00    -0.392 OA
ATOM    115  H   UNK A   6       2.527  -6.578  31.420  0.00  0.00    +0.210 HD
ENDBRANCH 113 114
ENDBRANCH 105 113
ENDBRANCH 100 101
ENDBRANCH  29 100
BRANCH   6 116
ATOM    116  CB  ASN A   3       8.710  -4.251  27.159  0.00  0.00    +0.127 C 
BRANCH 116 117
ATOM    117  CG  ASN A   3       9.840  -3.583  26.444  0.00  0.00    +0.213 C 
ATOM    118  OD1 ASN A   3      10.888  -4.176  26.198  0.00  0.00    -0.276 OA
ATOM    119  ND2 ASN A   3       9.774  -2.239  26.324  0.00  0.00    -0.329 N 
ATOM    120 HD21 ASN A   3      10.601  -1.788  25.953  0.00  0.00    +0.145 HD
ATOM    121 HD22 ASN A   3       8.914  -1.716  26.384  0.00  0.00    +0.145 HD
ENDBRANCH 116 117
ENDBRANCH   6 116
TORSDOF 23
ENDMDL
