MODEL 1
REMARK VINA RESULT:      -4.5      0.000      0.000
REMARK  Name = 
REMARK  7 active torsions:
REMARK  status: ('A' for Active; 'I' for Inactive)
REMARK    1  A    between atoms: C_1  and  S_2
REMARK    2  A    between atoms: S_2  and  C_5
REMARK    3  A    between atoms: C_5  and  C_6
REMARK    4  A    between atoms: C_6  and  CA_7
REMARK    5  A    between atoms: CA_7  and  N_9
REMARK    6  A    between atoms: CA_7  and  C_10
REMARK    7  A    between atoms: C_10  and  O_11
REMARK                            x       y       z     vdW  Elec       q    Type
REMARK                         _______ _______ _______ _____ _____    ______ ____
ROOT
ATOM      1  CA  UNL     1       9.477   1.409  23.525  0.00  0.00    +0.162 C 
ENDROOT
BRANCH   1   2
ATOM      2  N   UNL     1       9.799   2.755  24.073  0.00  0.00    -0.318 NA
ATOM      3  H1  UNL     1      10.364   3.251  23.372  0.00  0.00    +0.119 HD
ATOM      4  H2  UNL     1       8.940   3.308  24.121  0.00  0.00    +0.119 HD
ENDBRANCH   1   2
BRANCH   1   5
ATOM      5  C   UNL     1       9.619   1.464  21.994  0.00  0.00    +0.322 C 
ATOM      6  OXT UNL     1       9.053   0.719  21.212  0.00  0.00    -0.249 OA
BRANCH   5   7
ATOM      7  O   UNL     1      10.467   2.454  21.612  0.00  0.00    -0.480 OA
ATOM      8  H   UNL     1      11.013   2.689  22.402  0.00  0.00    +0.295 HD
ENDBRANCH   5   7
ENDBRANCH   1   5
BRANCH   1   9
ATOM      9  C   UNL     1      10.430   0.338  24.068  0.00  0.00    +0.052 C 
BRANCH   9  10
ATOM     10  C   UNL     1       9.711  -0.897  24.600  0.00  0.00    +0.167 C 
BRANCH  10  12
ATOM     11  C   UNL     1       8.184  -2.318  22.746  0.00  0.00    +0.194 C 
ATOM     12  S   UNL     1       9.817  -2.255  23.443  0.00  0.00    -0.034 S 
ATOM     13  O   UNL     1      10.731  -1.873  22.385  0.00  0.00    -0.175 OA
ATOM     14  O   UNL     1      10.014  -3.475  24.202  0.00  0.00    -0.175 OA
ENDBRANCH  10  12
ENDBRANCH   9  10
ENDBRANCH   1   9
TORSDOF 6
ENDMDL
MODEL 2
REMARK VINA RESULT:      -4.4      5.260      6.319
REMARK  Name = 
REMARK  7 active torsions:
REMARK  status: ('A' for Active; 'I' for Inactive)
REMARK    1  A    between atoms: C_1  and  S_2
REMARK    2  A    between atoms: S_2  and  C_5
REMARK    3  A    between atoms: C_5  and  C_6
REMARK    4  A    between atoms: C_6  and  CA_7
REMARK    5  A    between atoms: CA_7  and  N_9
REMARK    6  A    between atoms: CA_7  and  C_10
REMARK    7  A    between atoms: C_10  and  O_11
REMARK                            x       y       z     vdW  Elec       q    Type
REMARK                         _______ _______ _______ _____ _____    ______ ____
ROOT
ATOM      1  CA  UNL     1       8.035  -4.765  25.973  0.00  0.00    +0.162 C 
ENDROOT
BRANCH   1   2
ATOM      2  N   UNL     1       8.015  -5.643  27.176  0.00  0.00    -0.318 NA
ATOM      3  H1  UNL     1       7.033  -5.787  27.442  0.00  0.00    +0.119 HD
ATOM      4  H2  UNL     1       8.330  -6.578  26.910  0.00  0.00    +0.119 HD
ENDBRANCH   1   2
BRANCH   1   5
ATOM      5  C   UNL     1       9.391  -4.944  25.268  0.00  0.00    +0.322 C 
ATOM      6  OXT UNL     1       9.910  -4.120  24.535  0.00  0.00    -0.249 OA
BRANCH   5   7
ATOM      7  O   UNL     1       9.944  -6.150  25.560  0.00  0.00    -0.480 OA
ATOM      8  H   UNL     1      10.905  -5.996  25.726  0.00  0.00    +0.295 HD
ENDBRANCH   5   7
ENDBRANCH   1   5
BRANCH   1   9
ATOM      9  C   UNL     1       6.918  -5.133  24.990  0.00  0.00    +0.052 C 
BRANCH   9  10
ATOM     10  C   UNL     1       6.309  -3.924  24.288  0.00  0.00    +0.167 C 
BRANCH  10  12
ATOM     11  C   UNL     1       7.193  -5.636  22.270  0.00  0.00    +0.194 C 
ATOM     12  S   UNL     1       6.615  -3.976  22.528  0.00  0.00    -0.034 S 
ATOM     13  O   UNL     1       5.342  -3.845  21.848  0.00  0.00    -0.175 OA
ATOM     14  O   UNL     1       7.718  -3.081  22.239  0.00  0.00    -0.175 OA
ENDBRANCH  10  12
ENDBRANCH   9  10
ENDBRANCH   1   9
TORSDOF 6
ENDMDL
MODEL 3
REMARK VINA RESULT:      -4.2      2.018      2.364
REMARK  Name = 
REMARK  7 active torsions:
REMARK  status: ('A' for Active; 'I' for Inactive)
REMARK    1  A    between atoms: C_1  and  S_2
REMARK    2  A    between atoms: S_2  and  C_5
REMARK    3  A    between atoms: C_5  and  C_6
REMARK    4  A    between atoms: C_6  and  CA_7
REMARK    5  A    between atoms: CA_7  and  N_9
REMARK    6  A    between atoms: CA_7  and  C_10
REMARK    7  A    between atoms: C_10  and  O_11
REMARK                            x       y       z     vdW  Elec       q    Type
REMARK                         _______ _______ _______ _____ _____    ______ ____
ROOT
ATOM      1  CA  UNL     1      10.298   1.139  22.783  0.00  0.00    +0.162 C 
ENDROOT
BRANCH   1   2
ATOM      2  N   UNL     1      10.107   2.183  21.738  0.00  0.00    -0.318 NA
ATOM      3  H1  UNL     1       9.862   1.706  20.861  0.00  0.00    +0.119 HD
ATOM      4  H2  UNL     1       9.267   2.723  21.959  0.00  0.00    +0.119 HD
ENDBRANCH   1   2
BRANCH   1   5
ATOM      5  C   UNL     1       9.917   1.745  24.145  0.00  0.00    +0.322 C 
ATOM      6  OXT UNL     1       9.370   2.823  24.302  0.00  0.00    -0.249 OA
BRANCH   5   7
ATOM      7  O   UNL     1      10.274   0.925  25.168  0.00  0.00    -0.480 OA
ATOM      8  H   UNL     1      10.689   1.491  25.863  0.00  0.00    +0.295 HD
ENDBRANCH   5   7
ENDBRANCH   1   5
BRANCH   1   9
ATOM      9  C   UNL     1       9.413  -0.084  22.525  0.00  0.00    +0.052 C 
BRANCH   9  10
ATOM     10  C   UNL     1      10.156  -1.408  22.665  0.00  0.00    +0.167 C 
BRANCH  10  12
ATOM     11  C   UNL     1       7.964  -3.101  23.010  0.00  0.00    +0.194 C 
ATOM     12  S   UNL     1       9.376  -2.463  23.879  0.00  0.00    -0.034 S 
ATOM     13  O   UNL     1      10.266  -3.575  24.144  0.00  0.00    -0.175 OA
ATOM     14  O   UNL     1       8.884  -1.622  24.952  0.00  0.00    -0.175 OA
ENDBRANCH  10  12
ENDBRANCH   9  10
ENDBRANCH   1   9
TORSDOF 6
ENDMDL
MODEL 4
REMARK VINA RESULT:      -4.2      2.640      4.017
REMARK  Name = 
REMARK  7 active torsions:
REMARK  status: ('A' for Active; 'I' for Inactive)
REMARK    1  A    between atoms: C_1  and  S_2
REMARK    2  A    between atoms: S_2  and  C_5
REMARK    3  A    between atoms: C_5  and  C_6
REMARK    4  A    between atoms: C_6  and  CA_7
REMARK    5  A    between atoms: CA_7  and  N_9
REMARK    6  A    between atoms: CA_7  and  C_10
REMARK    7  A    between atoms: C_10  and  O_11
REMARK                            x       y       z     vdW  Elec       q    Type
REMARK                         _______ _______ _______ _____ _____    ______ ____
ROOT
ATOM      1  CA  UNL     1      10.130  -1.788  23.293  0.00  0.00    +0.162 C 
ENDROOT
BRANCH   1   2
ATOM      2  N   UNL     1       9.993  -3.118  23.948  0.00  0.00    -0.318 NA
ATOM      3  H1  UNL     1      10.907  -3.368  24.344  0.00  0.00    +0.119 HD
ATOM      4  H2  UNL     1       9.395  -3.021  24.772  0.00  0.00    +0.119 HD
ENDBRANCH   1   2
BRANCH   1   5
ATOM      5  C   UNL     1       9.150  -1.730  22.108  0.00  0.00    +0.322 C 
ATOM      6  OXT UNL     1       8.054  -2.263  22.082  0.00  0.00    -0.249 OA
BRANCH   5   7
ATOM      7  O   UNL     1       9.663  -1.009  21.077  0.00  0.00    -0.480 OA
ATOM      8  H   UNL     1      10.638  -1.171  21.067  0.00  0.00    +0.295 HD
ENDBRANCH   5   7
ENDBRANCH   1   5
BRANCH   1   9
ATOM      9  C   UNL     1       9.799  -0.647  24.260  0.00  0.00    +0.052 C 
BRANCH   9  10
ATOM     10  C   UNL     1      10.740   0.546  24.133  0.00  0.00    +0.167 C 
BRANCH  10  12
ATOM     11  C   UNL     1       8.231   1.638  23.584  0.00  0.00    +0.194 C 
ATOM     12  S   UNL     1       9.958   1.896  23.261  0.00  0.00    -0.034 S 
ATOM     13  O   UNL     1      10.345   3.133  23.910  0.00  0.00    -0.175 OA
ATOM     14  O   UNL     1      10.171   1.694  21.841  0.00  0.00    -0.175 OA
ENDBRANCH  10  12
ENDBRANCH   9  10
ENDBRANCH   1   9
TORSDOF 6
ENDMDL
MODEL 5
REMARK VINA RESULT:      -4.2      3.761      5.914
REMARK  Name = 
REMARK  7 active torsions:
REMARK  status: ('A' for Active; 'I' for Inactive)
REMARK    1  A    between atoms: C_1  and  S_2
REMARK    2  A    between atoms: S_2  and  C_5
REMARK    3  A    between atoms: C_5  and  C_6
REMARK    4  A    between atoms: C_6  and  CA_7
REMARK    5  A    between atoms: CA_7  and  N_9
REMARK    6  A    between atoms: CA_7  and  C_10
REMARK    7  A    between atoms: C_10  and  O_11
REMARK                            x       y       z     vdW  Elec       q    Type
REMARK                         _______ _______ _______ _____ _____    ______ ____
ROOT
ATOM      1  CA  UNL     1       8.626  -5.164  25.092  0.00  0.00    +0.162 C 
ENDROOT
BRANCH   1   2
ATOM      2  N   UNL     1      10.030  -5.614  25.304  0.00  0.00    -0.318 NA
ATOM      3  H1  UNL     1      10.354  -6.049  24.431  0.00  0.00    +0.119 HD
ATOM      4  H2  UNL     1      10.631  -4.792  25.398  0.00  0.00    +0.119 HD
ENDBRANCH   1   2
BRANCH   1   5
ATOM      5  C   UNL     1       7.999  -4.873  26.467  0.00  0.00    +0.322 C 
ATOM      6  OXT UNL     1       7.532  -3.801  26.808  0.00  0.00    -0.249 OA
BRANCH   5   7
ATOM      7  O   UNL     1       8.037  -5.970  27.268  0.00  0.00    -0.480 OA
ATOM      8  H   UNL     1       7.526  -6.681  26.810  0.00  0.00    +0.295 HD
ENDBRANCH   5   7
ENDBRANCH   1   5
BRANCH   1   9
ATOM      9  C   UNL     1       8.566  -3.888  24.245  0.00  0.00    +0.052 C 
BRANCH   9  10
ATOM     10  C   UNL     1       9.855  -3.074  24.288  0.00  0.00    +0.167 C 
BRANCH  10  12
ATOM     11  C   UNL     1       7.951  -1.471  23.026  0.00  0.00    +0.194 C 
ATOM     12  S   UNL     1       9.695  -1.560  23.351  0.00  0.00    -0.034 S 
ATOM     13  O   UNL     1      10.036  -0.454  24.223  0.00  0.00    -0.175 OA
ATOM     14  O   UNL     1      10.366  -1.749  22.079  0.00  0.00    -0.175 OA
ENDBRANCH  10  12
ENDBRANCH   9  10
ENDBRANCH   1   9
TORSDOF 6
ENDMDL
MODEL 6
REMARK VINA RESULT:      -4.1      2.592      4.439
REMARK  Name = 
REMARK  7 active torsions:
REMARK  status: ('A' for Active; 'I' for Inactive)
REMARK    1  A    between atoms: C_1  and  S_2
REMARK    2  A    between atoms: S_2  and  C_5
REMARK    3  A    between atoms: C_5  and  C_6
REMARK    4  A    between atoms: C_6  and  CA_7
REMARK    5  A    between atoms: CA_7  and  N_9
REMARK    6  A    between atoms: CA_7  and  C_10
REMARK    7  A    between atoms: C_10  and  O_11
REMARK                            x       y       z     vdW  Elec       q    Type
REMARK                         _______ _______ _______ _____ _____    ______ ____
ROOT
ATOM      1  CA  UNL     1       9.201  -1.538  22.554  0.00  0.00    +0.162 C 
ENDROOT
BRANCH   1   2
ATOM      2  N   UNL     1      10.403  -1.558  21.676  0.00  0.00    -0.318 NA
ATOM      3  H1  UNL     1      10.079  -1.635  20.704  0.00  0.00    +0.119 HD
ATOM      4  H2  UNL     1      10.851  -0.640  21.706  0.00  0.00    +0.119 HD
ENDBRANCH   1   2
BRANCH   1   5
ATOM      5  C   UNL     1       9.573  -2.191  23.897  0.00  0.00    +0.322 C 
ATOM      6  OXT UNL     1      10.107  -3.280  24.019  0.00  0.00    -0.249 OA
BRANCH   5   7
ATOM      7  O   UNL     1       9.224  -1.400  24.945  0.00  0.00    -0.480 OA
ATOM      8  H   UNL     1       9.946  -1.472  25.616  0.00  0.00    +0.295 HD
ENDBRANCH   5   7
ENDBRANCH   1   5
BRANCH   1   9
ATOM      9  C   UNL     1       8.723  -0.107  22.821  0.00  0.00    +0.052 C 
BRANCH   9  10
ATOM     10  C   UNL     1       9.733   0.955  22.401  0.00  0.00    +0.167 C 
BRANCH  10  12
ATOM     11  C   UNL     1       8.911   2.287  24.711  0.00  0.00    +0.194 C 
ATOM     12  S   UNL     1      10.378   1.831  23.819  0.00  0.00    -0.034 S 
ATOM     13  O   UNL     1      11.110   0.885  24.636  0.00  0.00    -0.175 OA
ATOM     14  O   UNL     1      10.997   3.054  23.347  0.00  0.00    -0.175 OA
ENDBRANCH  10  12
ENDBRANCH   9  10
ENDBRANCH   1   9
TORSDOF 6
ENDMDL
MODEL 7
REMARK VINA RESULT:      -4.1      3.272      5.499
REMARK  Name = 
REMARK  7 active torsions:
REMARK  status: ('A' for Active; 'I' for Inactive)
REMARK    1  A    between atoms: C_1  and  S_2
REMARK    2  A    between atoms: S_2  and  C_5
REMARK    3  A    between atoms: C_5  and  C_6
REMARK    4  A    between atoms: C_6  and  CA_7
REMARK    5  A    between atoms: CA_7  and  N_9
REMARK    6  A    between atoms: CA_7  and  C_10
REMARK    7  A    between atoms: C_10  and  O_11
REMARK                            x       y       z     vdW  Elec       q    Type
REMARK                         _______ _______ _______ _____ _____    ______ ____
ROOT
ATOM      1  CA  UNL     1       6.545  -3.973  22.812  0.00  0.00    +0.162 C 
ENDROOT
BRANCH   1   2
ATOM      2  N   UNL     1       5.232  -4.128  22.127  0.00  0.00    -0.318 NA
ATOM      3  H1  UNL     1       5.319  -3.719  21.189  0.00  0.00    +0.119 HD
ATOM      4  H2  UNL     1       5.069  -5.120  21.942  0.00  0.00    +0.119 HD
ENDBRANCH   1   2
BRANCH   1   5
ATOM      5  C   UNL     1       7.348  -5.271  22.615  0.00  0.00    +0.322 C 
ATOM      6  OXT UNL     1       7.165  -6.075  21.717  0.00  0.00    -0.249 OA
BRANCH   5   7
ATOM      7  O   UNL     1       8.293  -5.418  23.580  0.00  0.00    -0.480 OA
ATOM      8  H   UNL     1       7.853  -5.242  24.447  0.00  0.00    +0.295 HD
ENDBRANCH   5   7
ENDBRANCH   1   5
BRANCH   1   9
ATOM      9  C   UNL     1       7.349  -2.805  22.230  0.00  0.00    +0.052 C 
BRANCH   9  10
ATOM     10  C   UNL     1       7.920  -1.875  23.295  0.00  0.00    +0.167 C 
BRANCH  10  12
ATOM     11  C   UNL     1      10.154  -0.591  24.367  0.00  0.00    +0.194 C 
ATOM     12  S   UNL     1       9.703  -1.982  23.358  0.00  0.00    -0.034 S 
ATOM     13  O   UNL     1      10.054  -3.184  24.087  0.00  0.00    -0.175 OA
ATOM     14  O   UNL     1      10.214  -1.736  22.024  0.00  0.00    -0.175 OA
ENDBRANCH  10  12
ENDBRANCH   9  10
ENDBRANCH   1   9
TORSDOF 6
ENDMDL
MODEL 8
REMARK VINA RESULT:      -4.0      4.526      5.575
REMARK  Name = 
REMARK  7 active torsions:
REMARK  status: ('A' for Active; 'I' for Inactive)
REMARK    1  A    between atoms: C_1  and  S_2
REMARK    2  A    between atoms: S_2  and  C_5
REMARK    3  A    between atoms: C_5  and  C_6
REMARK    4  A    between atoms: C_6  and  CA_7
REMARK    5  A    between atoms: CA_7  and  N_9
REMARK    6  A    between atoms: CA_7  and  C_10
REMARK    7  A    between atoms: C_10  and  O_11
REMARK                            x       y       z     vdW  Elec       q    Type
REMARK                         _______ _______ _______ _____ _____    ______ ____
ROOT
ATOM      1  CA  UNL     1       8.682  -4.616  25.084  0.00  0.00    +0.162 C 
ENDROOT
BRANCH   1   2
ATOM      2  N   UNL     1       9.721  -5.648  24.817  0.00  0.00    -0.318 NA
ATOM      3  H1  UNL     1      10.623  -5.166  24.719  0.00  0.00    +0.119 HD
ATOM      4  H2  UNL     1       9.845  -6.218  25.657  0.00  0.00    +0.119 HD
ENDBRANCH   1   2
BRANCH   1   5
ATOM      5  C   UNL     1       9.157  -3.284  24.476  0.00  0.00    +0.322 C 
ATOM      6  OXT UNL     1      10.210  -3.124  23.883  0.00  0.00    -0.249 OA
BRANCH   5   7
ATOM      7  O   UNL     1       8.251  -2.294  24.687  0.00  0.00    -0.480 OA
ATOM      8  H   UNL     1       8.310  -1.678  23.917  0.00  0.00    +0.295 HD
ENDBRANCH   5   7
ENDBRANCH   1   5
BRANCH   1   9
ATOM      9  C   UNL     1       7.338  -4.993  24.450  0.00  0.00    +0.052 C 
BRANCH   9  10
ATOM     10  C   UNL     1       7.430  -5.253  22.950  0.00  0.00    +0.167 C 
BRANCH  10  12
ATOM     11  C   UNL     1       4.919  -4.045  23.111  0.00  0.00    +0.194 C 
ATOM     12  S   UNL     1       6.330  -4.179  22.040  0.00  0.00    -0.034 S 
ATOM     13  O   UNL     1       6.945  -2.869  21.961  0.00  0.00    -0.175 OA
ATOM     14  O   UNL     1       5.904  -4.882  20.845  0.00  0.00    -0.175 OA
ENDBRANCH  10  12
ENDBRANCH   9  10
ENDBRANCH   1   9
TORSDOF 6
ENDMDL
MODEL 9
REMARK VINA RESULT:      -4.0      2.418      2.634
REMARK  Name = 
REMARK  7 active torsions:
REMARK  status: ('A' for Active; 'I' for Inactive)
REMARK    1  A    between atoms: C_1  and  S_2
REMARK    2  A    between atoms: S_2  and  C_5
REMARK    3  A    between atoms: C_5  and  C_6
REMARK    4  A    between atoms: C_6  and  CA_7
REMARK    5  A    between atoms: CA_7  and  N_9
REMARK    6  A    between atoms: CA_7  and  C_10
REMARK    7  A    between atoms: C_10  and  O_11
REMARK                            x       y       z     vdW  Elec       q    Type
REMARK                         _______ _______ _______ _____ _____    ______ ____
ROOT
ATOM      1  CA  UNL     1      10.130  -0.293  22.469  0.00  0.00    +0.162 C 
ENDROOT
BRANCH   1   2
ATOM      2  N   UNL     1      10.105  -1.365  21.435  0.00  0.00    -0.318 NA
ATOM      3  H1  UNL     1      10.169  -0.913  20.515  0.00  0.00    +0.119 HD
ATOM      4  H2  UNL     1      10.971  -1.905  21.497  0.00  0.00    +0.119 HD
ENDBRANCH   1   2
BRANCH   1   5
ATOM      5  C   UNL     1       9.111   0.788  22.067  0.00  0.00    +0.322 C 
ATOM      6  OXT UNL     1       7.911   0.728  22.273  0.00  0.00    -0.249 OA
BRANCH   5   7
ATOM      7  O   UNL     1       9.718   1.830  21.440  0.00  0.00    -0.480 OA
ATOM      8  H   UNL     1       9.468   2.650  21.931  0.00  0.00    +0.295 HD
ENDBRANCH   5   7
ENDBRANCH   1   5
BRANCH   1   9
ATOM      9  C   UNL     1       9.750  -0.835  23.851  0.00  0.00    +0.052 C 
BRANCH   9  10
ATOM     10  C   UNL     1       9.711  -2.358  23.912  0.00  0.00    +0.167 C 
BRANCH  10  12
ATOM     11  C   UNL     1       8.215  -4.706  24.109  0.00  0.00    +0.194 C 
ATOM     12  S   UNL     1       8.036  -2.968  23.787  0.00  0.00    -0.034 S 
ATOM     13  O   UNL     1       7.269  -2.398  24.877  0.00  0.00    -0.175 OA
ATOM     14  O   UNL     1       7.608  -2.822  22.410  0.00  0.00    -0.175 OA
ENDBRANCH  10  12
ENDBRANCH   9  10
ENDBRANCH   1   9
TORSDOF 6
ENDMDL
