MODEL 1
REMARK VINA RESULT:      -6.3      0.000      0.000
REMARK  Name = 
REMARK  13 active torsions:
REMARK  status: ('A' for Active; 'I' for Inactive)
REMARK    1  A    between atoms: C_1  and  C_2
REMARK    2  A    between atoms: N_4  and  C_5
REMARK    3  A    between atoms: C_7  and  O_9
REMARK    4  A    between atoms: C_11  and  C_13
REMARK    5  A    between atoms: C_13  and  O_14
REMARK    6  A    between atoms: C_15  and  O_17
REMARK    7  A    between atoms: O_17  and  C_18
REMARK    8  A    between atoms: C_21  and  C_23
REMARK    9  A    between atoms: C_23  and  O_24
REMARK   10  A    between atoms: C_25  and  O_27
REMARK   11  A    between atoms: C_28  and  O_30
REMARK   12  A    between atoms: C_31  and  O_33
REMARK   13  A    between atoms: C_34  and  O_36
REMARK                            x       y       z     vdW  Elec       q    Type
REMARK                         _______ _______ _______ _____ _____    ______ ____
ROOT
ATOM      1  C   UNL     1       7.661   1.842  25.061  0.00  0.00    +0.160 C 
ATOM      2  C   UNL     1       7.477   0.584  24.199  0.00  0.00    +0.171 C 
ATOM      3  C   UNL     1       8.812  -0.159  24.003  0.00  0.00    +0.183 C 
ATOM      4  C   UNL     1       9.851   0.808  23.378  0.00  0.00    +0.178 C 
ATOM      5  O   UNL     1      10.011   1.956  24.235  0.00  0.00    -0.341 OA
ATOM      6  C   UNL     1       8.820   2.705  24.502  0.00  0.00    +0.270 C 
ENDROOT
BRANCH   1   9
ATOM      7  C   UNL     1       7.133   1.106  28.759  0.00  0.00    +0.109 C 
ATOM      8  C   UNL     1       6.762   1.491  27.357  0.00  0.00    +0.210 C 
ATOM      9  N   UNL     1       7.834   1.521  26.487  0.00  0.00    -0.305 N 
ATOM     10  H   UNL     1       8.727   1.134  26.784  0.00  0.00    +0.149 HD
ATOM     11  O   UNL     1       5.602   1.739  27.030  0.00  0.00    -0.276 OA
ENDBRANCH   1   9
BRANCH   2  12
ATOM     12  O   UNL     1       6.908   0.922  22.926  0.00  0.00    -0.387 OA
ATOM     13  H   UNL     1       7.597   1.452  22.471  0.00  0.00    +0.210 HD
ENDBRANCH   2  12
BRANCH   6  14
ATOM     14  O   UNL     1       8.423   3.473  23.376  0.00  0.00    -0.365 OA
ATOM     15  H   UNL     1       7.447   3.519  23.387  0.00  0.00    +0.213 HD
ENDBRANCH   6  14
BRANCH   3  16
ATOM     16  O   UNL     1       8.682  -1.391  23.271  0.00  0.00    -0.340 OA
BRANCH  16  17
ATOM     17  C   UNL     1       7.781  -2.383  23.813  0.00  0.00    +0.282 C 
ATOM     18  C   UNL     1       6.754  -2.900  22.762  0.00  0.00    +0.201 C 
ATOM     19  C   UNL     1       5.974  -4.114  23.295  0.00  0.00    +0.179 C 
ATOM     20  C   UNL     1       6.941  -5.154  23.879  0.00  0.00    +0.177 C 
ATOM     21  C   UNL     1       7.753  -4.482  24.996  0.00  0.00    +0.178 C 
ATOM     22  O   UNL     1       8.524  -3.386  24.491  0.00  0.00    -0.341 OA
BRANCH  18  23
ATOM     23  O   UNL     1       5.824  -1.858  22.405  0.00  0.00    -0.384 OA
ATOM     24  H   UNL     1       4.918  -2.184  22.553  0.00  0.00    +0.210 HD
ENDBRANCH  18  23
BRANCH  19  25
ATOM     25  O   UNL     1       5.175  -4.688  22.246  0.00  0.00    -0.386 OA
ATOM     26  H   UNL     1       4.603  -5.371  22.633  0.00  0.00    +0.210 HD
ENDBRANCH  19  25
BRANCH  20  27
ATOM     27  O   UNL     1       7.752  -5.646  22.804  0.00  0.00    -0.386 OA
ATOM     28  H   UNL     1       7.196  -5.888  22.038  0.00  0.00    +0.210 HD
ENDBRANCH  20  27
BRANCH  21  29
ATOM     29  C   UNL     1       8.729  -5.463  25.656  0.00  0.00    +0.190 C 
BRANCH  29  30
ATOM     30  O   UNL     1       9.922  -5.556  24.880  0.00  0.00    -0.392 OA
ATOM     31  H   UNL     1      10.300  -6.434  25.080  0.00  0.00    +0.210 HD
ENDBRANCH  29  30
ENDBRANCH  21  29
ENDBRANCH  16  17
ENDBRANCH   3  16
BRANCH   4  32
ATOM     32  C   UNL     1       9.699   1.223  21.898  0.00  0.00    +0.190 C 
BRANCH  32  33
ATOM     33  O   UNL     1      10.426   2.407  21.595  0.00  0.00    -0.392 OA
ATOM     34  H   UNL     1      10.214   3.055  22.290  0.00  0.00    +0.210 HD
ENDBRANCH  32  33
ENDBRANCH   4  32
TORSDOF 12
ENDMDL
MODEL 2
REMARK VINA RESULT:      -6.3      3.692      7.802
REMARK  Name = 
REMARK  13 active torsions:
REMARK  status: ('A' for Active; 'I' for Inactive)
REMARK    1  A    between atoms: C_1  and  C_2
REMARK    2  A    between atoms: N_4  and  C_5
REMARK    3  A    between atoms: C_7  and  O_9
REMARK    4  A    between atoms: C_11  and  C_13
REMARK    5  A    between atoms: C_13  and  O_14
REMARK    6  A    between atoms: C_15  and  O_17
REMARK    7  A    between atoms: O_17  and  C_18
REMARK    8  A    between atoms: C_21  and  C_23
REMARK    9  A    between atoms: C_23  and  O_24
REMARK   10  A    between atoms: C_25  and  O_27
REMARK   11  A    between atoms: C_28  and  O_30
REMARK   12  A    between atoms: C_31  and  O_33
REMARK   13  A    between atoms: C_34  and  O_36
REMARK                            x       y       z     vdW  Elec       q    Type
REMARK                         _______ _______ _______ _____ _____    ______ ____
ROOT
ATOM      1  C   UNL     1       3.777  -5.946  23.481  0.00  0.00    +0.160 C 
ATOM      2  C   UNL     1       4.128  -4.932  24.581  0.00  0.00    +0.171 C 
ATOM      3  C   UNL     1       4.937  -5.593  25.713  0.00  0.00    +0.183 C 
ATOM      4  C   UNL     1       4.135  -6.792  26.284  0.00  0.00    +0.178 C 
ATOM      5  O   UNL     1       3.856  -7.729  25.224  0.00  0.00    -0.341 OA
ATOM      6  C   UNL     1       3.127  -7.206  24.108  0.00  0.00    +0.270 C 
ENDROOT
BRANCH   1   9
ATOM      7  C   UNL     1       6.770  -5.819  21.133  0.00  0.00    +0.109 C 
ATOM      8  C   UNL     1       5.594  -5.300  21.906  0.00  0.00    +0.210 C 
ATOM      9  N   UNL     1       4.934  -6.271  22.633  0.00  0.00    -0.305 N 
ATOM     10  H   UNL     1       5.360  -7.190  22.737  0.00  0.00    +0.149 HD
ATOM     11  O   UNL     1       5.272  -4.113  21.891  0.00  0.00    -0.276 OA
ENDBRANCH   1   9
BRANCH   2  12
ATOM     12  O   UNL     1       2.938  -4.328  25.111  0.00  0.00    -0.387 OA
ATOM     13  H   UNL     1       3.228  -3.456  25.454  0.00  0.00    +0.210 HD
ENDBRANCH   2  12
BRANCH   6  14
ATOM     14  O   UNL     1       1.758  -7.002  24.427  0.00  0.00    -0.365 OA
ATOM     15  H   UNL     1       1.460  -6.214  23.931  0.00  0.00    +0.213 HD
ENDBRANCH   6  14
BRANCH   3  16
ATOM     16  O   UNL     1       5.363  -4.669  26.730  0.00  0.00    -0.340 OA
BRANCH  16  17
ATOM     17  C   UNL     1       6.707  -4.148  26.619  0.00  0.00    +0.282 C 
ATOM     18  C   UNL     1       7.777  -5.272  26.475  0.00  0.00    +0.201 C 
ATOM     19  C   UNL     1       9.156  -4.687  26.122  0.00  0.00    +0.179 C 
ATOM     20  C   UNL     1       9.032  -3.702  24.950  0.00  0.00    +0.177 C 
ATOM     21  C   UNL     1       8.047  -2.595  25.354  0.00  0.00    +0.178 C 
ATOM     22  O   UNL     1       6.747  -3.131  25.629  0.00  0.00    -0.341 OA
BRANCH  18  23
ATOM     23  O   UNL     1       7.882  -6.032  27.695  0.00  0.00    -0.384 OA
ATOM     24  H   UNL     1       7.541  -5.492  28.430  0.00  0.00    +0.210 HD
ENDBRANCH  18  23
BRANCH  19  25
ATOM     25  O   UNL     1      10.075  -5.747  25.808  0.00  0.00    -0.386 OA
ATOM     26  H   UNL     1      10.300  -5.689  24.865  0.00  0.00    +0.210 HD
ENDBRANCH  19  25
BRANCH  20  27
ATOM     27  O   UNL     1       8.612  -4.446  23.799  0.00  0.00    -0.386 OA
ATOM     28  H   UNL     1       7.852  -5.020  24.019  0.00  0.00    +0.210 HD
ENDBRANCH  20  27
BRANCH  21  29
ATOM     29  C   UNL     1       7.886  -1.548  24.246  0.00  0.00    +0.190 C 
BRANCH  29  30
ATOM     30  O   UNL     1       7.038  -2.057  23.218  0.00  0.00    -0.392 OA
ATOM     31  H   UNL     1       7.567  -2.731  22.748  0.00  0.00    +0.210 HD
ENDBRANCH  29  30
ENDBRANCH  21  29
ENDBRANCH  16  17
ENDBRANCH   3  16
BRANCH   4  32
ATOM     32  C   UNL     1       2.882  -6.519  27.144  0.00  0.00    +0.190 C 
BRANCH  32  33
ATOM     33  O   UNL     1       3.009  -5.331  27.916  0.00  0.00    -0.392 OA
ATOM     34  H   UNL     1       3.165  -5.607  28.836  0.00  0.00    +0.210 HD
ENDBRANCH  32  33
ENDBRANCH   4  32
TORSDOF 12
ENDMDL
MODEL 3
REMARK VINA RESULT:      -6.2      3.088      5.449
REMARK  Name = 
REMARK  13 active torsions:
REMARK  status: ('A' for Active; 'I' for Inactive)
REMARK    1  A    between atoms: C_1  and  C_2
REMARK    2  A    between atoms: N_4  and  C_5
REMARK    3  A    between atoms: C_7  and  O_9
REMARK    4  A    between atoms: C_11  and  C_13
REMARK    5  A    between atoms: C_13  and  O_14
REMARK    6  A    between atoms: C_15  and  O_17
REMARK    7  A    between atoms: O_17  and  C_18
REMARK    8  A    between atoms: C_21  and  C_23
REMARK    9  A    between atoms: C_23  and  O_24
REMARK   10  A    between atoms: C_25  and  O_27
REMARK   11  A    between atoms: C_28  and  O_30
REMARK   12  A    between atoms: C_31  and  O_33
REMARK   13  A    between atoms: C_34  and  O_36
REMARK                            x       y       z     vdW  Elec       q    Type
REMARK                         _______ _______ _______ _____ _____    ______ ____
ROOT
ATOM      1  C   UNL     1       9.729   5.610  23.883  0.00  0.00    +0.160 C 
ATOM      2  C   UNL     1       9.138   4.252  24.294  0.00  0.00    +0.171 C 
ATOM      3  C   UNL     1       8.338   3.618  23.141  0.00  0.00    +0.183 C 
ATOM      4  C   UNL     1       7.229   4.602  22.683  0.00  0.00    +0.178 C 
ATOM      5  O   UNL     1       7.834   5.848  22.279  0.00  0.00    -0.341 OA
ATOM      6  C   UNL     1       8.622   6.509  23.275  0.00  0.00    +0.270 C 
ENDROOT
BRANCH   1   9
ATOM      7  C   UNL     1      13.230   5.445  22.397  0.00  0.00    +0.109 C 
ATOM      8  C   UNL     1      12.179   5.678  23.442  0.00  0.00    +0.210 C 
ATOM      9  N   UNL     1      10.891   5.465  22.992  0.00  0.00    -0.305 N 
ATOM     10  H   UNL     1      10.747   5.020  22.087  0.00  0.00    +0.149 HD
ATOM     11  O   UNL     1      12.459   6.014  24.592  0.00  0.00    -0.276 OA
ENDBRANCH   1   9
BRANCH   2  12
ATOM     12  O   UNL     1       8.305   4.394  25.455  0.00  0.00    -0.387 OA
ATOM     13  H   UNL     1       7.537   4.926  25.153  0.00  0.00    +0.210 HD
ENDBRANCH   2  12
BRANCH   6  14
ATOM     14  O   UNL     1       7.809   7.108  24.273  0.00  0.00    -0.365 OA
ATOM     15  H   UNL     1       7.151   7.665  23.813  0.00  0.00    +0.213 HD
ENDBRANCH   6  14
BRANCH   3  16
ATOM     16  O   UNL     1       7.832   2.307  23.446  0.00  0.00    -0.340 OA
BRANCH  16  17
ATOM     17  C   UNL     1       8.752   1.375  24.059  0.00  0.00    +0.282 C 
ATOM     18  C   UNL     1       8.153   0.678  25.317  0.00  0.00    +0.201 C 
ATOM     19  C   UNL     1       9.055  -0.470  25.801  0.00  0.00    +0.179 C 
ATOM     20  C   UNL     1       9.433  -1.382  24.625  0.00  0.00    +0.177 C 
ATOM     21  C   UNL     1      10.143  -0.530  23.563  0.00  0.00    +0.178 C 
ATOM     22  O   UNL     1       9.285   0.506  23.070  0.00  0.00    -0.341 OA
BRANCH  18  23
ATOM     23  O   UNL     1       7.976   1.627  26.388  0.00  0.00    -0.384 OA
ATOM     24  H   UNL     1       8.549   2.396  26.220  0.00  0.00    +0.210 HD
ENDBRANCH  18  23
BRANCH  19  25
ATOM     25  O   UNL     1       8.393  -1.215  26.837  0.00  0.00    -0.386 OA
ATOM     26  H   UNL     1       8.019  -0.587  27.477  0.00  0.00    +0.210 HD
ENDBRANCH  19  25
BRANCH  20  27
ATOM     27  O   UNL     1       8.230  -1.999  24.148  0.00  0.00    -0.386 OA
ATOM     28  H   UNL     1       7.462  -1.414  24.296  0.00  0.00    +0.210 HD
ENDBRANCH  20  27
BRANCH  21  29
ATOM     29  C   UNL     1      10.582  -1.372  22.360  0.00  0.00    +0.190 C 
BRANCH  29  30
ATOM     30  O   UNL     1       9.635  -1.237  21.302  0.00  0.00    -0.392 OA
ATOM     31  H   UNL     1       9.064  -2.029  21.356  0.00  0.00    +0.210 HD
ENDBRANCH  29  30
ENDBRANCH  21  29
ENDBRANCH  16  17
ENDBRANCH   3  16
BRANCH   4  32
ATOM     32  C   UNL     1       6.006   4.835  23.595  0.00  0.00    +0.190 C 
BRANCH  32  33
ATOM     33  O   UNL     1       5.665   3.674  24.343  0.00  0.00    -0.392 OA
ATOM     34  H   UNL     1       6.007   3.807  25.244  0.00  0.00    +0.210 HD
ENDBRANCH  32  33
ENDBRANCH   4  32
TORSDOF 12
ENDMDL
MODEL 4
REMARK VINA RESULT:      -6.2      2.023      2.749
REMARK  Name = 
REMARK  13 active torsions:
REMARK  status: ('A' for Active; 'I' for Inactive)
REMARK    1  A    between atoms: C_1  and  C_2
REMARK    2  A    between atoms: N_4  and  C_5
REMARK    3  A    between atoms: C_7  and  O_9
REMARK    4  A    between atoms: C_11  and  C_13
REMARK    5  A    between atoms: C_13  and  O_14
REMARK    6  A    between atoms: C_15  and  O_17
REMARK    7  A    between atoms: O_17  and  C_18
REMARK    8  A    between atoms: C_21  and  C_23
REMARK    9  A    between atoms: C_23  and  O_24
REMARK   10  A    between atoms: C_25  and  O_27
REMARK   11  A    between atoms: C_28  and  O_30
REMARK   12  A    between atoms: C_31  and  O_33
REMARK   13  A    between atoms: C_34  and  O_36
REMARK                            x       y       z     vdW  Elec       q    Type
REMARK                         _______ _______ _______ _____ _____    ______ ____
ROOT
ATOM      1  C   UNL     1       8.278   2.526  22.592  0.00  0.00    +0.160 C 
ATOM      2  C   UNL     1       8.386   1.112  22.002  0.00  0.00    +0.171 C 
ATOM      3  C   UNL     1       8.141   0.037  23.078  0.00  0.00    +0.183 C 
ATOM      4  C   UNL     1       9.141   0.242  24.246  0.00  0.00    +0.178 C 
ATOM      5  O   UNL     1       8.982   1.570  24.785  0.00  0.00    -0.341 OA
ATOM      6  C   UNL     1       9.166   2.645  23.857  0.00  0.00    +0.270 C 
ENDROOT
BRANCH   1   9
ATOM      7  C   UNL     1       4.960   4.380  22.817  0.00  0.00    +0.109 C 
ATOM      8  C   UNL     1       6.417   4.181  22.521  0.00  0.00    +0.210 C 
ATOM      9  N   UNL     1       6.883   2.921  22.843  0.00  0.00    -0.305 N 
ATOM     10  H   UNL     1       6.215   2.189  23.081  0.00  0.00    +0.149 HD
ATOM     11  O   UNL     1       7.114   5.065  22.026  0.00  0.00    -0.276 OA
ENDBRANCH   1   9
BRANCH   2  12
ATOM     12  O   UNL     1       9.670   0.915  21.392  0.00  0.00    -0.387 OA
ATOM     13  H   UNL     1      10.317   1.000  22.125  0.00  0.00    +0.210 HD
ENDBRANCH   2  12
BRANCH   6  14
ATOM     14  O   UNL     1      10.537   2.829  23.535  0.00  0.00    -0.365 OA
ATOM     15  H   UNL     1      11.033   2.834  24.377  0.00  0.00    +0.213 HD
ENDBRANCH   6  14
BRANCH   3  16
ATOM     16  O   UNL     1       8.149  -1.305  22.562  0.00  0.00    -0.340 OA
BRANCH  16  17
ATOM     17  C   UNL     1       7.525  -2.324  23.378  0.00  0.00    +0.282 C 
ATOM     18  C   UNL     1       6.594  -3.265  22.556  0.00  0.00    +0.201 C 
ATOM     19  C   UNL     1       6.139  -4.471  23.395  0.00  0.00    +0.179 C 
ATOM     20  C   UNL     1       7.346  -5.127  24.082  0.00  0.00    +0.177 C 
ATOM     21  C   UNL     1       8.035  -4.071  24.958  0.00  0.00    +0.178 C 
ATOM     22  O   UNL     1       8.510  -2.973  24.170  0.00  0.00    -0.341 OA
BRANCH  18  23
ATOM     23  O   UNL     1       5.435  -2.548  22.087  0.00  0.00    -0.384 OA
ATOM     24  H   UNL     1       4.856  -2.361  22.846  0.00  0.00    +0.210 HD
ENDBRANCH  18  23
BRANCH  19  25
ATOM     25  O   UNL     1       5.443  -5.416  22.565  0.00  0.00    -0.386 OA
ATOM     26  H   UNL     1       6.069  -6.109  22.297  0.00  0.00    +0.210 HD
ENDBRANCH  19  25
BRANCH  20  27
ATOM     27  O   UNL     1       8.195  -5.658  23.056  0.00  0.00    -0.386 OA
ATOM     28  H   UNL     1       7.678  -6.201  22.429  0.00  0.00    +0.210 HD
ENDBRANCH  20  27
BRANCH  21  29
ATOM     29  C   UNL     1       9.240  -4.653  25.706  0.00  0.00    +0.190 C 
BRANCH  29  30
ATOM     30  O   UNL     1      10.280  -4.965  24.781  0.00  0.00    -0.392 OA
ATOM     31  H   UNL     1      10.147  -5.902  24.540  0.00  0.00    +0.210 HD
ENDBRANCH  29  30
ENDBRANCH  21  29
ENDBRANCH  16  17
ENDBRANCH   3  16
BRANCH   4  32
ATOM     32  C   UNL     1      10.630  -0.108  24.032  0.00  0.00    +0.190 C 
BRANCH  32  33
ATOM     33  O   UNL     1      10.803  -1.177  23.111  0.00  0.00    -0.392 OA
ATOM     34  H   UNL     1      11.473  -1.772  23.490  0.00  0.00    +0.210 HD
ENDBRANCH  32  33
ENDBRANCH   4  32
TORSDOF 12
ENDMDL
MODEL 5
REMARK VINA RESULT:      -6.1      1.425      1.663
REMARK  Name = 
REMARK  13 active torsions:
REMARK  status: ('A' for Active; 'I' for Inactive)
REMARK    1  A    between atoms: C_1  and  C_2
REMARK    2  A    between atoms: N_4  and  C_5
REMARK    3  A    between atoms: C_7  and  O_9
REMARK    4  A    between atoms: C_11  and  C_13
REMARK    5  A    between atoms: C_13  and  O_14
REMARK    6  A    between atoms: C_15  and  O_17
REMARK    7  A    between atoms: O_17  and  C_18
REMARK    8  A    between atoms: C_21  and  C_23
REMARK    9  A    between atoms: C_23  and  O_24
REMARK   10  A    between atoms: C_25  and  O_27
REMARK   11  A    between atoms: C_28  and  O_30
REMARK   12  A    between atoms: C_31  and  O_33
REMARK   13  A    between atoms: C_34  and  O_36
REMARK                            x       y       z     vdW  Elec       q    Type
REMARK                         _______ _______ _______ _____ _____    ______ ____
ROOT
ATOM      1  C   UNL     1       8.489   1.859  24.618  0.00  0.00    +0.160 C 
ATOM      2  C   UNL     1       7.695   0.994  23.627  0.00  0.00    +0.171 C 
ATOM      3  C   UNL     1       8.073  -0.494  23.757  0.00  0.00    +0.183 C 
ATOM      4  C   UNL     1       9.602  -0.655  23.551  0.00  0.00    +0.178 C 
ATOM      5  O   UNL     1      10.302   0.150  24.520  0.00  0.00    -0.341 OA
ATOM      6  C   UNL     1      10.003   1.550  24.499  0.00  0.00    +0.270 C 
ENDROOT
BRANCH   1   9
ATOM      7  C   UNL     1       6.815   2.396  27.995  0.00  0.00    +0.109 C 
ATOM      8  C   UNL     1       7.266   2.732  26.604  0.00  0.00    +0.210 C 
ATOM      9  N   UNL     1       7.992   1.727  25.996  0.00  0.00    -0.305 N 
ATOM     10  H   UNL     1       8.027   0.806  26.430  0.00  0.00    +0.149 HD
ATOM     11  O   UNL     1       6.992   3.804  26.066  0.00  0.00    -0.276 OA
ENDBRANCH   1   9
BRANCH   2  12
ATOM     12  O   UNL     1       7.909   1.442  22.280  0.00  0.00    -0.387 OA
ATOM     13  H   UNL     1       8.871   1.331  22.124  0.00  0.00    +0.210 HD
ENDBRANCH   2  12
BRANCH   6  14
ATOM     14  O   UNL     1      10.597   2.195  23.382  0.00  0.00    -0.365 OA
ATOM     15  H   UNL     1       9.904   2.285  22.698  0.00  0.00    +0.213 HD
ENDBRANCH   6  14
BRANCH   3  16
ATOM     16  O   UNL     1       7.299  -1.360  22.909  0.00  0.00    -0.340 OA
BRANCH  16  17
ATOM     17  C   UNL     1       6.770  -2.564  23.510  0.00  0.00    +0.282 C 
ATOM     18  C   UNL     1       6.605  -3.725  22.485  0.00  0.00    +0.201 C 
ATOM     19  C   UNL     1       6.273  -5.050  23.192  0.00  0.00    +0.179 C 
ATOM     20  C   UNL     1       7.247  -5.293  24.354  0.00  0.00    +0.177 C 
ATOM     21  C   UNL     1       7.145  -4.107  25.323  0.00  0.00    +0.178 C 
ATOM     22  O   UNL     1       7.509  -2.879  24.682  0.00  0.00    -0.341 OA
BRANCH  18  23
ATOM     23  O   UNL     1       5.565  -3.420  21.535  0.00  0.00    -0.384 OA
ATOM     24  H   UNL     1       5.817  -3.784  20.668  0.00  0.00    +0.210 HD
ENDBRANCH  18  23
BRANCH  19  25
ATOM     25  O   UNL     1       6.314  -6.136  22.250  0.00  0.00    -0.386 OA
ATOM     26  H   UNL     1       7.229  -6.241  21.942  0.00  0.00    +0.210 HD
ENDBRANCH  19  25
BRANCH  20  27
ATOM     27  O   UNL     1       8.556  -5.461  23.795  0.00  0.00    -0.386 OA
ATOM     28  H   UNL     1       8.871  -6.377  23.925  0.00  0.00    +0.210 HD
ENDBRANCH  20  27
BRANCH  21  29
ATOM     29  C   UNL     1       8.070  -4.283  26.533  0.00  0.00    +0.190 C 
BRANCH  29  30
ATOM     30  O   UNL     1       8.267  -5.671  26.794  0.00  0.00    -0.392 OA
ATOM     31  H   UNL     1       8.498  -5.732  27.742  0.00  0.00    +0.210 HD
ENDBRANCH  29  30
ENDBRANCH  21  29
ENDBRANCH  16  17
ENDBRANCH   3  16
BRANCH   4  32
ATOM     32  C   UNL     1      10.193  -0.481  22.135  0.00  0.00    +0.190 C 
BRANCH  32  33
ATOM     33  O   UNL     1       9.375  -1.076  21.135  0.00  0.00    -0.392 OA
ATOM     34  H   UNL     1       9.249  -2.006  21.389  0.00  0.00    +0.210 HD
ENDBRANCH  32  33
ENDBRANCH   4  32
TORSDOF 12
ENDMDL
MODEL 6
REMARK VINA RESULT:      -6.1      2.339      5.982
REMARK  Name = 
REMARK  13 active torsions:
REMARK  status: ('A' for Active; 'I' for Inactive)
REMARK    1  A    between atoms: C_1  and  C_2
REMARK    2  A    between atoms: N_4  and  C_5
REMARK    3  A    between atoms: C_7  and  O_9
REMARK    4  A    between atoms: C_11  and  C_13
REMARK    5  A    between atoms: C_13  and  O_14
REMARK    6  A    between atoms: C_15  and  O_17
REMARK    7  A    between atoms: O_17  and  C_18
REMARK    8  A    between atoms: C_21  and  C_23
REMARK    9  A    between atoms: C_23  and  O_24
REMARK   10  A    between atoms: C_25  and  O_27
REMARK   11  A    between atoms: C_28  and  O_30
REMARK   12  A    between atoms: C_31  and  O_33
REMARK   13  A    between atoms: C_34  and  O_36
REMARK                            x       y       z     vdW  Elec       q    Type
REMARK                         _______ _______ _______ _____ _____    ______ ____
ROOT
ATOM      1  C   UNL     1       9.752  -1.645  24.064  0.00  0.00    +0.160 C 
ATOM      2  C   UNL     1      10.039  -0.167  24.371  0.00  0.00    +0.171 C 
ATOM      3  C   UNL     1       8.829   0.721  24.027  0.00  0.00    +0.183 C 
ATOM      4  C   UNL     1       8.450   0.516  22.536  0.00  0.00    +0.178 C 
ATOM      5  O   UNL     1       8.161  -0.877  22.304  0.00  0.00    -0.341 OA
ATOM      6  C   UNL     1       9.217  -1.792  22.617  0.00  0.00    +0.270 C 
ENDROOT
BRANCH   1   9
ATOM      7  C   UNL     1       7.961  -4.038  26.422  0.00  0.00    +0.109 C 
ATOM      8  C   UNL     1       8.922  -3.608  25.353  0.00  0.00    +0.210 C 
ATOM      9  N   UNL     1       8.861  -2.259  25.061  0.00  0.00    -0.305 N 
ATOM     10  H   UNL     1       8.329  -1.641  25.671  0.00  0.00    +0.149 HD
ATOM     11  O   UNL     1       9.694  -4.395  24.808  0.00  0.00    -0.276 OA
ENDBRANCH   1   9
BRANCH   2  12
ATOM     12  O   UNL     1      11.201   0.282  23.657  0.00  0.00    -0.387 OA
ATOM     13  H   UNL     1      11.958  -0.161  24.099  0.00  0.00    +0.210 HD
ENDBRANCH   2  12
BRANCH   6  14
ATOM     14  O   UNL     1      10.256  -1.741  21.651  0.00  0.00    -0.365 OA
ATOM     15  H   UNL     1       9.849  -1.478  20.803  0.00  0.00    +0.213 HD
ENDBRANCH   6  14
BRANCH   3  16
ATOM     16  O   UNL     1       9.015   2.105  24.373  0.00  0.00    -0.340 OA
BRANCH  16  17
ATOM     17  C   UNL     1       7.820   2.898  24.564  0.00  0.00    +0.282 C 
ATOM     18  C   UNL     1       7.405   3.678  23.281  0.00  0.00    +0.201 C 
ATOM     19  C   UNL     1       6.014   4.315  23.442  0.00  0.00    +0.179 C 
ATOM     20  C   UNL     1       5.012   3.278  23.970  0.00  0.00    +0.177 C 
ATOM     21  C   UNL     1       5.534   2.742  25.311  0.00  0.00    +0.178 C 
ATOM     22  O   UNL     1       6.804   2.099  25.153  0.00  0.00    -0.341 OA
BRANCH  18  23
ATOM     23  O   UNL     1       8.367   4.709  22.980  0.00  0.00    -0.384 OA
ATOM     24  H   UNL     1       7.918   5.572  23.009  0.00  0.00    +0.210 HD
ENDBRANCH  18  23
BRANCH  19  25
ATOM     25  O   UNL     1       5.574   4.863  22.188  0.00  0.00    -0.386 OA
ATOM     26  H   UNL     1       5.701   5.826  22.211  0.00  0.00    +0.210 HD
ENDBRANCH  19  25
BRANCH  20  27
ATOM     27  O   UNL     1       4.868   2.263  22.968  0.00  0.00    -0.386 OA
ATOM     28  H   UNL     1       4.713   1.392  23.381  0.00  0.00    +0.210 HD
ENDBRANCH  20  27
BRANCH  21  29
ATOM     29  C   UNL     1       4.574   1.717  25.924  0.00  0.00    +0.190 C 
BRANCH  29  30
ATOM     30  O   UNL     1       4.832   0.424  25.379  0.00  0.00    -0.392 OA
ATOM     31  H   UNL     1       4.914   0.555  24.414  0.00  0.00    +0.210 HD
ENDBRANCH  29  30
ENDBRANCH  21  29
ENDBRANCH  16  17
ENDBRANCH   3  16
BRANCH   4  32
ATOM     32  C   UNL     1       9.369   1.095  21.439  0.00  0.00    +0.190 C 
BRANCH  32  33
ATOM     33  O   UNL     1       9.997   2.305  21.848  0.00  0.00    -0.392 OA
ATOM     34  H   UNL     1      10.809   2.055  22.321  0.00  0.00    +0.210 HD
ENDBRANCH  32  33
ENDBRANCH   4  32
TORSDOF 12
ENDMDL
MODEL 7
REMARK VINA RESULT:      -5.9      1.880      3.152
REMARK  Name = 
REMARK  13 active torsions:
REMARK  status: ('A' for Active; 'I' for Inactive)
REMARK    1  A    between atoms: C_1  and  C_2
REMARK    2  A    between atoms: N_4  and  C_5
REMARK    3  A    between atoms: C_7  and  O_9
REMARK    4  A    between atoms: C_11  and  C_13
REMARK    5  A    between atoms: C_13  and  O_14
REMARK    6  A    between atoms: C_15  and  O_17
REMARK    7  A    between atoms: O_17  and  C_18
REMARK    8  A    between atoms: C_21  and  C_23
REMARK    9  A    between atoms: C_23  and  O_24
REMARK   10  A    between atoms: C_25  and  O_27
REMARK   11  A    between atoms: C_28  and  O_30
REMARK   12  A    between atoms: C_31  and  O_33
REMARK   13  A    between atoms: C_34  and  O_36
REMARK                            x       y       z     vdW  Elec       q    Type
REMARK                         _______ _______ _______ _____ _____    ______ ____
ROOT
ATOM      1  C   UNL     1       7.655   0.700  24.628  0.00  0.00    +0.160 C 
ATOM      2  C   UNL     1       7.503  -0.537  23.729  0.00  0.00    +0.171 C 
ATOM      3  C   UNL     1       8.547  -1.614  24.078  0.00  0.00    +0.183 C 
ATOM      4  C   UNL     1       9.970  -1.005  23.967  0.00  0.00    +0.178 C 
ATOM      5  O   UNL     1      10.073   0.131  24.849  0.00  0.00    -0.341 OA
ATOM      6  C   UNL     1       9.128   1.183  24.623  0.00  0.00    +0.270 C 
ENDROOT
BRANCH   1   9
ATOM      7  C   UNL     1       5.470   0.039  27.675  0.00  0.00    +0.109 C 
ATOM      8  C   UNL     1       5.793   0.304  26.234  0.00  0.00    +0.210 C 
ATOM      9  N   UNL     1       7.142   0.467  25.988  0.00  0.00    -0.305 N 
ATOM     10  H   UNL     1       7.813   0.238  26.719  0.00  0.00    +0.149 HD
ATOM     11  O   UNL     1       4.924   0.353  25.365  0.00  0.00    -0.276 OA
ENDBRANCH   1   9
BRANCH   2  12
ATOM     12  O   UNL     1       7.613  -0.173  22.345  0.00  0.00    -0.387 OA
ATOM     13  H   UNL     1       8.517   0.196  22.250  0.00  0.00    +0.210 HD
ENDBRANCH   2  12
BRANCH   6  14
ATOM     14  O   UNL     1       9.444   1.929  23.457  0.00  0.00    -0.365 OA
ATOM     15  H   UNL     1       8.797   2.658  23.396  0.00  0.00    +0.213 HD
ENDBRANCH   6  14
BRANCH   3  16
ATOM     16  O   UNL     1       8.397  -2.827  23.321  0.00  0.00    -0.340 OA
BRANCH  16  17
ATOM     17  C   UNL     1       7.693  -3.916  23.962  0.00  0.00    +0.282 C 
ATOM     18  C   UNL     1       8.411  -4.420  25.250  0.00  0.00    +0.201 C 
ATOM     19  C   UNL     1       7.526  -5.405  26.033  0.00  0.00    +0.179 C 
ATOM     20  C   UNL     1       6.116  -4.824  26.215  0.00  0.00    +0.177 C 
ATOM     21  C   UNL     1       5.530  -4.536  24.825  0.00  0.00    +0.178 C 
ATOM     22  O   UNL     1       6.323  -3.577  24.116  0.00  0.00    -0.341 OA
BRANCH  18  23
ATOM     23  O   UNL     1       9.658  -5.064  24.917  0.00  0.00    -0.384 OA
ATOM     24  H   UNL     1       9.632  -5.328  23.981  0.00  0.00    +0.210 HD
ENDBRANCH  18  23
BRANCH  19  25
ATOM     25  O   UNL     1       8.126  -5.706  27.304  0.00  0.00    -0.386 OA
ATOM     26  H   UNL     1       9.059  -5.438  27.274  0.00  0.00    +0.210 HD
ENDBRANCH  19  25
BRANCH  20  27
ATOM     27  O   UNL     1       6.230  -3.656  27.037  0.00  0.00    -0.386 OA
ATOM     28  H   UNL     1       7.166  -3.397  27.139  0.00  0.00    +0.210 HD
ENDBRANCH  20  27
BRANCH  21  29
ATOM     29  C   UNL     1       4.106  -3.977  24.915  0.00  0.00    +0.190 C 
BRANCH  29  30
ATOM     30  O   UNL     1       4.150  -2.563  25.093  0.00  0.00    -0.392 OA
ATOM     31  H   UNL     1       4.803  -2.235  24.444  0.00  0.00    +0.210 HD
ENDBRANCH  29  30
ENDBRANCH  21  29
ENDBRANCH  16  17
ENDBRANCH   3  16
BRANCH   4  32
ATOM     32  C   UNL     1      10.548  -0.693  22.570  0.00  0.00    +0.190 C 
BRANCH  32  33
ATOM     33  O   UNL     1      10.152  -1.653  21.599  0.00  0.00    -0.392 OA
ATOM     34  H   UNL     1       9.179  -1.668  21.596  0.00  0.00    +0.210 HD
ENDBRANCH  32  33
ENDBRANCH   4  32
TORSDOF 12
ENDMDL
MODEL 8
REMARK VINA RESULT:      -5.9      2.300      7.120
REMARK  Name = 
REMARK  13 active torsions:
REMARK  status: ('A' for Active; 'I' for Inactive)
REMARK    1  A    between atoms: C_1  and  C_2
REMARK    2  A    between atoms: N_4  and  C_5
REMARK    3  A    between atoms: C_7  and  O_9
REMARK    4  A    between atoms: C_11  and  C_13
REMARK    5  A    between atoms: C_13  and  O_14
REMARK    6  A    between atoms: C_15  and  O_17
REMARK    7  A    between atoms: O_17  and  C_18
REMARK    8  A    between atoms: C_21  and  C_23
REMARK    9  A    between atoms: C_23  and  O_24
REMARK   10  A    between atoms: C_25  and  O_27
REMARK   11  A    between atoms: C_28  and  O_30
REMARK   12  A    between atoms: C_31  and  O_33
REMARK   13  A    between atoms: C_34  and  O_36
REMARK                            x       y       z     vdW  Elec       q    Type
REMARK                         _______ _______ _______ _____ _____    ______ ____
ROOT
ATOM      1  C   UNL     1       9.636  -1.697  23.911  0.00  0.00    +0.160 C 
ATOM      2  C   UNL     1      10.050  -0.259  24.262  0.00  0.00    +0.171 C 
ATOM      3  C   UNL     1       8.876   0.721  24.078  0.00  0.00    +0.183 C 
ATOM      4  C   UNL     1       8.349   0.624  22.622  0.00  0.00    +0.178 C 
ATOM      5  O   UNL     1       7.947  -0.734  22.350  0.00  0.00    -0.341 OA
ATOM      6  C   UNL     1       8.962  -1.730  22.516  0.00  0.00    +0.270 C 
ENDROOT
BRANCH   1   9
ATOM      7  C   UNL     1       8.020  -4.065  26.415  0.00  0.00    +0.109 C 
ATOM      8  C   UNL     1       8.933  -3.638  25.304  0.00  0.00    +0.210 C 
ATOM      9  N   UNL     1       8.800  -2.308  24.956  0.00  0.00    -0.305 N 
ATOM     10  H   UNL     1       8.255  -1.689  25.554  0.00  0.00    +0.149 HD
ATOM     11  O   UNL     1       9.728  -4.412  24.772  0.00  0.00    -0.276 OA
ENDBRANCH   1   9
BRANCH   2  12
ATOM     12  O   UNL     1      11.169   0.155  23.465  0.00  0.00    -0.387 OA
ATOM     13  H   UNL     1      11.649  -0.674  23.250  0.00  0.00    +0.210 HD
ENDBRANCH   2  12
BRANCH   6  14
ATOM     14  O   UNL     1       9.911  -1.691  21.460  0.00  0.00    -0.365 OA
ATOM     15  H   UNL     1      10.244  -2.601  21.337  0.00  0.00    +0.213 HD
ENDBRANCH   6  14
BRANCH   3  16
ATOM     16  O   UNL     1       9.186   2.069  24.472  0.00  0.00    -0.340 OA
BRANCH  16  17
ATOM     17  C   UNL     1       8.093   3.017  24.479  0.00  0.00    +0.282 C 
ATOM     18  C   UNL     1       7.622   3.381  25.919  0.00  0.00    +0.201 C 
ATOM     19  C   UNL     1       6.633   4.559  25.900  0.00  0.00    +0.179 C 
ATOM     20  C   UNL     1       7.190   5.709  25.048  0.00  0.00    +0.177 C 
ATOM     21  C   UNL     1       7.446   5.178  23.630  0.00  0.00    +0.178 C 
ATOM     22  O   UNL     1       8.410   4.118  23.639  0.00  0.00    -0.341 OA
BRANCH  18  23
ATOM     23  O   UNL     1       6.997   2.246  26.550  0.00  0.00    -0.384 OA
ATOM     24  H   UNL     1       7.602   1.485  26.493  0.00  0.00    +0.210 HD
ENDBRANCH  18  23
BRANCH  19  25
ATOM     25  O   UNL     1       6.362   4.997  27.242  0.00  0.00    -0.386 OA
ATOM     26  H   UNL     1       6.531   4.257  27.848  0.00  0.00    +0.210 HD
ENDBRANCH  19  25
BRANCH  20  27
ATOM     27  O   UNL     1       8.372   6.196  25.696  0.00  0.00    -0.386 OA
ATOM     28  H   UNL     1       8.844   6.828  25.120  0.00  0.00    +0.210 HD
ENDBRANCH  20  27
BRANCH  21  29
ATOM     29  C   UNL     1       7.979   6.275  22.702  0.00  0.00    +0.190 C 
BRANCH  29  30
ATOM     30  O   UNL     1       7.517   6.052  21.372  0.00  0.00    -0.392 OA
ATOM     31  H   UNL     1       7.603   6.911  20.914  0.00  0.00    +0.210 HD
ENDBRANCH  29  30
ENDBRANCH  21  29
ENDBRANCH  16  17
ENDBRANCH   3  16
BRANCH   4  32
ATOM     32  C   UNL     1       9.202   1.203  21.473  0.00  0.00    +0.190 C 
BRANCH  32  33
ATOM     33  O   UNL     1       9.927   2.359  21.873  0.00  0.00    -0.392 OA
ATOM     34  H   UNL     1       9.355   3.127  21.698  0.00  0.00    +0.210 HD
ENDBRANCH  32  33
ENDBRANCH   4  32
TORSDOF 12
ENDMDL
MODEL 9
REMARK VINA RESULT:      -5.9      2.424      6.351
REMARK  Name = 
REMARK  13 active torsions:
REMARK  status: ('A' for Active; 'I' for Inactive)
REMARK    1  A    between atoms: C_1  and  C_2
REMARK    2  A    between atoms: N_4  and  C_5
REMARK    3  A    between atoms: C_7  and  O_9
REMARK    4  A    between atoms: C_11  and  C_13
REMARK    5  A    between atoms: C_13  and  O_14
REMARK    6  A    between atoms: C_15  and  O_17
REMARK    7  A    between atoms: O_17  and  C_18
REMARK    8  A    between atoms: C_21  and  C_23
REMARK    9  A    between atoms: C_23  and  O_24
REMARK   10  A    between atoms: C_25  and  O_27
REMARK   11  A    between atoms: C_28  and  O_30
REMARK   12  A    between atoms: C_31  and  O_33
REMARK   13  A    between atoms: C_34  and  O_36
REMARK                            x       y       z     vdW  Elec       q    Type
REMARK                         _______ _______ _______ _____ _____    ______ ____
ROOT
ATOM      1  C   UNL     1       5.282  -4.632  24.870  0.00  0.00    +0.160 C 
ATOM      2  C   UNL     1       6.721  -4.288  24.456  0.00  0.00    +0.171 C 
ATOM      3  C   UNL     1       6.747  -3.461  23.157  0.00  0.00    +0.183 C 
ATOM      4  C   UNL     1       6.007  -4.240  22.038  0.00  0.00    +0.178 C 
ATOM      5  O   UNL     1       4.655  -4.513  22.459  0.00  0.00    -0.341 OA
ATOM      6  C   UNL     1       4.521  -5.259  23.675  0.00  0.00    +0.270 C 
ENDROOT
BRANCH   1   9
ATOM      7  C   UNL     1       3.902  -1.939  27.180  0.00  0.00    +0.109 C 
ATOM      8  C   UNL     1       4.659  -3.174  26.791  0.00  0.00    +0.210 C 
ATOM      9  N   UNL     1       4.576  -3.477  25.446  0.00  0.00    -0.305 N 
ATOM     10  H   UNL     1       4.179  -2.792  24.805  0.00  0.00    +0.149 HD
ATOM     11  O   UNL     1       5.301  -3.835  27.606  0.00  0.00    -0.276 OA
ENDBRANCH   1   9
BRANCH   2  12
ATOM     12  O   UNL     1       7.502  -5.482  24.297  0.00  0.00    -0.387 OA
ATOM     13  H   UNL     1       7.285  -6.033  25.080  0.00  0.00    +0.210 HD
ENDBRANCH   2  12
BRANCH   6  14
ATOM     14  O   UNL     1       4.849  -6.628  23.487  0.00  0.00    -0.365 OA
ATOM     15  H   UNL     1       4.292  -7.145  24.102  0.00  0.00    +0.213 HD
ENDBRANCH   6  14
BRANCH   3  16
ATOM     16  O   UNL     1       8.066  -3.040  22.769  0.00  0.00    -0.340 OA
BRANCH  16  17
ATOM     17  C   UNL     1       8.453  -1.692  23.119  0.00  0.00    +0.282 C 
ATOM     18  C   UNL     1       8.823  -0.830  21.874  0.00  0.00    +0.201 C 
ATOM     19  C   UNL     1       8.996   0.651  22.253  0.00  0.00    +0.179 C 
ATOM     20  C   UNL     1       7.801   1.130  23.090  0.00  0.00    +0.177 C 
ATOM     21  C   UNL     1       7.704   0.246  24.341  0.00  0.00    +0.178 C 
ATOM     22  O   UNL     1       7.486  -1.127  23.992  0.00  0.00    -0.341 OA
BRANCH  18  23
ATOM     23  O   UNL     1      10.039  -1.310  21.267  0.00  0.00    -0.384 OA
ATOM     24  H   UNL     1       9.817  -2.035  20.656  0.00  0.00    +0.210 HD
ENDBRANCH  18  23
BRANCH  19  25
ATOM     25  O   UNL     1       9.146   1.449  21.067  0.00  0.00    -0.386 OA
ATOM     26  H   UNL     1       9.931   2.012  21.172  0.00  0.00    +0.210 HD
ENDBRANCH  19  25
BRANCH  20  27
ATOM     27  O   UNL     1       6.635   1.069  22.258  0.00  0.00    -0.386 OA
ATOM     28  H   UNL     1       6.874   0.796  21.351  0.00  0.00    +0.210 HD
ENDBRANCH  20  27
BRANCH  21  29
ATOM     29  C   UNL     1       6.547   0.676  25.251  0.00  0.00    +0.190 C 
BRANCH  29  30
ATOM     30  O   UNL     1       5.312   0.195  24.725  0.00  0.00    -0.392 OA
ATOM     31  H   UNL     1       4.613   0.679  25.207  0.00  0.00    +0.210 HD
ENDBRANCH  29  30
ENDBRANCH  21  29
ENDBRANCH  16  17
ENDBRANCH   3  16
BRANCH   4  32
ATOM     32  C   UNL     1       6.674  -5.490  21.425  0.00  0.00    +0.190 C 
BRANCH  32  33
ATOM     33  O   UNL     1       5.752  -6.280  20.683  0.00  0.00    -0.392 OA
ATOM     34  H   UNL     1       6.277  -6.841  20.086  0.00  0.00    +0.210 HD
ENDBRANCH  32  33
ENDBRANCH   4  32
TORSDOF 12
ENDMDL
