MODEL 1
REMARK VINA RESULT:      -7.7      0.000      0.000
REMARK  Name = 
REMARK  8 active torsions:
REMARK  status: ('A' for Active; 'I' for Inactive)
REMARK    1  A    between atoms: O_1  and  C_2
REMARK    2  A    between atoms: C_5  and  C_6
REMARK    3  A    between atoms: C_6  and  C_7
REMARK    4  A    between atoms: C_7  and  O_8
REMARK    5  A    between atoms: C_13  and  C_23
REMARK    6  A    between atoms: C_15  and  C_16
REMARK    7  A    between atoms: C_16  and  C_17
REMARK    8  A    between atoms: C_26  and  O_27
REMARK                            x       y       z     vdW  Elec       q    Type
REMARK                         _______ _______ _______ _____ _____    ______ ____
ROOT
ATOM      1  C   UNL     1       5.723  -5.357  22.410  0.00  0.00    +0.244 C 
ATOM      2  C   UNL     1       5.994  -3.960  21.789  0.00  0.00    +0.288 C 
ATOM      3  O   UNL     1       5.617  -3.585  20.690  0.00  0.00    -0.267 OA
ATOM      4  N   UNL     1       6.790  -3.319  22.679  0.00  0.00    -0.264 N 
ATOM      5  C   UNL     1       7.401  -2.103  22.571  0.00  0.00    +0.124 A 
ATOM      6  C   UNL     1       8.213  -1.690  23.567  0.00  0.00    +0.088 A 
ATOM      7  N   UNL     1       8.417  -2.424  24.726  0.00  0.00    -0.246 NA
ATOM      8  C   UNL     1       7.856  -3.601  24.815  0.00  0.00    +0.089 A 
ATOM      9  C   UNL     1       7.028  -4.161  23.700  0.00  0.00    +0.161 A 
ATOM     10  N   UNL     1       6.534  -5.351  23.661  0.00  0.00    -0.221 NA
ENDROOT
BRANCH   6  11
ATOM     11  C   UNL     1       8.982  -0.422  23.411  0.00  0.00    +0.002 A 
ATOM     12  C   UNL     1       9.116   0.148  22.134  0.00  0.00    +0.013 A 
ATOM     13  C   UNL     1       9.779   1.364  21.955  0.00  0.00    +0.046 A 
ATOM     14  C   UNL     1      10.320   2.021  23.055  0.00  0.00    +0.117 A 
ATOM     15  C   UNL     1      10.241   1.458  24.323  0.00  0.00    +0.046 A 
ATOM     16  C   UNL     1       9.582   0.236  24.497  0.00  0.00    +0.013 A 
BRANCH  14  17
ATOM     17  O   UNL     1      10.915   3.227  22.846  0.00  0.00    -0.507 OA
ATOM     18  H   UNL     1      11.102   3.319  21.898  0.00  0.00    +0.292 HD
ENDBRANCH  14  17
ENDBRANCH   6  11
BRANCH   1  19
ATOM     19  O   UNL     1       6.101  -6.340  21.456  0.00  0.00    -0.361 OA
ATOM     20  H   UNL     1       7.024  -6.150  21.200  0.00  0.00    +0.213 HD
ENDBRANCH   1  19
BRANCH   1  21
ATOM     21  C   UNL     1       4.231  -5.474  22.810  0.00  0.00    +0.104 C 
BRANCH  21  25
ATOM     22  C   UNL     1       3.091  -6.732  26.795  0.00  0.00    +0.117 A 
ATOM     23  C   UNL     1       2.563  -5.574  26.242  0.00  0.00    +0.045 A 
ATOM     24  C   UNL     1       2.963  -5.171  24.964  0.00  0.00    +0.007 A 
ATOM     25  C   UNL     1       3.895  -5.924  24.227  0.00  0.00    -0.042 A 
ATOM     26  C   UNL     1       4.438  -7.069  24.826  0.00  0.00    +0.007 A 
ATOM     27  C   UNL     1       4.038  -7.477  26.103  0.00  0.00    +0.045 A 
BRANCH  22  28
ATOM     28  O   UNL     1       2.642  -7.119  28.022  0.00  0.00    -0.507 OA
ATOM     29  H   UNL     1       2.231  -7.994  27.934  0.00  0.00    +0.292 HD
ENDBRANCH  22  28
ENDBRANCH  21  25
ENDBRANCH   1  21
BRANCH   8  30
ATOM     30  C   UNL     1       7.965  -4.440  26.065  0.00  0.00    +0.094 C 
BRANCH  30  31
ATOM     31  C   UNL     1       6.775  -4.290  26.974  0.00  0.00    -0.041 A 
ATOM     32  C   UNL     1       6.510  -5.239  27.973  0.00  0.00    +0.004 A 
ATOM     33  C   UNL     1       5.424  -5.071  28.832  0.00  0.00    +0.000 A 
ATOM     34  C   UNL     1       4.594  -3.958  28.699  0.00  0.00    +0.000 A 
ATOM     35  C   UNL     1       4.846  -3.015  27.704  0.00  0.00    +0.000 A 
ATOM     36  C   UNL     1       5.933  -3.180  26.847  0.00  0.00    +0.004 A 
ENDBRANCH  30  31
ENDBRANCH   8  30
TORSDOF 8
ENDMDL
MODEL 2
REMARK VINA RESULT:      -7.0      2.437      4.219
REMARK  Name = 
REMARK  8 active torsions:
REMARK  status: ('A' for Active; 'I' for Inactive)
REMARK    1  A    between atoms: O_1  and  C_2
REMARK    2  A    between atoms: C_5  and  C_6
REMARK    3  A    between atoms: C_6  and  C_7
REMARK    4  A    between atoms: C_7  and  O_8
REMARK    5  A    between atoms: C_13  and  C_23
REMARK    6  A    between atoms: C_15  and  C_16
REMARK    7  A    between atoms: C_16  and  C_17
REMARK    8  A    between atoms: C_26  and  O_27
REMARK                            x       y       z     vdW  Elec       q    Type
REMARK                         _______ _______ _______ _____ _____    ______ ____
ROOT
ATOM      1  C   UNL     1       8.497  -4.330  26.107  0.00  0.00    +0.244 C 
ATOM      2  C   UNL     1       9.217  -3.427  25.070  0.00  0.00    +0.288 C 
ATOM      3  O   UNL     1      10.097  -3.787  24.303  0.00  0.00    -0.267 OA
ATOM      4  N   UNL     1       8.724  -2.181  25.273  0.00  0.00    -0.264 N 
ATOM      5  C   UNL     1       9.097  -1.001  24.697  0.00  0.00    +0.124 A 
ATOM      6  C   UNL     1       8.504   0.140  25.107  0.00  0.00    +0.088 A 
ATOM      7  N   UNL     1       7.491   0.166  26.055  0.00  0.00    -0.246 NA
ATOM      8  C   UNL     1       7.157  -0.961  26.627  0.00  0.00    +0.089 A 
ATOM      9  C   UNL     1       7.848  -2.246  26.291  0.00  0.00    +0.161 A 
ATOM     10  N   UNL     1       7.657  -3.375  26.884  0.00  0.00    -0.221 NA
ENDROOT
BRANCH   6  11
ATOM     11  C   UNL     1       8.984   1.449  24.578  0.00  0.00    +0.002 A 
ATOM     12  C   UNL     1       8.258   2.617  24.869  0.00  0.00    +0.013 A 
ATOM     13  C   UNL     1       8.706   3.868  24.441  0.00  0.00    +0.046 A 
ATOM     14  C   UNL     1       9.886   3.963  23.712  0.00  0.00    +0.117 A 
ATOM     15  C   UNL     1      10.601   2.821  23.372  0.00  0.00    +0.046 A 
ATOM     16  C   UNL     1      10.145   1.568  23.796  0.00  0.00    +0.013 A 
BRANCH  14  17
ATOM     17  O   UNL     1      10.315   5.205  23.355  0.00  0.00    -0.507 OA
ATOM     18  H   UNL     1      11.286   5.204  23.344  0.00  0.00    +0.292 HD
ENDBRANCH  14  17
ENDBRANCH   6  11
BRANCH   1  19
ATOM     19  O   UNL     1       9.492  -5.005  26.865  0.00  0.00    -0.361 OA
ATOM     20  H   UNL     1       9.197  -5.930  26.963  0.00  0.00    +0.213 HD
ENDBRANCH   1  19
BRANCH   1  21
ATOM     21  C   UNL     1       7.549  -5.314  25.379  0.00  0.00    +0.104 C 
BRANCH  21  25
ATOM     22  C   UNL     1       6.243  -4.535  21.323  0.00  0.00    +0.117 A 
ATOM     23  C   UNL     1       7.157  -5.544  21.589  0.00  0.00    +0.045 A 
ATOM     24  C   UNL     1       7.586  -5.763  22.902  0.00  0.00    +0.007 A 
ATOM     25  C   UNL     1       7.103  -4.975  23.961  0.00  0.00    -0.042 A 
ATOM     26  C   UNL     1       6.207  -3.940  23.658  0.00  0.00    +0.007 A 
ATOM     27  C   UNL     1       5.774  -3.719  22.346  0.00  0.00    +0.045 A 
BRANCH  22  28
ATOM     28  O   UNL     1       5.812  -4.381  20.039  0.00  0.00    -0.507 OA
ATOM     29  H   UNL     1       6.183  -5.101  19.505  0.00  0.00    +0.292 HD
ENDBRANCH  22  28
ENDBRANCH  21  25
ENDBRANCH   1  21
BRANCH   8  30
ATOM     30  C   UNL     1       6.021  -1.041  27.617  0.00  0.00    +0.094 C 
BRANCH  30  31
ATOM     31  C   UNL     1       4.962  -2.031  27.211  0.00  0.00    -0.041 A 
ATOM     32  C   UNL     1       4.336  -1.941  25.959  0.00  0.00    +0.004 A 
ATOM     33  C   UNL     1       3.381  -2.884  25.580  0.00  0.00    +0.000 A 
ATOM     34  C   UNL     1       3.042  -3.922  26.448  0.00  0.00    +0.000 A 
ATOM     35  C   UNL     1       3.654  -4.014  27.697  0.00  0.00    +0.000 A 
ATOM     36  C   UNL     1       4.611  -3.074  28.076  0.00  0.00    +0.004 A 
ENDBRANCH  30  31
ENDBRANCH   8  30
TORSDOF 8
ENDMDL
MODEL 3
REMARK VINA RESULT:      -7.0      2.381      3.404
REMARK  Name = 
REMARK  8 active torsions:
REMARK  status: ('A' for Active; 'I' for Inactive)
REMARK    1  A    between atoms: O_1  and  C_2
REMARK    2  A    between atoms: C_5  and  C_6
REMARK    3  A    between atoms: C_6  and  C_7
REMARK    4  A    between atoms: C_7  and  O_8
REMARK    5  A    between atoms: C_13  and  C_23
REMARK    6  A    between atoms: C_15  and  C_16
REMARK    7  A    between atoms: C_16  and  C_17
REMARK    8  A    between atoms: C_26  and  O_27
REMARK                            x       y       z     vdW  Elec       q    Type
REMARK                         _______ _______ _______ _____ _____    ______ ____
ROOT
ATOM      1  C   UNL     1       8.578  -4.164  25.908  0.00  0.00    +0.244 C 
ATOM      2  C   UNL     1       9.307  -3.256  24.881  0.00  0.00    +0.288 C 
ATOM      3  O   UNL     1      10.167  -3.620  24.094  0.00  0.00    -0.267 OA
ATOM      4  N   UNL     1       8.848  -2.003  25.119  0.00  0.00    -0.264 N 
ATOM      5  C   UNL     1       9.242  -0.820  24.565  0.00  0.00    +0.124 A 
ATOM      6  C   UNL     1       8.684   0.326  25.008  0.00  0.00    +0.088 A 
ATOM      7  N   UNL     1       7.685   0.355  25.970  0.00  0.00    -0.246 NA
ATOM      8  C   UNL     1       7.330  -0.775  26.522  0.00  0.00    +0.089 A 
ATOM      9  C   UNL     1       7.984  -2.069  26.147  0.00  0.00    +0.161 A 
ATOM     10  N   UNL     1       7.772  -3.206  26.718  0.00  0.00    -0.221 NA
ENDROOT
BRANCH   6  11
ATOM     11  C   UNL     1       9.190   1.635  24.502  0.00  0.00    +0.002 A 
ATOM     12  C   UNL     1       8.472   2.808  24.791  0.00  0.00    +0.013 A 
ATOM     13  C   UNL     1       8.943   4.057  24.384  0.00  0.00    +0.046 A 
ATOM     14  C   UNL     1      10.138   4.146  23.678  0.00  0.00    +0.117 A 
ATOM     15  C   UNL     1      10.845   2.999  23.340  0.00  0.00    +0.046 A 
ATOM     16  C   UNL     1      10.366   1.747  23.743  0.00  0.00    +0.013 A 
BRANCH  14  17
ATOM     17  O   UNL     1      10.589   5.386  23.343  0.00  0.00    -0.507 OA
ATOM     18  H   UNL     1      10.117   6.042  23.882  0.00  0.00    +0.292 HD
ENDBRANCH  14  17
ENDBRANCH   6  11
BRANCH   1  19
ATOM     19  O   UNL     1       9.565  -4.880  26.636  0.00  0.00    -0.361 OA
ATOM     20  H   UNL     1       9.100  -5.384  27.331  0.00  0.00    +0.213 HD
ENDBRANCH   1  19
BRANCH   1  21
ATOM     21  C   UNL     1       7.595  -5.108  25.171  0.00  0.00    +0.104 C 
BRANCH  21  25
ATOM     22  C   UNL     1       4.203  -6.812  27.256  0.00  0.00    +0.117 A 
ATOM     23  C   UNL     1       4.238  -6.785  25.869  0.00  0.00    +0.045 A 
ATOM     24  C   UNL     1       5.331  -6.206  25.215  0.00  0.00    +0.007 A 
ATOM     25  C   UNL     1       6.399  -5.652  25.942  0.00  0.00    -0.042 A 
ATOM     26  C   UNL     1       6.319  -5.663  27.342  0.00  0.00    +0.007 A 
ATOM     27  C   UNL     1       5.229  -6.243  28.000  0.00  0.00    +0.045 A 
BRANCH  22  28
ATOM     28  O   UNL     1       3.146  -7.426  27.859  0.00  0.00    -0.507 OA
ATOM     29  H   UNL     1       2.947  -8.241  27.370  0.00  0.00    +0.292 HD
ENDBRANCH  22  28
ENDBRANCH  21  25
ENDBRANCH   1  21
BRANCH   8  30
ATOM     30  C   UNL     1       6.206  -0.850  27.525  0.00  0.00    +0.094 C 
BRANCH  30  31
ATOM     31  C   UNL     1       5.076  -1.736  27.072  0.00  0.00    -0.041 A 
ATOM     32  C   UNL     1       4.845  -1.962  25.707  0.00  0.00    +0.004 A 
ATOM     33  C   UNL     1       3.817  -2.812  25.300  0.00  0.00    +0.000 A 
ATOM     34  C   UNL     1       3.011  -3.439  26.250  0.00  0.00    +0.000 A 
ATOM     35  C   UNL     1       3.229  -3.212  27.608  0.00  0.00    +0.000 A 
ATOM     36  C   UNL     1       4.259  -2.366  28.017  0.00  0.00    +0.004 A 
ENDBRANCH  30  31
ENDBRANCH   8  30
TORSDOF 8
ENDMDL
MODEL 4
REMARK VINA RESULT:      -7.0      2.404      4.120
REMARK  Name = 
REMARK  8 active torsions:
REMARK  status: ('A' for Active; 'I' for Inactive)
REMARK    1  A    between atoms: O_1  and  C_2
REMARK    2  A    between atoms: C_5  and  C_6
REMARK    3  A    between atoms: C_6  and  C_7
REMARK    4  A    between atoms: C_7  and  O_8
REMARK    5  A    between atoms: C_13  and  C_23
REMARK    6  A    between atoms: C_15  and  C_16
REMARK    7  A    between atoms: C_16  and  C_17
REMARK    8  A    between atoms: C_26  and  O_27
REMARK                            x       y       z     vdW  Elec       q    Type
REMARK                         _______ _______ _______ _____ _____    ______ ____
ROOT
ATOM      1  C   UNL     1       4.250  -2.235  26.261  0.00  0.00    +0.244 C 
ATOM      2  C   UNL     1       5.291  -1.175  26.708  0.00  0.00    +0.288 C 
ATOM      3  O   UNL     1       5.343  -0.650  27.810  0.00  0.00    -0.267 OA
ATOM      4  N   UNL     1       6.036  -0.915  25.606  0.00  0.00    -0.264 N 
ATOM      5  C   UNL     1       7.019   0.016  25.429  0.00  0.00    +0.124 A 
ATOM      6  C   UNL     1       7.585   0.142  24.210  0.00  0.00    +0.088 A 
ATOM      7  N   UNL     1       7.250  -0.669  23.136  0.00  0.00    -0.246 NA
ATOM      8  C   UNL     1       6.288  -1.539  23.298  0.00  0.00    +0.089 A 
ATOM      9  C   UNL     1       5.550  -1.657  24.596  0.00  0.00    +0.161 A 
ATOM     10  N   UNL     1       4.522  -2.407  24.805  0.00  0.00    -0.221 NA
ENDROOT
BRANCH   6  11
ATOM     11  C   UNL     1       8.571   1.234  23.967  0.00  0.00    +0.002 A 
ATOM     12  C   UNL     1       9.569   1.055  22.993  0.00  0.00    +0.013 A 
ATOM     13  C   UNL     1      10.474   2.075  22.696  0.00  0.00    +0.046 A 
ATOM     14  C   UNL     1      10.394   3.286  23.375  0.00  0.00    +0.117 A 
ATOM     15  C   UNL     1       9.446   3.474  24.374  0.00  0.00    +0.046 A 
ATOM     16  C   UNL     1       8.545   2.447  24.674  0.00  0.00    +0.013 A 
BRANCH  14  17
ATOM     17  O   UNL     1      11.263   4.273  23.022  0.00  0.00    -0.507 OA
ATOM     18  H   UNL     1      10.754   5.019  22.666  0.00  0.00    +0.292 HD
ENDBRANCH  14  17
ENDBRANCH   6  11
BRANCH   1  19
ATOM     19  O   UNL     1       2.956  -1.736  26.572  0.00  0.00    -0.361 OA
ATOM     20  H   UNL     1       2.941  -1.559  27.532  0.00  0.00    +0.213 HD
ENDBRANCH   1  19
BRANCH   1  21
ATOM     21  C   UNL     1       4.540  -3.586  26.961  0.00  0.00    +0.104 C 
BRANCH  21  25
ATOM     22  C   UNL     1       3.398  -7.150  24.780  0.00  0.00    +0.117 A 
ATOM     23  C   UNL     1       2.441  -6.378  25.423  0.00  0.00    +0.045 A 
ATOM     24  C   UNL     1       2.833  -5.245  26.144  0.00  0.00    +0.007 A 
ATOM     25  C   UNL     1       4.186  -4.873  26.227  0.00  0.00    -0.042 A 
ATOM     26  C   UNL     1       5.134  -5.692  25.597  0.00  0.00    +0.007 A 
ATOM     27  C   UNL     1       4.746  -6.824  24.873  0.00  0.00    +0.045 A 
BRANCH  22  28
ATOM     28  O   UNL     1       2.976  -8.219  24.048  0.00  0.00    -0.507 OA
ATOM     29  H   UNL     1       2.496  -7.887  23.273  0.00  0.00    +0.292 HD
ENDBRANCH  22  28
ENDBRANCH  21  25
ENDBRANCH   1  21
BRANCH   8  30
ATOM     30  C   UNL     1       5.903  -2.509  22.209  0.00  0.00    +0.094 C 
BRANCH  30  31
ATOM     31  C   UNL     1       6.568  -3.852  22.362  0.00  0.00    -0.041 A 
ATOM     32  C   UNL     1       7.554  -4.058  23.337  0.00  0.00    +0.004 A 
ATOM     33  C   UNL     1       8.137  -5.316  23.492  0.00  0.00    +0.000 A 
ATOM     34  C   UNL     1       7.743  -6.374  22.673  0.00  0.00    +0.000 A 
ATOM     35  C   UNL     1       6.770  -6.175  21.696  0.00  0.00    +0.000 A 
ATOM     36  C   UNL     1       6.183  -4.919  21.543  0.00  0.00    +0.004 A 
ENDBRANCH  30  31
ENDBRANCH   8  30
TORSDOF 8
ENDMDL
MODEL 5
REMARK VINA RESULT:      -6.9      3.012      8.586
REMARK  Name = 
REMARK  8 active torsions:
REMARK  status: ('A' for Active; 'I' for Inactive)
REMARK    1  A    between atoms: O_1  and  C_2
REMARK    2  A    between atoms: C_5  and  C_6
REMARK    3  A    between atoms: C_6  and  C_7
REMARK    4  A    between atoms: C_7  and  O_8
REMARK    5  A    between atoms: C_13  and  C_23
REMARK    6  A    between atoms: C_15  and  C_16
REMARK    7  A    between atoms: C_16  and  C_17
REMARK    8  A    between atoms: C_26  and  O_27
REMARK                            x       y       z     vdW  Elec       q    Type
REMARK                         _______ _______ _______ _____ _____    ______ ____
ROOT
ATOM      1  C   UNL     1       9.108   0.922  22.440  0.00  0.00    +0.244 C 
ATOM      2  C   UNL     1       9.202  -0.627  22.385  0.00  0.00    +0.288 C 
ATOM      3  O   UNL     1      10.067  -1.266  21.807  0.00  0.00    -0.267 OA
ATOM      4  N   UNL     1       8.097  -1.077  23.025  0.00  0.00    -0.264 N 
ATOM      5  C   UNL     1       7.644  -2.357  23.169  0.00  0.00    +0.124 A 
ATOM      6  C   UNL     1       6.468  -2.566  23.797  0.00  0.00    +0.088 A 
ATOM      7  N   UNL     1       5.717  -1.541  24.352  0.00  0.00    -0.246 NA
ATOM      8  C   UNL     1       6.136  -0.314  24.188  0.00  0.00    +0.089 A 
ATOM      9  C   UNL     1       7.380  -0.008  23.412  0.00  0.00    +0.161 A 
ATOM     10  N   UNL     1       7.801   1.173  23.110  0.00  0.00    -0.221 NA
ENDROOT
BRANCH   6  11
ATOM     11  C   UNL     1       5.899  -3.944  23.854  0.00  0.00    +0.002 A 
ATOM     12  C   UNL     1       5.994  -4.678  25.049  0.00  0.00    +0.013 A 
ATOM     13  C   UNL     1       5.424  -5.947  25.161  0.00  0.00    +0.046 A 
ATOM     14  C   UNL     1       4.755  -6.499  24.073  0.00  0.00    +0.117 A 
ATOM     15  C   UNL     1       4.685  -5.815  22.866  0.00  0.00    +0.046 A 
ATOM     16  C   UNL     1       5.264  -4.546  22.756  0.00  0.00    +0.013 A 
BRANCH  14  17
ATOM     17  O   UNL     1       4.170  -7.717  24.237  0.00  0.00    -0.507 OA
ATOM     18  H   UNL     1       4.575  -8.340  23.612  0.00  0.00    +0.292 HD
ENDBRANCH  14  17
ENDBRANCH   6  11
BRANCH   1  19
ATOM     19  O   UNL     1       9.203   1.413  21.110  0.00  0.00    -0.361 OA
ATOM     20  H   UNL     1      10.127   1.700  20.976  0.00  0.00    +0.213 HD
ENDBRANCH   1  19
BRANCH   1  21
ATOM     21  C   UNL     1      10.227   1.485  23.352  0.00  0.00    +0.104 C 
BRANCH  21  25
ATOM     22  C   UNL     1      10.074   5.702  24.328  0.00  0.00    +0.117 A 
ATOM     23  C   UNL     1      11.151   5.178  23.628  0.00  0.00    +0.045 A 
ATOM     24  C   UNL     1      11.194   3.809  23.345  0.00  0.00    +0.007 A 
ATOM     25  C   UNL     1      10.159   2.952  23.759  0.00  0.00    -0.042 A 
ATOM     26  C   UNL     1       9.101   3.504  24.495  0.00  0.00    +0.007 A 
ATOM     27  C   UNL     1       9.053   4.873  24.778  0.00  0.00    +0.045 A 
BRANCH  22  28
ATOM     28  O   UNL     1      10.043   7.048  24.544  0.00  0.00    -0.507 OA
ATOM     29  H   UNL     1       9.295   7.244  25.131  0.00  0.00    +0.292 HD
ENDBRANCH  22  28
ENDBRANCH  21  25
ENDBRANCH   1  21
BRANCH   8  30
ATOM     30  C   UNL     1       5.424   0.859  24.815  0.00  0.00    +0.094 C 
BRANCH  30  31
ATOM     31  C   UNL     1       6.059   1.307  26.105  0.00  0.00    -0.041 A 
ATOM     32  C   UNL     1       6.210   2.671  26.395  0.00  0.00    +0.004 A 
ATOM     33  C   UNL     1       6.769   3.074  27.608  0.00  0.00    +0.000 A 
ATOM     34  C   UNL     1       7.183   2.120  28.537  0.00  0.00    +0.000 A 
ATOM     35  C   UNL     1       7.044   0.762  28.252  0.00  0.00    +0.000 A 
ATOM     36  C   UNL     1       6.482   0.358  27.042  0.00  0.00    +0.004 A 
ENDBRANCH  30  31
ENDBRANCH   8  30
TORSDOF 8
ENDMDL
MODEL 6
REMARK VINA RESULT:      -6.9      3.037      4.781
REMARK  Name = 
REMARK  8 active torsions:
REMARK  status: ('A' for Active; 'I' for Inactive)
REMARK    1  A    between atoms: O_1  and  C_2
REMARK    2  A    between atoms: C_5  and  C_6
REMARK    3  A    between atoms: C_6  and  C_7
REMARK    4  A    between atoms: C_7  and  O_8
REMARK    5  A    between atoms: C_13  and  C_23
REMARK    6  A    between atoms: C_15  and  C_16
REMARK    7  A    between atoms: C_16  and  C_17
REMARK    8  A    between atoms: C_26  and  O_27
REMARK                            x       y       z     vdW  Elec       q    Type
REMARK                         _______ _______ _______ _____ _____    ______ ____
ROOT
ATOM      1  C   UNL     1       8.279  -4.226  26.202  0.00  0.00    +0.244 C 
ATOM      2  C   UNL     1       9.096  -3.387  25.184  0.00  0.00    +0.288 C 
ATOM      3  O   UNL     1      10.005  -3.806  24.484  0.00  0.00    -0.267 OA
ATOM      4  N   UNL     1       8.644  -2.117  25.319  0.00  0.00    -0.264 N 
ATOM      5  C   UNL     1       9.099  -0.972  24.731  0.00  0.00    +0.124 A 
ATOM      6  C   UNL     1       8.530   0.205  25.070  0.00  0.00    +0.088 A 
ATOM      7  N   UNL     1       7.465   0.301  25.952  0.00  0.00    -0.246 NA
ATOM      8  C   UNL     1       7.050  -0.792  26.537  0.00  0.00    +0.089 A 
ATOM      9  C   UNL     1       7.707  -2.114  26.283  0.00  0.00    +0.161 A 
ATOM     10  N   UNL     1       7.433  -3.214  26.897  0.00  0.00    -0.221 NA
ENDROOT
BRANCH   6  11
ATOM     11  C   UNL     1       9.095   1.476  24.531  0.00  0.00    +0.002 A 
ATOM     12  C   UNL     1       8.414   2.684  24.762  0.00  0.00    +0.013 A 
ATOM     13  C   UNL     1       8.939   3.900  24.325  0.00  0.00    +0.046 A 
ATOM     14  C   UNL     1      10.153   3.922  23.646  0.00  0.00    +0.117 A 
ATOM     15  C   UNL     1      10.825   2.739  23.364  0.00  0.00    +0.046 A 
ATOM     16  C   UNL     1      10.292   1.520  23.798  0.00  0.00    +0.013 A 
BRANCH  14  17
ATOM     17  O   UNL     1      10.656   5.132  23.279  0.00  0.00    -0.507 OA
ATOM     18  H   UNL     1       9.958   5.631  22.823  0.00  0.00    +0.292 HD
ENDBRANCH  14  17
ENDBRANCH   6  11
BRANCH   1  19
ATOM     19  O   UNL     1       9.198  -4.915  27.039  0.00  0.00    -0.361 OA
ATOM     20  H   UNL     1       9.919  -4.290  27.247  0.00  0.00    +0.213 HD
ENDBRANCH   1  19
BRANCH   1  21
ATOM     21  C   UNL     1       7.336  -5.196  25.447  0.00  0.00    +0.104 C 
BRANCH  21  25
ATOM     22  C   UNL     1       6.185  -4.408  21.347  0.00  0.00    +0.117 A 
ATOM     23  C   UNL     1       7.140  -5.371  21.639  0.00  0.00    +0.045 A 
ATOM     24  C   UNL     1       7.517  -5.592  22.968  0.00  0.00    +0.007 A 
ATOM     25  C   UNL     1       6.940  -4.854  24.016  0.00  0.00    -0.042 A 
ATOM     26  C   UNL     1       6.003  -3.864  23.687  0.00  0.00    +0.007 A 
ATOM     27  C   UNL     1       5.622  -3.641  22.360  0.00  0.00    +0.045 A 
BRANCH  22  28
ATOM     28  O   UNL     1       5.808  -4.253  20.046  0.00  0.00    -0.507 OA
ATOM     29  H   UNL     1       5.477  -3.347  19.931  0.00  0.00    +0.292 HD
ENDBRANCH  22  28
ENDBRANCH  21  25
ENDBRANCH   1  21
BRANCH   8  30
ATOM     30  C   UNL     1       5.854  -0.795  27.457  0.00  0.00    +0.094 C 
BRANCH  30  31
ATOM     31  C   UNL     1       5.574   0.557  28.056  0.00  0.00    -0.041 A 
ATOM     32  C   UNL     1       6.388   1.075  29.074  0.00  0.00    +0.004 A 
ATOM     33  C   UNL     1       6.139   2.344  29.597  0.00  0.00    +0.000 A 
ATOM     34  C   UNL     1       5.075   3.103  29.110  0.00  0.00    +0.000 A 
ATOM     35  C   UNL     1       4.257   2.592  28.104  0.00  0.00    +0.000 A 
ATOM     36  C   UNL     1       4.507   1.326  27.578  0.00  0.00    +0.004 A 
ENDBRANCH  30  31
ENDBRANCH   8  30
TORSDOF 8
ENDMDL
MODEL 7
REMARK VINA RESULT:      -6.8      3.420      8.080
REMARK  Name = 
REMARK  8 active torsions:
REMARK  status: ('A' for Active; 'I' for Inactive)
REMARK    1  A    between atoms: O_1  and  C_2
REMARK    2  A    between atoms: C_5  and  C_6
REMARK    3  A    between atoms: C_6  and  C_7
REMARK    4  A    between atoms: C_7  and  O_8
REMARK    5  A    between atoms: C_13  and  C_23
REMARK    6  A    between atoms: C_15  and  C_16
REMARK    7  A    between atoms: C_16  and  C_17
REMARK    8  A    between atoms: C_26  and  O_27
REMARK                            x       y       z     vdW  Elec       q    Type
REMARK                         _______ _______ _______ _____ _____    ______ ____
ROOT
ATOM      1  C   UNL     1       7.399   0.671  27.436  0.00  0.00    +0.244 C 
ATOM      2  C   UNL     1       6.117  -0.181  27.234  0.00  0.00    +0.288 C 
ATOM      3  O   UNL     1       5.062  -0.030  27.831  0.00  0.00    -0.267 OA
ATOM      4  N   UNL     1       6.461  -1.144  26.346  0.00  0.00    -0.264 N 
ATOM      5  C   UNL     1       5.732  -2.211  25.905  0.00  0.00    +0.124 A 
ATOM      6  C   UNL     1       6.310  -3.089  25.058  0.00  0.00    +0.088 A 
ATOM      7  N   UNL     1       7.599  -2.930  24.570  0.00  0.00    -0.246 NA
ATOM      8  C   UNL     1       8.305  -1.925  25.016  0.00  0.00    +0.089 A 
ATOM      9  C   UNL     1       7.758  -0.974  26.035  0.00  0.00    +0.161 A 
ATOM     10  N   UNL     1       8.422  -0.027  26.606  0.00  0.00    -0.221 NA
ENDROOT
BRANCH   6  11
ATOM     11  C   UNL     1       5.572  -4.324  24.664  0.00  0.00    +0.002 A 
ATOM     12  C   UNL     1       5.565  -5.428  25.533  0.00  0.00    +0.013 A 
ATOM     13  C   UNL     1       4.838  -6.580  25.227  0.00  0.00    +0.046 A 
ATOM     14  C   UNL     1       4.114  -6.642  24.041  0.00  0.00    +0.117 A 
ATOM     15  C   UNL     1       4.140  -5.583  23.142  0.00  0.00    +0.046 A 
ATOM     16  C   UNL     1       4.875  -4.432  23.450  0.00  0.00    +0.013 A 
BRANCH  14  17
ATOM     17  O   UNL     1       3.379  -7.762  23.802  0.00  0.00    -0.507 OA
ATOM     18  H   UNL     1       3.289  -8.256  24.634  0.00  0.00    +0.292 HD
ENDBRANCH  14  17
ENDBRANCH   6  11
BRANCH   1  19
ATOM     19  O   UNL     1       7.684   0.710  28.828  0.00  0.00    -0.361 OA
ATOM     20  H   UNL     1       7.955   1.624  29.039  0.00  0.00    +0.213 HD
ENDBRANCH   1  19
BRANCH   1  21
ATOM     21  C   UNL     1       7.190   2.086  26.842  0.00  0.00    +0.104 C 
BRANCH  21  25
ATOM     22  C   UNL     1       4.772   2.645  23.292  0.00  0.00    +0.117 A 
ATOM     23  C   UNL     1       4.239   2.874  24.552  0.00  0.00    +0.045 A 
ATOM     24  C   UNL     1       5.028   2.663  25.688  0.00  0.00    +0.007 A 
ATOM     25  C   UNL     1       6.358   2.222  25.572  0.00  0.00    -0.042 A 
ATOM     26  C   UNL     1       6.858   1.965  24.287  0.00  0.00    +0.007 A 
ATOM     27  C   UNL     1       6.073   2.177  23.149  0.00  0.00    +0.045 A 
BRANCH  22  28
ATOM     28  O   UNL     1       3.989   2.906  22.207  0.00  0.00    -0.507 OA
ATOM     29  H   UNL     1       3.756   2.062  21.788  0.00  0.00    +0.292 HD
ENDBRANCH  22  28
ENDBRANCH  21  25
ENDBRANCH   1  21
BRANCH   8  30
ATOM     30  C   UNL     1       9.689  -1.633  24.491  0.00  0.00    +0.094 C 
BRANCH  30  31
ATOM     31  C   UNL     1       9.720  -0.457  23.551  0.00  0.00    -0.041 A 
ATOM     32  C   UNL     1       9.079  -0.516  22.305  0.00  0.00    +0.004 A 
ATOM     33  C   UNL     1       9.085   0.592  21.458  0.00  0.00    +0.000 A 
ATOM     34  C   UNL     1       9.735   1.764  21.846  0.00  0.00    +0.000 A 
ATOM     35  C   UNL     1      10.382   1.827  23.078  0.00  0.00    +0.000 A 
ATOM     36  C   UNL     1      10.373   0.722  23.928  0.00  0.00    +0.004 A 
ENDBRANCH  30  31
ENDBRANCH   8  30
TORSDOF 8
ENDMDL
MODEL 8
REMARK VINA RESULT:      -6.7      2.843      4.701
REMARK  Name = 
REMARK  8 active torsions:
REMARK  status: ('A' for Active; 'I' for Inactive)
REMARK    1  A    between atoms: O_1  and  C_2
REMARK    2  A    between atoms: C_5  and  C_6
REMARK    3  A    between atoms: C_6  and  C_7
REMARK    4  A    between atoms: C_7  and  O_8
REMARK    5  A    between atoms: C_13  and  C_23
REMARK    6  A    between atoms: C_15  and  C_16
REMARK    7  A    between atoms: C_16  and  C_17
REMARK    8  A    between atoms: C_26  and  O_27
REMARK                            x       y       z     vdW  Elec       q    Type
REMARK                         _______ _______ _______ _____ _____    ______ ____
ROOT
ATOM      1  C   UNL     1       4.859  -0.552  26.400  0.00  0.00    +0.244 C 
ATOM      2  C   UNL     1       5.746   0.654  26.810  0.00  0.00    +0.288 C 
ATOM      3  O   UNL     1       5.583   1.352  27.799  0.00  0.00    -0.267 OA
ATOM      4  N   UNL     1       6.646   0.796  25.808  0.00  0.00    -0.264 N 
ATOM      5  C   UNL     1       7.587   1.768  25.624  0.00  0.00    +0.124 A 
ATOM      6  C   UNL     1       8.339   1.744  24.504  0.00  0.00    +0.088 A 
ATOM      7  N   UNL     1       8.237   0.744  23.548  0.00  0.00    -0.246 NA
ATOM      8  C   UNL     1       7.315  -0.168  23.710  0.00  0.00    +0.089 A 
ATOM      9  C   UNL     1       6.380  -0.139  24.879  0.00  0.00    +0.161 A 
ATOM     10  N   UNL     1       5.378  -0.932  25.055  0.00  0.00    -0.221 NA
ENDROOT
BRANCH   6  11
ATOM     11  C   UNL     1       9.285   2.864  24.229  0.00  0.00    +0.002 A 
ATOM     12  C   UNL     1      10.529   2.585  23.638  0.00  0.00    +0.013 A 
ATOM     13  C   UNL     1      11.417   3.611  23.312  0.00  0.00    +0.046 A 
ATOM     14  C   UNL     1      11.071   4.931  23.579  0.00  0.00    +0.117 A 
ATOM     15  C   UNL     1       9.867   5.233  24.203  0.00  0.00    +0.046 A 
ATOM     16  C   UNL     1       8.982   4.201  24.535  0.00  0.00    +0.013 A 
BRANCH  14  17
ATOM     17  O   UNL     1      11.942   5.907  23.202  0.00  0.00    -0.507 OA
ATOM     18  H   UNL     1      12.061   5.859  22.239  0.00  0.00    +0.292 HD
ENDBRANCH  14  17
ENDBRANCH   6  11
BRANCH   1  19
ATOM     19  O   UNL     1       3.504  -0.124  26.418  0.00  0.00    -0.361 OA
ATOM     20  H   UNL     1       3.085  -0.532  27.199  0.00  0.00    +0.213 HD
ENDBRANCH   1  19
BRANCH   1  21
ATOM     21  C   UNL     1       5.109  -1.740  27.360  0.00  0.00    +0.104 C 
BRANCH  21  25
ATOM     22  C   UNL     1       4.801  -5.829  25.964  0.00  0.00    +0.117 A 
ATOM     23  C   UNL     1       5.873  -5.430  26.749  0.00  0.00    +0.045 A 
ATOM     24  C   UNL     1       5.968  -4.099  27.168  0.00  0.00    +0.007 A 
ATOM     25  C   UNL     1       4.990  -3.155  26.807  0.00  0.00    -0.042 A 
ATOM     26  C   UNL     1       3.936  -3.580  25.985  0.00  0.00    +0.007 A 
ATOM     27  C   UNL     1       3.837  -4.911  25.565  0.00  0.00    +0.045 A 
BRANCH  22  28
ATOM     28  O   UNL     1       4.716  -7.144  25.614  0.00  0.00    -0.507 OA
ATOM     29  H   UNL     1       5.510  -7.376  25.107  0.00  0.00    +0.292 HD
ENDBRANCH  22  28
ENDBRANCH  21  25
ENDBRANCH   1  21
BRANCH   8  30
ATOM     30  C   UNL     1       7.175  -1.332  22.760  0.00  0.00    +0.094 C 
BRANCH  30  31
ATOM     31  C   UNL     1       7.662  -2.629  23.349  0.00  0.00    -0.041 A 
ATOM     32  C   UNL     1       7.003  -3.836  23.073  0.00  0.00    +0.004 A 
ATOM     33  C   UNL     1       7.485  -5.036  23.597  0.00  0.00    +0.000 A 
ATOM     34  C   UNL     1       8.624  -5.039  24.402  0.00  0.00    +0.000 A 
ATOM     35  C   UNL     1       9.279  -3.843  24.688  0.00  0.00    +0.000 A 
ATOM     36  C   UNL     1       8.802  -2.643  24.162  0.00  0.00    +0.004 A 
ENDBRANCH  30  31
ENDBRANCH   8  30
TORSDOF 8
ENDMDL
MODEL 9
REMARK VINA RESULT:      -6.6      3.447      8.762
REMARK  Name = 
REMARK  8 active torsions:
REMARK  status: ('A' for Active; 'I' for Inactive)
REMARK    1  A    between atoms: O_1  and  C_2
REMARK    2  A    between atoms: C_5  and  C_6
REMARK    3  A    between atoms: C_6  and  C_7
REMARK    4  A    between atoms: C_7  and  O_8
REMARK    5  A    between atoms: C_13  and  C_23
REMARK    6  A    between atoms: C_15  and  C_16
REMARK    7  A    between atoms: C_16  and  C_17
REMARK    8  A    between atoms: C_26  and  O_27
REMARK                            x       y       z     vdW  Elec       q    Type
REMARK                         _______ _______ _______ _____ _____    ______ ____
ROOT
ATOM      1  C   UNL     1       5.472   1.901  27.080  0.00  0.00    +0.244 C 
ATOM      2  C   UNL     1       4.511   0.790  26.579  0.00  0.00    +0.288 C 
ATOM      3  O   UNL     1       3.299   0.776  26.732  0.00  0.00    -0.267 OA
ATOM      4  N   UNL     1       5.311  -0.161  26.039  0.00  0.00    -0.264 N 
ATOM      5  C   UNL     1       4.979  -1.392  25.550  0.00  0.00    +0.124 A 
ATOM      6  C   UNL     1       5.963  -2.208  25.117  0.00  0.00    +0.088 A 
ATOM      7  N   UNL     1       7.298  -1.835  25.097  0.00  0.00    -0.246 NA
ATOM      8  C   UNL     1       7.618  -0.669  25.593  0.00  0.00    +0.089 A 
ATOM      9  C   UNL     1       6.585   0.241  26.184  0.00  0.00    +0.161 A 
ATOM     10  N   UNL     1       6.828   1.353  26.791  0.00  0.00    -0.221 NA
ENDROOT
BRANCH   6  11
ATOM     11  C   UNL     1       5.631  -3.599  24.694  0.00  0.00    +0.002 A 
ATOM     12  C   UNL     1       5.925  -4.669  25.557  0.00  0.00    +0.013 A 
ATOM     13  C   UNL     1       5.578  -5.979  25.222  0.00  0.00    +0.046 A 
ATOM     14  C   UNL     1       4.934  -6.234  24.016  0.00  0.00    +0.117 A 
ATOM     15  C   UNL     1       4.671  -5.201  23.124  0.00  0.00    +0.046 A 
ATOM     16  C   UNL     1       5.028  -3.890  23.460  0.00  0.00    +0.013 A 
BRANCH  14  17
ATOM     17  O   UNL     1       4.568  -7.517  23.749  0.00  0.00    -0.507 OA
ATOM     18  H   UNL     1       3.668  -7.658  24.087  0.00  0.00    +0.292 HD
ENDBRANCH  14  17
ENDBRANCH   6  11
BRANCH   1  19
ATOM     19  O   UNL     1       5.200   2.128  28.456  0.00  0.00    -0.361 OA
ATOM     20  H   UNL     1       5.628   2.972  28.697  0.00  0.00    +0.213 HD
ENDBRANCH   1  19
BRANCH   1  21
ATOM     21  C   UNL     1       5.285   3.181  26.228  0.00  0.00    +0.104 C 
BRANCH  21  25
ATOM     22  C   UNL     1       8.548   4.750  23.850  0.00  0.00    +0.117 A 
ATOM     23  C   UNL     1       7.469   4.125  23.243  0.00  0.00    +0.045 A 
ATOM     24  C   UNL     1       6.437   3.602  24.030  0.00  0.00    +0.007 A 
ATOM     25  C   UNL     1       6.476   3.701  25.432  0.00  0.00    -0.042 A 
ATOM     26  C   UNL     1       7.596   4.307  26.019  0.00  0.00    +0.007 A 
ATOM     27  C   UNL     1       8.628   4.834  25.235  0.00  0.00    +0.045 A 
BRANCH  22  28
ATOM     28  O   UNL     1       9.510   5.290  23.050  0.00  0.00    -0.507 OA
ATOM     29  H   UNL     1      10.158   4.597  22.843  0.00  0.00    +0.292 HD
ENDBRANCH  22  28
ENDBRANCH  21  25
ENDBRANCH   1  21
BRANCH   8  30
ATOM     30  C   UNL     1       9.034  -0.149  25.551  0.00  0.00    +0.094 C 
BRANCH  30  31
ATOM     31  C   UNL     1       9.353   0.574  24.270  0.00  0.00    -0.041 A 
ATOM     32  C   UNL     1      10.419   1.482  24.205  0.00  0.00    +0.004 A 
ATOM     33  C   UNL     1      10.727   2.120  23.002  0.00  0.00    +0.000 A 
ATOM     34  C   UNL     1       9.971   1.858  21.860  0.00  0.00    +0.000 A 
ATOM     35  C   UNL     1       8.905   0.963  21.919  0.00  0.00    +0.000 A 
ATOM     36  C   UNL     1       8.599   0.322  23.119  0.00  0.00    +0.004 A 
ENDBRANCH  30  31
ENDBRANCH   8  30
TORSDOF 8
ENDMDL
