MODEL 1
REMARK VINA RESULT:      -4.6      0.000      0.000
REMARK  Name = 
REMARK  8 active torsions:
REMARK  status: ('A' for Active; 'I' for Inactive)
REMARK    1  A    between atoms: C_1  and  C_2
REMARK    2  A    between atoms: C_2  and  C_3
REMARK    3  A    between atoms: C_3  and  C_4
REMARK    4  A    between atoms: C_4  and  C_5
REMARK    5  A    between atoms: C_7  and  N_8
REMARK    6  A    between atoms: C_10  and  C_11
REMARK    7  A    between atoms: C_11  and  C_12
REMARK    8  A    between atoms: C_12  and  C_13
REMARK                            x       y       z     vdW  Elec       q    Type
REMARK                         _______ _______ _______ _____ _____    ______ ____
ROOT
ATOM      1  C   UNL     1       9.172  -2.765  23.960  0.00  0.00    +0.000 A 
ATOM      2  C   UNL     1       7.818  -3.078  23.770  0.00  0.00    +0.000 A 
ATOM      3 SE   UNL     1       7.402  -4.756  24.348  0.00  0.00    +0.000 Se
ATOM      4  C   UNL     1       9.147  -4.844  24.808  0.00  0.00    +0.000 A 
ATOM      5  N   UNL     1       9.882  -3.756  24.532  0.00  0.00    +0.000 NA
ENDROOT
BRANCH   4   6
ATOM      6  N   UNL     1       9.706  -5.977  25.439  0.00  0.00    +0.000 N 
ATOM      7  H   UNL     1      10.633  -6.324  25.157  0.00  0.00    +0.000 HD
ATOM      8  H   UNL     1       9.185  -6.472  26.177  0.00  0.00    +0.000 HD
ENDBRANCH   4   6
BRANCH   1   9
ATOM      9  C   UNL     1       9.876  -1.473  23.611  0.00  0.00    +0.000 C 
BRANCH   9  10
ATOM     10  C   UNL     1      10.170  -1.295  22.115  0.00  0.00    +0.000 C 
BRANCH  10  12
ATOM     11  C   UNL     1       9.930   1.214  21.970  0.00  0.00    +0.000 C 
ATOM     12  C   UNL     1       9.382  -0.130  21.498  0.00  0.00    +0.000 C 
ENDBRANCH  10  12
ENDBRANCH   9  10
ENDBRANCH   1   9
BRANCH   2  13
ATOM     13  C   UNL     1       6.720  -2.208  23.197  0.00  0.00    +0.000 C 
BRANCH  13  14
ATOM     14  C   UNL     1       6.137  -1.171  24.166  0.00  0.00    +0.000 C 
ATOM     15  C   UNL     1       6.550   0.257  23.816  0.00  0.00    +0.000 C 
ENDBRANCH  13  14
ENDBRANCH   2  13
TORSDOF 6
ENDMDL
MODEL 2
REMARK VINA RESULT:      -4.5      0.942      1.440
REMARK  Name = 
REMARK  8 active torsions:
REMARK  status: ('A' for Active; 'I' for Inactive)
REMARK    1  A    between atoms: C_1  and  C_2
REMARK    2  A    between atoms: C_2  and  C_3
REMARK    3  A    between atoms: C_3  and  C_4
REMARK    4  A    between atoms: C_4  and  C_5
REMARK    5  A    between atoms: C_7  and  N_8
REMARK    6  A    between atoms: C_10  and  C_11
REMARK    7  A    between atoms: C_11  and  C_12
REMARK    8  A    between atoms: C_12  and  C_13
REMARK                            x       y       z     vdW  Elec       q    Type
REMARK                         _______ _______ _______ _____ _____    ______ ____
ROOT
ATOM      1  C   UNL     1       8.908  -2.762  24.113  0.00  0.00    +0.000 A 
ATOM      2  C   UNL     1       7.580  -3.170  24.307  0.00  0.00    +0.000 A 
ATOM      3 SE   UNL     1       7.462  -4.826  25.059  0.00  0.00    +0.000 Se
ATOM      4  C   UNL     1       9.268  -4.775  25.041  0.00  0.00    +0.000 A 
ATOM      5  N   UNL     1       9.818  -3.665  24.524  0.00  0.00    +0.000 NA
ENDROOT
BRANCH   4   6
ATOM      6  N   UNL     1      10.059  -5.825  25.557  0.00  0.00    +0.000 N 
ATOM      7  H   UNL     1      10.056  -6.749  25.103  0.00  0.00    +0.000 HD
ATOM      8  H   UNL     1      10.635  -5.678  26.399  0.00  0.00    +0.000 HD
ENDBRANCH   4   6
BRANCH   1   9
ATOM      9  C   UNL     1       9.394  -1.456  23.523  0.00  0.00    +0.000 C 
BRANCH   9  10
ATOM     10  C   UNL     1       9.641  -1.498  22.009  0.00  0.00    +0.000 C 
BRANCH  10  12
ATOM     11  C   UNL     1       9.950   1.007  22.078  0.00  0.00    +0.000 C 
ATOM     12  C   UNL     1       9.317  -0.161  21.326  0.00  0.00    +0.000 C 
ENDBRANCH  10  12
ENDBRANCH   9  10
ENDBRANCH   1   9
BRANCH   2  13
ATOM     13  C   UNL     1       6.307  -2.411  24.005  0.00  0.00    +0.000 C 
BRANCH  13  14
ATOM     14  C   UNL     1       5.359  -3.097  23.012  0.00  0.00    +0.000 C 
ATOM     15  C   UNL     1       6.048  -3.461  21.698  0.00  0.00    +0.000 C 
ENDBRANCH  13  14
ENDBRANCH   2  13
TORSDOF 6
ENDMDL
MODEL 3
REMARK VINA RESULT:      -4.3      2.831      4.935
REMARK  Name = 
REMARK  8 active torsions:
REMARK  status: ('A' for Active; 'I' for Inactive)
REMARK    1  A    between atoms: C_1  and  C_2
REMARK    2  A    between atoms: C_2  and  C_3
REMARK    3  A    between atoms: C_3  and  C_4
REMARK    4  A    between atoms: C_4  and  C_5
REMARK    5  A    between atoms: C_7  and  N_8
REMARK    6  A    between atoms: C_10  and  C_11
REMARK    7  A    between atoms: C_11  and  C_12
REMARK    8  A    between atoms: C_12  and  C_13
REMARK                            x       y       z     vdW  Elec       q    Type
REMARK                         _______ _______ _______ _____ _____    ______ ____
ROOT
ATOM      1  C   UNL     1       7.921  -2.983  23.381  0.00  0.00    +0.000 A 
ATOM      2  C   UNL     1       8.548  -2.461  24.523  0.00  0.00    +0.000 A 
ATOM      3 SE   UNL     1       9.772  -1.173  24.118  0.00  0.00    +0.000 Se
ATOM      4  C   UNL     1       9.277  -1.481  22.408  0.00  0.00    +0.000 A 
ATOM      5  N   UNL     1       8.343  -2.428  22.230  0.00  0.00    +0.000 NA
ENDROOT
BRANCH   4   6
ATOM      6  N   UNL     1       9.821  -0.761  21.322  0.00  0.00    +0.000 N 
ATOM      7  H   UNL     1      10.686  -1.082  20.866  0.00  0.00    +0.000 HD
ATOM      8  H   UNL     1       9.364   0.099  20.986  0.00  0.00    +0.000 HD
ENDBRANCH   4   6
BRANCH   1   9
ATOM      9  C   UNL     1       6.855  -4.054  23.325  0.00  0.00    +0.000 C 
BRANCH   9  10
ATOM     10  C   UNL     1       7.389  -5.467  23.049  0.00  0.00    +0.000 C 
BRANCH  10  12
ATOM     11  C   UNL     1       6.210  -5.675  20.827  0.00  0.00    +0.000 C 
ATOM     12  C   UNL     1       6.420  -6.303  22.201  0.00  0.00    +0.000 C 
ENDBRANCH  10  12
ENDBRANCH   9  10
ENDBRANCH   1   9
BRANCH   2  13
ATOM     13  C   UNL     1       8.305  -2.810  25.974  0.00  0.00    +0.000 C 
BRANCH  13  14
ATOM     14  C   UNL     1       8.883  -4.158  26.426  0.00  0.00    +0.000 C 
ATOM     15  C   UNL     1       7.797  -5.161  26.815  0.00  0.00    +0.000 C 
ENDBRANCH  13  14
ENDBRANCH   2  13
TORSDOF 6
ENDMDL
MODEL 4
REMARK VINA RESULT:      -4.3      5.568      7.305
REMARK  Name = 
REMARK  8 active torsions:
REMARK  status: ('A' for Active; 'I' for Inactive)
REMARK    1  A    between atoms: C_1  and  C_2
REMARK    2  A    between atoms: C_2  and  C_3
REMARK    3  A    between atoms: C_3  and  C_4
REMARK    4  A    between atoms: C_4  and  C_5
REMARK    5  A    between atoms: C_7  and  N_8
REMARK    6  A    between atoms: C_10  and  C_11
REMARK    7  A    between atoms: C_11  and  C_12
REMARK    8  A    between atoms: C_12  and  C_13
REMARK                            x       y       z     vdW  Elec       q    Type
REMARK                         _______ _______ _______ _____ _____    ______ ____
ROOT
ATOM      1  C   UNL     1      10.483   3.442  23.474  0.00  0.00    +0.000 A 
ATOM      2  C   UNL     1       9.568   4.455  23.795  0.00  0.00    +0.000 A 
ATOM      3 SE   UNL     1      10.365   6.084  23.975  0.00  0.00    +0.000 Se
ATOM      4  C   UNL     1      11.884   5.195  23.570  0.00  0.00    +0.000 A 
ATOM      5  N   UNL     1      11.753   3.876  23.358  0.00  0.00    +0.000 NA
ENDROOT
BRANCH   4   6
ATOM      6  N   UNL     1      13.134   5.843  23.461  0.00  0.00    +0.000 N 
ATOM      7  H   UNL     1      13.900   5.605  24.106  0.00  0.00    +0.000 HD
ATOM      8  H   UNL     1      13.284   6.569  22.746  0.00  0.00    +0.000 HD
ENDBRANCH   4   6
BRANCH   1   9
ATOM      9  C   UNL     1      10.192   1.976  23.243  0.00  0.00    +0.000 C 
BRANCH   9  10
ATOM     10  C   UNL     1       9.877   1.615  21.784  0.00  0.00    +0.000 C 
BRANCH  10  12
ATOM     11  C   UNL     1      10.134  -0.836  22.335  0.00  0.00    +0.000 C 
ATOM     12  C   UNL     1       9.264   0.213  21.648  0.00  0.00    +0.000 C 
ENDBRANCH  10  12
ENDBRANCH   9  10
ENDBRANCH   1   9
BRANCH   2  13
ATOM     13  C   UNL     1       8.069   4.351  23.967  0.00  0.00    +0.000 C 
BRANCH  13  14
ATOM     14  C   UNL     1       7.259   4.366  22.663  0.00  0.00    +0.000 C 
ATOM     15  C   UNL     1       7.180   5.757  22.038  0.00  0.00    +0.000 C 
ENDBRANCH  13  14
ENDBRANCH   2  13
TORSDOF 6
ENDMDL
MODEL 5
REMARK VINA RESULT:      -4.3      2.368      3.190
REMARK  Name = 
REMARK  8 active torsions:
REMARK  status: ('A' for Active; 'I' for Inactive)
REMARK    1  A    between atoms: C_1  and  C_2
REMARK    2  A    between atoms: C_2  and  C_3
REMARK    3  A    between atoms: C_3  and  C_4
REMARK    4  A    between atoms: C_4  and  C_5
REMARK    5  A    between atoms: C_7  and  N_8
REMARK    6  A    between atoms: C_10  and  C_11
REMARK    7  A    between atoms: C_11  and  C_12
REMARK    8  A    between atoms: C_12  and  C_13
REMARK                            x       y       z     vdW  Elec       q    Type
REMARK                         _______ _______ _______ _____ _____    ______ ____
ROOT
ATOM      1  C   UNL     1       9.412  -1.910  24.215  0.00  0.00    +0.000 A 
ATOM      2  C   UNL     1       8.634  -3.002  24.630  0.00  0.00    +0.000 A 
ATOM      3 SE   UNL     1       7.909  -2.754  26.283  0.00  0.00    +0.000 Se
ATOM      4  C   UNL     1       8.746  -1.154  26.223  0.00  0.00    +0.000 A 
ATOM      5  N   UNL     1       9.459  -0.907  25.112  0.00  0.00    +0.000 NA
ENDROOT
BRANCH   4   6
ATOM      6  N   UNL     1       8.646  -0.208  27.266  0.00  0.00    +0.000 N 
ATOM      7  H   UNL     1       9.336  -0.202  28.030  0.00  0.00    +0.000 HD
ATOM      8  H   UNL     1       7.874   0.474  27.279  0.00  0.00    +0.000 HD
ENDBRANCH   4   6
BRANCH   1   9
ATOM      9  C   UNL     1      10.159  -1.754  22.909  0.00  0.00    +0.000 C 
BRANCH   9  10
ATOM     10  C   UNL     1       9.358  -1.058  21.800  0.00  0.00    +0.000 C 
BRANCH  10  12
ATOM     11  C   UNL     1       8.490   1.309  21.655  0.00  0.00    +0.000 C 
ATOM     12  C   UNL     1       9.733   0.424  21.649  0.00  0.00    +0.000 C 
ENDBRANCH  10  12
ENDBRANCH   9  10
ENDBRANCH   1   9
BRANCH   2  13
ATOM     13  C   UNL     1       8.325  -4.278  23.879  0.00  0.00    +0.000 C 
BRANCH  13  14
ATOM     14  C   UNL     1       7.331  -4.128  22.720  0.00  0.00    +0.000 C 
ATOM     15  C   UNL     1       7.168  -5.418  21.916  0.00  0.00    +0.000 C 
ENDBRANCH  13  14
ENDBRANCH   2  13
TORSDOF 6
ENDMDL
MODEL 6
REMARK VINA RESULT:      -4.1      3.260      4.674
REMARK  Name = 
REMARK  8 active torsions:
REMARK  status: ('A' for Active; 'I' for Inactive)
REMARK    1  A    between atoms: C_1  and  C_2
REMARK    2  A    between atoms: C_2  and  C_3
REMARK    3  A    between atoms: C_3  and  C_4
REMARK    4  A    between atoms: C_4  and  C_5
REMARK    5  A    between atoms: C_7  and  N_8
REMARK    6  A    between atoms: C_10  and  C_11
REMARK    7  A    between atoms: C_11  and  C_12
REMARK    8  A    between atoms: C_12  and  C_13
REMARK                            x       y       z     vdW  Elec       q    Type
REMARK                         _______ _______ _______ _____ _____    ______ ____
ROOT
ATOM      1  C   UNL     1       9.862  -0.792  23.627  0.00  0.00    +0.000 A 
ATOM      2  C   UNL     1       9.465  -0.032  24.738  0.00  0.00    +0.000 A 
ATOM      3 SE   UNL     1       9.435   1.756  24.386  0.00  0.00    +0.000 Se
ATOM      4  C   UNL     1       9.960   1.264  22.729  0.00  0.00    +0.000 A 
ATOM      5  N   UNL     1      10.131  -0.053  22.534  0.00  0.00    +0.000 NA
ENDROOT
BRANCH   4   6
ATOM      6  N   UNL     1      10.162   2.200  21.691  0.00  0.00    +0.000 N 
ATOM      7  H   UNL     1      10.474   1.886  20.762  0.00  0.00    +0.000 HD
ATOM      8  H   UNL     1      10.011   3.205  21.859  0.00  0.00    +0.000 HD
ENDBRANCH   4   6
BRANCH   1   9
ATOM      9  C   UNL     1       9.997  -2.296  23.540  0.00  0.00    +0.000 C 
BRANCH   9  10
ATOM     10  C   UNL     1       8.665  -3.056  23.591  0.00  0.00    +0.000 C 
BRANCH  10  12
ATOM     11  C   UNL     1       6.447  -2.051  22.925  0.00  0.00    +0.000 C 
ATOM     12  C   UNL     1       7.738  -2.690  22.422  0.00  0.00    +0.000 C 
ENDBRANCH  10  12
ENDBRANCH   9  10
ENDBRANCH   1   9
BRANCH   2  13
ATOM     13  C   UNL     1       9.052  -0.515  26.111  0.00  0.00    +0.000 C 
BRANCH  13  14
ATOM     14  C   UNL     1       7.543  -0.487  26.386  0.00  0.00    +0.000 C 
ATOM     15  C   UNL     1       6.964  -1.880  26.627  0.00  0.00    +0.000 C 
ENDBRANCH  13  14
ENDBRANCH   2  13
TORSDOF 6
ENDMDL
MODEL 7
REMARK VINA RESULT:      -4.1      1.932      2.655
REMARK  Name = 
REMARK  8 active torsions:
REMARK  status: ('A' for Active; 'I' for Inactive)
REMARK    1  A    between atoms: C_1  and  C_2
REMARK    2  A    between atoms: C_2  and  C_3
REMARK    3  A    between atoms: C_3  and  C_4
REMARK    4  A    between atoms: C_4  and  C_5
REMARK    5  A    between atoms: C_7  and  N_8
REMARK    6  A    between atoms: C_10  and  C_11
REMARK    7  A    between atoms: C_11  and  C_12
REMARK    8  A    between atoms: C_12  and  C_13
REMARK                            x       y       z     vdW  Elec       q    Type
REMARK                         _______ _______ _______ _____ _____    ______ ____
ROOT
ATOM      1  C   UNL     1       7.819  -3.422  25.077  0.00  0.00    +0.000 A 
ATOM      2  C   UNL     1       6.616  -3.874  24.512  0.00  0.00    +0.000 A 
ATOM      3 SE   UNL     1       5.961  -5.351  25.355  0.00  0.00    +0.000 Se
ATOM      4  C   UNL     1       7.415  -5.180  26.415  0.00  0.00    +0.000 A 
ATOM      5  N   UNL     1       8.237  -4.161  26.122  0.00  0.00    +0.000 NA
ENDROOT
BRANCH   4   6
ATOM      6  N   UNL     1       7.666  -6.049  27.499  0.00  0.00    +0.000 N 
ATOM      7  H   UNL     1       7.655  -7.069  27.360  0.00  0.00    +0.000 HD
ATOM      8  H   UNL     1       7.848  -5.670  28.439  0.00  0.00    +0.000 HD
ENDBRANCH   4   6
BRANCH   1   9
ATOM      9  C   UNL     1       8.646  -2.230  24.651  0.00  0.00    +0.000 C 
BRANCH   9  10
ATOM     10  C   UNL     1       9.849  -2.578  23.763  0.00  0.00    +0.000 C 
BRANCH  10  12
ATOM     11  C   UNL     1       9.257  -1.241  21.704  0.00  0.00    +0.000 C 
ATOM     12  C   UNL     1      10.255  -1.415  22.845  0.00  0.00    +0.000 C 
ENDBRANCH  10  12
ENDBRANCH   9  10
ENDBRANCH   1   9
BRANCH   2  13
ATOM     13  C   UNL     1       5.833  -3.279  23.362  0.00  0.00    +0.000 C 
BRANCH  13  14
ATOM     14  C   UNL     1       6.410  -3.557  21.967  0.00  0.00    +0.000 C 
ATOM     15  C   UNL     1       6.936  -4.984  21.823  0.00  0.00    +0.000 C 
ENDBRANCH  13  14
ENDBRANCH   2  13
TORSDOF 6
ENDMDL
MODEL 8
REMARK VINA RESULT:      -4.0      3.123      4.420
REMARK  Name = 
REMARK  8 active torsions:
REMARK  status: ('A' for Active; 'I' for Inactive)
REMARK    1  A    between atoms: C_1  and  C_2
REMARK    2  A    between atoms: C_2  and  C_3
REMARK    3  A    between atoms: C_3  and  C_4
REMARK    4  A    between atoms: C_4  and  C_5
REMARK    5  A    between atoms: C_7  and  N_8
REMARK    6  A    between atoms: C_10  and  C_11
REMARK    7  A    between atoms: C_11  and  C_12
REMARK    8  A    between atoms: C_12  and  C_13
REMARK                            x       y       z     vdW  Elec       q    Type
REMARK                         _______ _______ _______ _____ _____    ______ ____
ROOT
ATOM      1  C   UNL     1       7.425  -5.120  26.523  0.00  0.00    +0.000 A 
ATOM      2  C   UNL     1       6.374  -5.333  25.619  0.00  0.00    +0.000 A 
ATOM      3 SE   UNL     1       5.098  -6.452  26.285  0.00  0.00    +0.000 Se
ATOM      4  C   UNL     1       6.147  -6.496  27.755  0.00  0.00    +0.000 A 
ATOM      5  N   UNL     1       7.277  -5.774  27.691  0.00  0.00    +0.000 NA
ENDROOT
BRANCH   4   6
ATOM      6  N   UNL     1       5.798  -7.227  28.912  0.00  0.00    +0.000 N 
ATOM      7  H   UNL     1       4.840  -7.585  29.030  0.00  0.00    +0.000 HD
ATOM      8  H   UNL     1       6.494  -7.395  29.652  0.00  0.00    +0.000 HD
ENDBRANCH   4   6
BRANCH   1   9
ATOM      9  C   UNL     1       8.649  -4.254  26.325  0.00  0.00    +0.000 C 
BRANCH   9  10
ATOM     10  C   UNL     1       8.365  -2.746  26.327  0.00  0.00    +0.000 C 
BRANCH  10  12
ATOM     11  C   UNL     1       9.666  -3.019  24.181  0.00  0.00    +0.000 C 
ATOM     12  C   UNL     1       8.865  -2.054  25.049  0.00  0.00    +0.000 C 
ENDBRANCH  10  12
ENDBRANCH   9  10
ENDBRANCH   1   9
BRANCH   2  13
ATOM     13  C   UNL     1       6.181  -4.741  24.241  0.00  0.00    +0.000 C 
BRANCH  13  14
ATOM     14  C   UNL     1       7.110  -5.300  23.155  0.00  0.00    +0.000 C 
ATOM     15  C   UNL     1       6.347  -5.785  21.923  0.00  0.00    +0.000 C 
ENDBRANCH  13  14
ENDBRANCH   2  13
TORSDOF 6
ENDMDL
MODEL 9
REMARK VINA RESULT:      -4.0      1.775      2.792
REMARK  Name = 
REMARK  8 active torsions:
REMARK  status: ('A' for Active; 'I' for Inactive)
REMARK    1  A    between atoms: C_1  and  C_2
REMARK    2  A    between atoms: C_2  and  C_3
REMARK    3  A    between atoms: C_3  and  C_4
REMARK    4  A    between atoms: C_4  and  C_5
REMARK    5  A    between atoms: C_7  and  N_8
REMARK    6  A    between atoms: C_10  and  C_11
REMARK    7  A    between atoms: C_11  and  C_12
REMARK    8  A    between atoms: C_12  and  C_13
REMARK                            x       y       z     vdW  Elec       q    Type
REMARK                         _______ _______ _______ _____ _____    ______ ____
ROOT
ATOM      1  C   UNL     1       8.643  -2.439  25.450  0.00  0.00    +0.000 A 
ATOM      2  C   UNL     1       8.491  -2.975  24.162  0.00  0.00    +0.000 A 
ATOM      3 SE   UNL     1       8.208  -4.775  24.185  0.00  0.00    +0.000 Se
ATOM      4  C   UNL     1       8.315  -4.597  25.980  0.00  0.00    +0.000 A 
ATOM      5  N   UNL     1       8.544  -3.354  26.433  0.00  0.00    +0.000 NA
ENDROOT
BRANCH   4   6
ATOM      6  N   UNL     1       8.148  -5.688  26.860  0.00  0.00    +0.000 N 
ATOM      7  H   UNL     1       7.288  -5.778  27.419  0.00  0.00    +0.000 HD
ATOM      8  H   UNL     1       8.890  -6.395  26.959  0.00  0.00    +0.000 HD
ENDBRANCH   4   6
BRANCH   1   9
ATOM      9  C   UNL     1       8.884  -0.993  25.823  0.00  0.00    +0.000 C 
BRANCH   9  10
ATOM     10  C   UNL     1       7.628  -0.112  25.788  0.00  0.00    +0.000 C 
BRANCH  10  12
ATOM     11  C   UNL     1       8.952   1.746  24.707  0.00  0.00    +0.000 C 
ATOM     12  C   UNL     1       7.670   0.922  24.652  0.00  0.00    +0.000 C 
ENDBRANCH  10  12
ENDBRANCH   9  10
ENDBRANCH   1   9
BRANCH   2  13
ATOM     13  C   UNL     1       8.504  -2.253  22.833  0.00  0.00    +0.000 C 
BRANCH  13  14
ATOM     14  C   UNL     1       9.850  -1.627  22.443  0.00  0.00    +0.000 C 
ATOM     15  C   UNL     1       9.687  -0.321  21.667  0.00  0.00    +0.000 C 
ENDBRANCH  13  14
ENDBRANCH   2  13
TORSDOF 6
ENDMDL
