MODEL 1
REMARK VINA RESULT:      -7.8      0.000      0.000
REMARK  Name = 
REMARK  3 active torsions:
REMARK  status: ('A' for Active; 'I' for Inactive)
REMARK    1  A    between atoms: C_9  and  S_10
REMARK    2  A    between atoms: S_10  and  C_11
REMARK    3  A    between atoms: C_14  and  N_17
REMARK                            x       y       z     vdW  Elec       q    Type
REMARK                         _______ _______ _______ _____ _____    ______ ____
ROOT
ATOM      1  N   UNL     1       3.618  -7.458  26.749  0.00  0.00    -0.327 N 
ATOM      2  H   UNL     1       2.739  -7.494  26.252  0.00  0.00    +0.145 HD
ATOM      3  H   UNL     1       3.603  -7.148  27.708  0.00  0.00    +0.145 HD
ATOM      4  C   UNL     1       4.575  -6.787  26.028  0.00  0.00    +0.215 A 
ATOM      5  N   UNL     1       4.391  -6.690  24.719  0.00  0.00    -0.199 NA
ATOM      6  C   UNL     1       5.329  -6.034  24.024  0.00  0.00    +0.130 A 
ATOM      7  N   UNL     1       5.146  -6.123  22.644  0.00  0.00    -0.342 N 
ATOM      8  H   UNL     1       4.227  -6.514  22.460  0.00  0.00    +0.144 HD
ATOM      9  H   UNL     1       5.324  -5.246  22.168  0.00  0.00    +0.144 HD
ATOM     10  C   UNL     1       6.473  -5.441  24.600  0.00  0.00    +0.054 A 
ATOM     11  C   UNL     1       7.518  -4.688  23.950  0.00  0.00    +0.025 A 
ATOM     12  C   UNL     1       8.648  -4.298  24.683  0.00  0.00    +0.016 A 
ATOM     13  C   UNL     1       8.722  -4.563  26.045  0.00  0.00    +0.003 A 
ATOM     14  C   UNL     1       7.656  -5.194  26.683  0.00  0.00    +0.028 A 
ATOM     15  C   UNL     1       6.546  -5.649  25.985  0.00  0.00    +0.079 A 
ATOM     16  N   UNL     1       5.604  -6.276  26.694  0.00  0.00    -0.215 NA
ENDROOT
BRANCH  11  17
ATOM     17  S   UNL     1       7.283  -4.012  22.291  0.00  0.00    -0.089 S 
BRANCH  17  18
ATOM     18  C   UNL     1       7.710  -2.294  22.405  0.00  0.00    +0.013 A 
ATOM     19  C   UNL     1       8.949  -1.869  21.932  0.00  0.00    +0.017 A 
ATOM     20  C   UNL     1       9.326  -0.524  22.036  0.00  0.00    +0.024 A 
ATOM     21  C   UNL     1       8.492   0.445  22.613  0.00  0.00    +0.030 A 
ATOM     22  C   UNL     1       7.271  -0.022  23.126  0.00  0.00    +0.024 A 
ATOM     23  C   UNL     1       6.881  -1.367  23.028  0.00  0.00    +0.017 A 
BRANCH  21  24
ATOM     24  N   UNL     1       8.855   1.772  22.674  0.00  0.00    -0.326 N 
ATOM     25  C   UNL     1      10.188   2.269  22.292  0.00  0.00    +0.133 C 
ATOM     26  C   UNL     1      10.793   3.066  23.456  0.00  0.00    +0.178 C 
ATOM     27  O   UNL     1       9.925   4.140  23.863  0.00  0.00    -0.377 OA
ATOM     28  C   UNL     1       8.645   3.623  24.267  0.00  0.00    +0.178 C 
ATOM     29  C   UNL     1       7.956   2.842  23.133  0.00  0.00    +0.133 C 
ENDBRANCH  21  24
ENDBRANCH  17  18
ENDBRANCH  11  17
TORSDOF 3
ENDMDL
MODEL 2
REMARK VINA RESULT:      -7.6      1.749      2.856
REMARK  Name = 
REMARK  3 active torsions:
REMARK  status: ('A' for Active; 'I' for Inactive)
REMARK    1  A    between atoms: C_9  and  S_10
REMARK    2  A    between atoms: S_10  and  C_11
REMARK    3  A    between atoms: C_14  and  N_17
REMARK                            x       y       z     vdW  Elec       q    Type
REMARK                         _______ _______ _______ _____ _____    ______ ____
ROOT
ATOM      1  N   UNL     1       5.792  -6.770  29.884  0.00  0.00    -0.327 N 
ATOM      2  H   UNL     1       6.661  -7.095  30.287  0.00  0.00    +0.145 HD
ATOM      3  H   UNL     1       4.985  -7.368  29.965  0.00  0.00    +0.145 HD
ATOM      4  C   UNL     1       5.966  -6.349  28.589  0.00  0.00    +0.215 A 
ATOM      5  N   UNL     1       7.195  -6.013  28.220  0.00  0.00    -0.199 NA
ATOM      6  C   UNL     1       7.355  -5.604  26.956  0.00  0.00    +0.130 A 
ATOM      7  N   UNL     1       8.636  -5.112  26.700  0.00  0.00    -0.342 N 
ATOM      8  H   UNL     1       9.237  -5.343  27.485  0.00  0.00    +0.144 HD
ATOM      9  H   UNL     1       8.998  -5.410  25.801  0.00  0.00    +0.144 HD
ATOM     10  C   UNL     1       6.310  -5.524  26.009  0.00  0.00    +0.054 A 
ATOM     11  C   UNL     1       6.383  -5.132  24.623  0.00  0.00    +0.025 A 
ATOM     12  C   UNL     1       5.201  -4.986  23.882  0.00  0.00    +0.016 A 
ATOM     13  C   UNL     1       3.975  -5.297  24.457  0.00  0.00    +0.003 A 
ATOM     14  C   UNL     1       3.930  -5.781  25.763  0.00  0.00    +0.028 A 
ATOM     15  C   UNL     1       5.068  -5.884  26.549  0.00  0.00    +0.079 A 
ATOM     16  N   UNL     1       4.899  -6.321  27.800  0.00  0.00    -0.215 NA
ENDROOT
BRANCH  11  17
ATOM     17  S   UNL     1       7.965  -5.083  23.751  0.00  0.00    -0.089 S 
BRANCH  17  18
ATOM     18  C   UNL     1       8.379  -3.365  23.597  0.00  0.00    +0.013 A 
ATOM     19  C   UNL     1       7.569  -2.539  22.822  0.00  0.00    +0.017 A 
ATOM     20  C   UNL     1       7.887  -1.184  22.657  0.00  0.00    +0.024 A 
ATOM     21  C   UNL     1       9.018  -0.603  23.251  0.00  0.00    +0.030 A 
ATOM     22  C   UNL     1       9.842  -1.472  23.984  0.00  0.00    +0.024 A 
ATOM     23  C   UNL     1       9.534  -2.831  24.157  0.00  0.00    +0.017 A 
BRANCH  21  24
ATOM     24  N   UNL     1       9.300   0.738  23.115  0.00  0.00    -0.326 N 
ATOM     25  C   UNL     1       9.943   1.545  24.166  0.00  0.00    +0.133 C 
ATOM     26  C   UNL     1       9.069   2.766  24.483  0.00  0.00    +0.178 C 
ATOM     27  O   UNL     1       8.810   3.547  23.302  0.00  0.00    -0.377 OA
ATOM     28  C   UNL     1       8.148   2.746  22.307  0.00  0.00    +0.178 C 
ATOM     29  C   UNL     1       8.986   1.518  21.908  0.00  0.00    +0.133 C 
ENDBRANCH  21  24
ENDBRANCH  17  18
ENDBRANCH  11  17
TORSDOF 3
ENDMDL
MODEL 3
REMARK VINA RESULT:      -7.5      1.358      2.467
REMARK  Name = 
REMARK  3 active torsions:
REMARK  status: ('A' for Active; 'I' for Inactive)
REMARK    1  A    between atoms: C_9  and  S_10
REMARK    2  A    between atoms: S_10  and  C_11
REMARK    3  A    between atoms: C_14  and  N_17
REMARK                            x       y       z     vdW  Elec       q    Type
REMARK                         _______ _______ _______ _____ _____    ______ ____
ROOT
ATOM      1  N   UNL     1       3.503  -7.576  26.183  0.00  0.00    -0.327 N 
ATOM      2  H   UNL     1       3.725  -7.806  27.142  0.00  0.00    +0.145 HD
ATOM      3  H   UNL     1       3.217  -8.326  25.575  0.00  0.00    +0.145 HD
ATOM      4  C   UNL     1       4.496  -6.823  25.606  0.00  0.00    +0.215 A 
ATOM      5  N   UNL     1       5.310  -6.165  26.419  0.00  0.00    -0.199 NA
ATOM      6  C   UNL     1       6.275  -5.434  25.847  0.00  0.00    +0.130 A 
ATOM      7  N   UNL     1       6.975  -4.646  26.761  0.00  0.00    -0.342 N 
ATOM      8  H   UNL     1       6.726  -4.936  27.702  0.00  0.00    +0.144 HD
ATOM      9  H   UNL     1       7.974  -4.635  26.584  0.00  0.00    +0.144 HD
ATOM     10  C   UNL     1       6.476  -5.338  24.453  0.00  0.00    +0.054 A 
ATOM     11  C   UNL     1       7.499  -4.612  23.742  0.00  0.00    +0.025 A 
ATOM     12  C   UNL     1       7.444  -4.531  22.343  0.00  0.00    +0.016 A 
ATOM     13  C   UNL     1       6.459  -5.215  21.643  0.00  0.00    +0.003 A 
ATOM     14  C   UNL     1       5.543  -6.004  22.336  0.00  0.00    +0.028 A 
ATOM     15  C   UNL     1       5.525  -6.064  23.722  0.00  0.00    +0.079 A 
ATOM     16  N   UNL     1       4.575  -6.819  24.280  0.00  0.00    -0.215 NA
ENDROOT
BRANCH  11  17
ATOM     17  S   UNL     1       8.987  -4.031  24.587  0.00  0.00    -0.089 S 
BRANCH  17  18
ATOM     18  C   UNL     1       9.127  -2.308  24.189  0.00  0.00    +0.013 A 
ATOM     19  C   UNL     1       8.235  -1.404  24.761  0.00  0.00    +0.017 A 
ATOM     20  C   UNL     1       8.302  -0.041  24.442  0.00  0.00    +0.024 A 
ATOM     21  C   UNL     1       9.252   0.472  23.546  0.00  0.00    +0.030 A 
ATOM     22  C   UNL     1      10.104  -0.470  22.948  0.00  0.00    +0.024 A 
ATOM     23  C   UNL     1      10.048  -1.838  23.259  0.00  0.00    +0.017 A 
BRANCH  21  24
ATOM     24  N   UNL     1       9.335   1.818  23.270  0.00  0.00    -0.326 N 
ATOM     25  C   UNL     1      10.471   2.437  22.565  0.00  0.00    +0.133 C 
ATOM     26  C   UNL     1      11.046   3.576  23.416  0.00  0.00    +0.178 C 
ATOM     27  O   UNL     1      10.035   4.548  23.743  0.00  0.00    -0.377 OA
ATOM     28  C   UNL     1       8.957   3.926  24.464  0.00  0.00    +0.178 C 
ATOM     29  C   UNL     1       8.302   2.793  23.653  0.00  0.00    +0.133 C 
ENDBRANCH  21  24
ENDBRANCH  17  18
ENDBRANCH  11  17
TORSDOF 3
ENDMDL
MODEL 4
REMARK VINA RESULT:      -7.3      3.427      8.806
REMARK  Name = 
REMARK  3 active torsions:
REMARK  status: ('A' for Active; 'I' for Inactive)
REMARK    1  A    between atoms: C_9  and  S_10
REMARK    2  A    between atoms: S_10  and  C_11
REMARK    3  A    between atoms: C_14  and  N_17
REMARK                            x       y       z     vdW  Elec       q    Type
REMARK                         _______ _______ _______ _____ _____    ______ ____
ROOT
ATOM      1  N   UNL     1       8.943   6.632  25.906  0.00  0.00    -0.327 N 
ATOM      2  H   UNL     1       9.866   6.693  26.316  0.00  0.00    +0.145 HD
ATOM      3  H   UNL     1       8.152   6.648  26.528  0.00  0.00    +0.145 HD
ATOM      4  C   UNL     1       8.855   5.586  25.021  0.00  0.00    +0.215 A 
ATOM      5  N   UNL     1       9.989   5.124  24.512  0.00  0.00    -0.199 NA
ATOM      6  C   UNL     1       9.893   4.104  23.651  0.00  0.00    +0.130 A 
ATOM      7  N   UNL     1      11.108   3.792  23.038  0.00  0.00    -0.342 N 
ATOM      8  H   UNL     1      11.853   4.288  23.518  0.00  0.00    +0.144 HD
ATOM      9  H   UNL     1      11.261   2.793  22.959  0.00  0.00    +0.144 HD
ATOM     10  C   UNL     1       8.676   3.497  23.272  0.00  0.00    +0.054 A 
ATOM     11  C   UNL     1       8.468   2.379  22.385  0.00  0.00    +0.025 A 
ATOM     12  C   UNL     1       7.162   2.012  22.029  0.00  0.00    +0.016 A 
ATOM     13  C   UNL     1       6.075   2.668  22.592  0.00  0.00    +0.003 A 
ATOM     14  C   UNL     1       6.289   3.674  23.532  0.00  0.00    +0.028 A 
ATOM     15  C   UNL     1       7.563   4.108  23.868  0.00  0.00    +0.079 A 
ATOM     16  N   UNL     1       7.647   5.107  24.750  0.00  0.00    -0.215 NA
ENDROOT
BRANCH  11  17
ATOM     17  S   UNL     1       9.832   1.281  21.936  0.00  0.00    -0.089 S 
BRANCH  17  18
ATOM     18  C   UNL     1       9.479  -0.272  22.716  0.00  0.00    +0.013 A 
ATOM     19  C   UNL     1       8.908  -1.296  21.963  0.00  0.00    +0.017 A 
ATOM     20  C   UNL     1       8.591  -2.524  22.559  0.00  0.00    +0.024 A 
ATOM     21  C   UNL     1       8.824  -2.779  23.919  0.00  0.00    +0.030 A 
ATOM     22  C   UNL     1       9.352  -1.711  24.662  0.00  0.00    +0.024 A 
ATOM     23  C   UNL     1       9.676  -0.476  24.078  0.00  0.00    +0.017 A 
BRANCH  21  24
ATOM     24  N   UNL     1       8.545  -4.002  24.485  0.00  0.00    -0.326 N 
ATOM     25  C   UNL     1       7.521  -4.925  23.967  0.00  0.00    +0.133 C 
ATOM     26  C   UNL     1       6.536  -5.283  25.088  0.00  0.00    +0.178 C 
ATOM     27  O   UNL     1       7.218  -5.838  26.228  0.00  0.00    -0.377 OA
ATOM     28  C   UNL     1       8.185  -4.902  26.737  0.00  0.00    +0.178 C 
ATOM     29  C   UNL     1       9.234  -4.524  25.676  0.00  0.00    +0.133 C 
ENDBRANCH  21  24
ENDBRANCH  17  18
ENDBRANCH  11  17
TORSDOF 3
ENDMDL
MODEL 5
REMARK VINA RESULT:      -7.2      1.710      2.389
REMARK  Name = 
REMARK  3 active torsions:
REMARK  status: ('A' for Active; 'I' for Inactive)
REMARK    1  A    between atoms: C_9  and  S_10
REMARK    2  A    between atoms: S_10  and  C_11
REMARK    3  A    between atoms: C_14  and  N_17
REMARK                            x       y       z     vdW  Elec       q    Type
REMARK                         _______ _______ _______ _____ _____    ______ ____
ROOT
ATOM      1  N   UNL     1       1.354  -5.429  23.062  0.00  0.00    -0.327 N 
ATOM      2  H   UNL     1       1.305  -5.389  22.053  0.00  0.00    +0.145 HD
ATOM      3  H   UNL     1       0.777  -4.791  23.586  0.00  0.00    +0.145 HD
ATOM      4  C   UNL     1       2.654  -5.394  23.503  0.00  0.00    +0.215 A 
ATOM      5  N   UNL     1       3.597  -5.749  22.641  0.00  0.00    -0.199 NA
ATOM      6  C   UNL     1       4.861  -5.711  23.080  0.00  0.00    +0.130 A 
ATOM      7  N   UNL     1       5.769  -6.257  22.171  0.00  0.00    -0.342 N 
ATOM      8  H   UNL     1       5.298  -6.398  21.283  0.00  0.00    +0.144 HD
ATOM      9  H   UNL     1       6.626  -5.718  22.103  0.00  0.00    +0.144 HD
ATOM     10  C   UNL     1       5.238  -5.311  24.380  0.00  0.00    +0.054 A 
ATOM     11  C   UNL     1       6.564  -5.204  24.937  0.00  0.00    +0.025 A 
ATOM     12  C   UNL     1       6.721  -4.918  26.301  0.00  0.00    +0.016 A 
ATOM     13  C   UNL     1       5.608  -4.659  27.092  0.00  0.00    +0.003 A 
ATOM     14  C   UNL     1       4.339  -4.658  26.515  0.00  0.00    +0.028 A 
ATOM     15  C   UNL     1       4.135  -4.993  25.185  0.00  0.00    +0.079 A 
ATOM     16  N   UNL     1       2.872  -4.999  24.752  0.00  0.00    -0.215 NA
ENDROOT
BRANCH  11  17
ATOM     17  S   UNL     1       8.022  -5.166  23.870  0.00  0.00    -0.089 S 
BRANCH  17  18
ATOM     18  C   UNL     1       8.389  -3.450  23.614  0.00  0.00    +0.013 A 
ATOM     19  C   UNL     1       9.491  -2.888  24.254  0.00  0.00    +0.017 A 
ATOM     20  C   UNL     1       9.790  -1.528  24.095  0.00  0.00    +0.024 A 
ATOM     21  C   UNL     1       9.006  -0.679  23.299  0.00  0.00    +0.030 A 
ATOM     22  C   UNL     1       7.874  -1.262  22.708  0.00  0.00    +0.024 A 
ATOM     23  C   UNL     1       7.564  -2.623  22.859  0.00  0.00    +0.017 A 
BRANCH  21  24
ATOM     24  N   UNL     1       9.330   0.647  23.118  0.00  0.00    -0.326 N 
ATOM     25  C   UNL     1       9.967   1.479  24.152  0.00  0.00    +0.133 C 
ATOM     26  C   UNL     1       9.121   2.735  24.395  0.00  0.00    +0.178 C 
ATOM     27  O   UNL     1       8.917   3.474  23.177  0.00  0.00    -0.377 OA
ATOM     28  C   UNL     1       8.259   2.651  22.197  0.00  0.00    +0.178 C 
ATOM     29  C   UNL     1       9.071   1.384  21.871  0.00  0.00    +0.133 C 
ENDBRANCH  21  24
ENDBRANCH  17  18
ENDBRANCH  11  17
TORSDOF 3
ENDMDL
MODEL 6
REMARK VINA RESULT:      -7.1      3.318      8.507
REMARK  Name = 
REMARK  3 active torsions:
REMARK  status: ('A' for Active; 'I' for Inactive)
REMARK    1  A    between atoms: C_9  and  S_10
REMARK    2  A    between atoms: S_10  and  C_11
REMARK    3  A    between atoms: C_14  and  N_17
REMARK                            x       y       z     vdW  Elec       q    Type
REMARK                         _______ _______ _______ _____ _____    ______ ____
ROOT
ATOM      1  N   UNL     1       7.433   4.072  21.849  0.00  0.00    -0.327 N 
ATOM      2  H   UNL     1       6.769   4.576  22.421  0.00  0.00    +0.145 HD
ATOM      3  H   UNL     1       7.177   3.877  20.895  0.00  0.00    +0.145 HD
ATOM      4  C   UNL     1       7.882   2.939  22.482  0.00  0.00    +0.215 A 
ATOM      5  N   UNL     1       7.766   2.895  23.802  0.00  0.00    -0.199 NA
ATOM      6  C   UNL     1       8.207   1.786  24.410  0.00  0.00    +0.130 A 
ATOM      7  N   UNL     1       8.204   1.891  25.802  0.00  0.00    -0.342 N 
ATOM      8  H   UNL     1       7.688   2.725  26.066  0.00  0.00    +0.144 HD
ATOM      9  H   UNL     1       7.881   1.044  26.257  0.00  0.00    +0.144 HD
ATOM     10  C   UNL     1       8.764   0.679  23.734  0.00  0.00    +0.054 A 
ATOM     11  C   UNL     1       9.232  -0.568  24.289  0.00  0.00    +0.025 A 
ATOM     12  C   UNL     1       9.883  -1.492  23.459  0.00  0.00    +0.016 A 
ATOM     13  C   UNL     1      10.001  -1.245  22.096  0.00  0.00    +0.003 A 
ATOM     14  C   UNL     1       9.445  -0.087  21.556  0.00  0.00    +0.028 A 
ATOM     15  C   UNL     1       8.846   0.881  22.349  0.00  0.00    +0.079 A 
ATOM     16  N   UNL     1       8.386   1.969  21.728  0.00  0.00    -0.215 NA
ENDROOT
BRANCH  11  17
ATOM     17  S   UNL     1       8.769  -1.077  25.959  0.00  0.00    -0.089 S 
BRANCH  17  18
ATOM     18  C   UNL     1       7.736  -2.505  25.760  0.00  0.00    +0.013 A 
ATOM     19  C   UNL     1       8.073  -3.684  26.420  0.00  0.00    +0.017 A 
ATOM     20  C   UNL     1       7.293  -4.837  26.259  0.00  0.00    +0.024 A 
ATOM     21  C   UNL     1       6.156  -4.863  25.436  0.00  0.00    +0.030 A 
ATOM     22  C   UNL     1       5.872  -3.675  24.744  0.00  0.00    +0.024 A 
ATOM     23  C   UNL     1       6.644  -2.512  24.898  0.00  0.00    +0.017 A 
BRANCH  21  24
ATOM     24  N   UNL     1       5.374  -5.989  25.315  0.00  0.00    -0.326 N 
ATOM     25  C   UNL     1       4.950  -6.551  24.022  0.00  0.00    +0.133 C 
ATOM     26  C   UNL     1       3.421  -6.683  23.995  0.00  0.00    +0.178 C 
ATOM     27  O   UNL     1       2.945  -7.477  25.097  0.00  0.00    -0.377 OA
ATOM     28  C   UNL     1       3.340  -6.887  26.348  0.00  0.00    +0.178 C 
ATOM     29  C   UNL     1       4.870  -6.757  26.464  0.00  0.00    +0.133 C 
ENDBRANCH  21  24
ENDBRANCH  17  18
ENDBRANCH  11  17
TORSDOF 3
ENDMDL
MODEL 7
REMARK VINA RESULT:      -6.9      1.958      3.104
REMARK  Name = 
REMARK  3 active torsions:
REMARK  status: ('A' for Active; 'I' for Inactive)
REMARK    1  A    between atoms: C_9  and  S_10
REMARK    2  A    between atoms: S_10  and  C_11
REMARK    3  A    between atoms: C_14  and  N_17
REMARK                            x       y       z     vdW  Elec       q    Type
REMARK                         _______ _______ _______ _____ _____    ______ ____
ROOT
ATOM      1  N   UNL     1       6.430  -6.393  28.198  0.00  0.00    -0.327 N 
ATOM      2  H   UNL     1       7.127  -6.387  28.931  0.00  0.00    +0.145 HD
ATOM      3  H   UNL     1       6.060  -7.285  27.910  0.00  0.00    +0.145 HD
ATOM      4  C   UNL     1       6.834  -5.653  27.115  0.00  0.00    +0.215 A 
ATOM      5  N   UNL     1       7.771  -4.738  27.321  0.00  0.00    -0.199 NA
ATOM      6  C   UNL     1       8.158  -4.021  26.259  0.00  0.00    +0.130 A 
ATOM      7  N   UNL     1       9.018  -2.973  26.593  0.00  0.00    -0.342 N 
ATOM      8  H   UNL     1       9.319  -3.092  27.555  0.00  0.00    +0.144 HD
ATOM      9  H   UNL     1       9.780  -2.867  25.932  0.00  0.00    +0.144 HD
ATOM     10  C   UNL     1       7.643  -4.192  24.955  0.00  0.00    +0.054 A 
ATOM     11  C   UNL     1       8.015  -3.500  23.745  0.00  0.00    +0.025 A 
ATOM     12  C   UNL     1       7.283  -3.720  22.570  0.00  0.00    +0.016 A 
ATOM     13  C   UNL     1       6.260  -4.660  22.551  0.00  0.00    +0.003 A 
ATOM     14  C   UNL     1       5.984  -5.401  23.699  0.00  0.00    +0.028 A 
ATOM     15  C   UNL     1       6.644  -5.173  24.897  0.00  0.00    +0.079 A 
ATOM     16  N   UNL     1       6.268  -5.914  25.943  0.00  0.00    -0.215 NA
ENDROOT
BRANCH  11  17
ATOM     17  S   UNL     1       9.557  -2.563  23.644  0.00  0.00    -0.089 S 
BRANCH  17  18
ATOM     18  C   UNL     1       9.086  -0.854  23.663  0.00  0.00    +0.013 A 
ATOM     19  C   UNL     1       9.340  -0.092  24.801  0.00  0.00    +0.017 A 
ATOM     20  C   UNL     1       8.953   1.254  24.857  0.00  0.00    +0.024 A 
ATOM     21  C   UNL     1       8.300   1.889  23.790  0.00  0.00    +0.030 A 
ATOM     22  C   UNL     1       8.012   1.083  22.677  0.00  0.00    +0.024 A 
ATOM     23  C   UNL     1       8.396  -0.267  22.608  0.00  0.00    +0.017 A 
BRANCH  21  24
ATOM     24  N   UNL     1       7.959   3.222  23.839  0.00  0.00    -0.326 N 
ATOM     25  C   UNL     1       6.821   3.800  23.104  0.00  0.00    +0.133 C 
ATOM     26  C   UNL     1       7.309   4.967  22.236  0.00  0.00    +0.178 C 
ATOM     27  O   UNL     1       7.985   5.962  23.027  0.00  0.00    -0.377 OA
ATOM     28  C   UNL     1       9.113   5.381  23.704  0.00  0.00    +0.178 C 
ATOM     29  C   UNL     1       8.696   4.222  24.628  0.00  0.00    +0.133 C 
ENDBRANCH  21  24
ENDBRANCH  17  18
ENDBRANCH  11  17
TORSDOF 3
ENDMDL
MODEL 8
REMARK VINA RESULT:      -6.8      2.706      3.400
REMARK  Name = 
REMARK  3 active torsions:
REMARK  status: ('A' for Active; 'I' for Inactive)
REMARK    1  A    between atoms: C_9  and  S_10
REMARK    2  A    between atoms: S_10  and  C_11
REMARK    3  A    between atoms: C_14  and  N_17
REMARK                            x       y       z     vdW  Elec       q    Type
REMARK                         _______ _______ _______ _____ _____    ______ ____
ROOT
ATOM      1  N   UNL     1       6.268  -5.762  20.869  0.00  0.00    -0.327 N 
ATOM      2  H   UNL     1       5.396  -5.444  20.469  0.00  0.00    +0.145 HD
ATOM      3  H   UNL     1       6.358  -6.744  21.077  0.00  0.00    +0.145 HD
ATOM      4  C   UNL     1       6.638  -4.994  21.945  0.00  0.00    +0.215 A 
ATOM      5  N   UNL     1       6.116  -3.778  22.030  0.00  0.00    -0.199 NA
ATOM      6  C   UNL     1       6.482  -3.036  23.082  0.00  0.00    +0.130 A 
ATOM      7  N   UNL     1       6.023  -1.720  23.007  0.00  0.00    -0.342 N 
ATOM      8  H   UNL     1       5.345  -1.653  22.254  0.00  0.00    +0.144 HD
ATOM      9  H   UNL     1       5.687  -1.371  23.898  0.00  0.00    +0.144 HD
ATOM     10  C   UNL     1       7.367  -3.473  24.092  0.00  0.00    +0.054 A 
ATOM     11  C   UNL     1       7.796  -2.769  25.276  0.00  0.00    +0.025 A 
ATOM     12  C   UNL     1       8.793  -3.327  26.089  0.00  0.00    +0.016 A 
ATOM     13  C   UNL     1       9.304  -4.587  25.801  0.00  0.00    +0.003 A 
ATOM     14  C   UNL     1       8.801  -5.303  24.716  0.00  0.00    +0.028 A 
ATOM     15  C   UNL     1       7.858  -4.765  23.853  0.00  0.00    +0.079 A 
ATOM     16  N   UNL     1       7.480  -5.525  22.823  0.00  0.00    -0.215 NA
ENDROOT
BRANCH  11  17
ATOM     17  S   UNL     1       6.897  -1.322  25.876  0.00  0.00    -0.089 S 
BRANCH  17  18
ATOM     18  C   UNL     1       7.751   0.086  25.216  0.00  0.00    +0.013 A 
ATOM     19  C   UNL     1       7.018   1.205  24.830  0.00  0.00    +0.017 A 
ATOM     20  C   UNL     1       7.662   2.321  24.278  0.00  0.00    +0.024 A 
ATOM     21  C   UNL     1       9.052   2.364  24.088  0.00  0.00    +0.030 A 
ATOM     22  C   UNL     1       9.757   1.203  24.440  0.00  0.00    +0.024 A 
ATOM     23  C   UNL     1       9.124   0.078  24.994  0.00  0.00    +0.017 A 
BRANCH  21  24
ATOM     24  N   UNL     1       9.679   3.480  23.581  0.00  0.00    -0.326 N 
ATOM     25  C   UNL     1      10.989   3.443  22.909  0.00  0.00    +0.133 C 
ATOM     26  C   UNL     1      11.948   4.423  23.597  0.00  0.00    +0.178 C 
ATOM     27  O   UNL     1      11.406   5.756  23.623  0.00  0.00    -0.377 OA
ATOM     28  C   UNL     1      10.146   5.771  24.318  0.00  0.00    +0.178 C 
ATOM     29  C   UNL     1       9.115   4.837  23.660  0.00  0.00    +0.133 C 
ENDBRANCH  21  24
ENDBRANCH  17  18
ENDBRANCH  11  17
TORSDOF 3
ENDMDL
MODEL 9
REMARK VINA RESULT:      -6.7      3.660      8.640
REMARK  Name = 
REMARK  3 active torsions:
REMARK  status: ('A' for Active; 'I' for Inactive)
REMARK    1  A    between atoms: C_9  and  S_10
REMARK    2  A    between atoms: S_10  and  C_11
REMARK    3  A    between atoms: C_14  and  N_17
REMARK                            x       y       z     vdW  Elec       q    Type
REMARK                         _______ _______ _______ _____ _____    ______ ____
ROOT
ATOM      1  N   UNL     1      10.876   3.349  22.633  0.00  0.00    -0.327 N 
ATOM      2  H   UNL     1      11.568   3.173  21.918  0.00  0.00    +0.145 HD
ATOM      3  H   UNL     1      11.170   3.844  23.459  0.00  0.00    +0.145 HD
ATOM      4  C   UNL     1      10.191   2.205  22.960  0.00  0.00    +0.215 A 
ATOM      5  N   UNL     1      10.191   1.222  22.071  0.00  0.00    -0.199 NA
ATOM      6  C   UNL     1       9.521   0.110  22.399  0.00  0.00    +0.130 A 
ATOM      7  N   UNL     1       9.430  -0.802  21.346  0.00  0.00    -0.342 N 
ATOM      8  H   UNL     1      10.058  -0.508  20.604  0.00  0.00    +0.144 HD
ATOM      9  H   UNL     1       9.566  -1.761  21.646  0.00  0.00    +0.144 HD
ATOM     10  C   UNL     1       8.838  -0.073  23.621  0.00  0.00    +0.054 A 
ATOM     11  C   UNL     1       8.120  -1.236  24.082  0.00  0.00    +0.025 A 
ATOM     12  C   UNL     1       7.390  -1.169  25.278  0.00  0.00    +0.016 A 
ATOM     13  C   UNL     1       7.426  -0.016  26.053  0.00  0.00    +0.003 A 
ATOM     14  C   UNL     1       8.212   1.061  25.650  0.00  0.00    +0.028 A 
ATOM     15  C   UNL     1       8.903   1.058  24.447  0.00  0.00    +0.079 A 
ATOM     16  N   UNL     1       9.591   2.162  24.144  0.00  0.00    -0.215 NA
ENDROOT
BRANCH  11  17
ATOM     17  S   UNL     1       8.355  -2.847  23.299  0.00  0.00    -0.089 S 
BRANCH  17  18
ATOM     18  C   UNL     1       6.821  -3.712  23.503  0.00  0.00    +0.013 A 
ATOM     19  C   UNL     1       6.776  -4.828  24.336  0.00  0.00    +0.017 A 
ATOM     20  C   UNL     1       5.585  -5.549  24.494  0.00  0.00    +0.024 A 
ATOM     21  C   UNL     1       4.400  -5.193  23.831  0.00  0.00    +0.030 A 
ATOM     22  C   UNL     1       4.490  -4.096  22.960  0.00  0.00    +0.024 A 
ATOM     23  C   UNL     1       5.677  -3.364  22.793  0.00  0.00    +0.017 A 
BRANCH  21  24
ATOM     24  N   UNL     1       3.226  -5.885  24.023  0.00  0.00    -0.326 N 
ATOM     25  C   UNL     1       3.023  -6.860  25.109  0.00  0.00    +0.133 C 
ATOM     26  C   UNL     1       2.569  -8.201  24.518  0.00  0.00    +0.178 C 
ATOM     27  O   UNL     1       1.382  -8.046  23.719  0.00  0.00    -0.377 OA
ATOM     28  C   UNL     1       1.618  -7.119  22.644  0.00  0.00    +0.178 C 
ATOM     29  C   UNL     1       2.041  -5.733  23.164  0.00  0.00    +0.133 C 
ENDBRANCH  21  24
ENDBRANCH  17  18
ENDBRANCH  11  17
TORSDOF 3
ENDMDL
