MODEL 1
REMARK VINA RESULT:      -7.1      0.000      0.000
REMARK  Name = 
REMARK  14 active torsions:
REMARK  status: ('A' for Active; 'I' for Inactive)
REMARK    1  A    between atoms: C_2  and  C_3
REMARK    2  A    between atoms: C_2  and  N_7
REMARK    3  A    between atoms: C_2  and  C_31
REMARK    4  A    between atoms: C_3  and  C_4
REMARK    5  A    between atoms: C_4  and  O_5
REMARK    6  A    between atoms: C_8  and  C_10
REMARK    7  A    between atoms: C_13  and  C_14
REMARK    8  A    between atoms: C_14  and  N_15
REMARK    9  A    between atoms: N_15  and  S_16
REMARK   10  A    between atoms: S_16  and  C_19
REMARK   11  A    between atoms: C_21  and  C_22
REMARK   12  A    between atoms: C_22  and  O_23
REMARK   13  A    between atoms: C_25  and  O_26
REMARK   14  A    between atoms: C_31  and  C_32
REMARK                            x       y       z     vdW  Elec       q    Type
REMARK                         _______ _______ _______ _____ _____    ______ ____
ROOT
ATOM      1  C   UNL     1       9.630  -1.854  23.673  0.00  0.00    +0.037 A 
ATOM      2  C   UNL     1       9.425  -1.580  22.314  0.00  0.00    +0.013 A 
ATOM      3  C   UNL     1       9.658  -0.301  21.798  0.00  0.00    +0.006 A 
ATOM      4  C   UNL     1      10.106   0.738  22.627  0.00  0.00    -0.032 A 
ATOM      5  C   UNL     1      10.352   0.451  23.977  0.00  0.00    +0.006 A 
ATOM      6  C   UNL     1      10.129  -0.833  24.494  0.00  0.00    +0.013 A 
ENDROOT
BRANCH   1   9
ATOM      7  N   UNL     1       7.917  -3.516  24.299  0.00  0.00    -0.301 N 
ATOM      8  H   UNL     1       7.232  -2.879  23.921  0.00  0.00    +0.150 HD
ATOM      9  C   UNL     1       9.257  -3.219  24.168  0.00  0.00    +0.245 C 
ATOM     10  O   UNL     1      10.129  -4.042  24.432  0.00  0.00    -0.270 OA
BRANCH   7  11
ATOM     11  C   UNL     1       7.459  -4.864  24.663  0.00  0.00    +0.150 C 
BRANCH  11  12
ATOM     12  C   UNL     1       6.596  -5.402  23.513  0.00  0.00    +0.151 C 
ATOM     13  O   UNL     1       5.552  -6.025  23.742  0.00  0.00    -0.296 OA
ATOM     14  C   UNL     1       7.095  -5.235  22.098  0.00  0.00    +0.088 C 
ENDBRANCH  11  12
BRANCH  11  15
ATOM     15  C   UNL     1       6.719  -4.877  25.998  0.00  0.00    +0.150 C 
BRANCH  15  16
ATOM     16  C   UNL     1       7.601  -5.360  27.111  0.00  0.00    +0.307 C 
ATOM     17  O   UNL     1       7.183  -6.022  28.050  0.00  0.00    -0.251 OA
BRANCH  16  18
ATOM     18  O   UNL     1       8.895  -5.006  26.983  0.00  0.00    -0.481 OA
ATOM     19  H   UNL     1       9.098  -4.454  26.201  0.00  0.00    +0.295 HD
ENDBRANCH  16  18
ENDBRANCH  15  16
ENDBRANCH  11  15
ENDBRANCH   7  11
ENDBRANCH   1   9
BRANCH   4  20
ATOM     20  C   UNL     1      10.198   2.143  22.067  0.00  0.00    +0.141 C 
BRANCH  20  21
ATOM     21  N   UNL     1       9.492   3.147  22.866  0.00  0.00    -0.186 NA
ATOM     22  H   UNL     1       9.862   4.097  22.830  0.00  0.00    +0.148 HD
BRANCH  21  23
ATOM     23  S   UNL     1       7.815   3.153  22.761  0.00  0.00    +0.059 S 
ATOM     24  O   UNL     1       7.442   2.577  21.487  0.00  0.00    -0.153 OA
ATOM     25  O   UNL     1       7.386   4.477  23.158  0.00  0.00    -0.153 OA
BRANCH  23  26
ATOM     26  C   UNL     1       7.317   2.040  24.052  0.00  0.00    +0.106 A 
ATOM     27  C   UNL     1       7.586   2.349  25.390  0.00  0.00    +0.032 A 
ATOM     28  C   UNL     1       7.240   1.441  26.394  0.00  0.00    +0.048 A 
ATOM     29  C   UNL     1       6.627   0.238  26.049  0.00  0.00    +0.131 A 
ATOM     30  C   UNL     1       6.363  -0.083  24.713  0.00  0.00    +0.102 A 
ATOM     31  C   UNL     1       6.707   0.828  23.706  0.00  0.00    +0.047 A 
BRANCH  29  32
ATOM     32  O   UNL     1       6.308  -0.639  27.048  0.00  0.00    -0.506 OA
ATOM     33  H   UNL     1       5.478  -0.308  27.451  0.00  0.00    +0.292 HD
ENDBRANCH  29  32
BRANCH  30  34
ATOM     34  C   UNL     1       5.695  -1.343  24.309  0.00  0.00    +0.340 C 
ATOM     35  O   UNL     1       4.947  -1.949  25.059  0.00  0.00    -0.245 OA
BRANCH  34  36
ATOM     36  O   UNL     1       5.958  -1.738  23.046  0.00  0.00    -0.477 OA
ATOM     37  H   UNL     1       5.851  -2.706  22.909  0.00  0.00    +0.295 HD
ENDBRANCH  34  36
ENDBRANCH  30  34
ENDBRANCH  23  26
ENDBRANCH  21  23
ENDBRANCH  20  21
ENDBRANCH   4  20
TORSDOF 13
ENDMDL
MODEL 2
REMARK VINA RESULT:      -6.9      2.861      8.180
REMARK  Name = 
REMARK  14 active torsions:
REMARK  status: ('A' for Active; 'I' for Inactive)
REMARK    1  A    between atoms: C_2  and  C_3
REMARK    2  A    between atoms: C_2  and  N_7
REMARK    3  A    between atoms: C_2  and  C_31
REMARK    4  A    between atoms: C_3  and  C_4
REMARK    5  A    between atoms: C_4  and  O_5
REMARK    6  A    between atoms: C_8  and  C_10
REMARK    7  A    between atoms: C_13  and  C_14
REMARK    8  A    between atoms: C_14  and  N_15
REMARK    9  A    between atoms: N_15  and  S_16
REMARK   10  A    between atoms: S_16  and  C_19
REMARK   11  A    between atoms: C_21  and  C_22
REMARK   12  A    between atoms: C_22  and  O_23
REMARK   13  A    between atoms: C_25  and  O_26
REMARK   14  A    between atoms: C_31  and  C_32
REMARK                            x       y       z     vdW  Elec       q    Type
REMARK                         _______ _______ _______ _____ _____    ______ ____
ROOT
ATOM      1  C   UNL     1      10.397   2.267  23.323  0.00  0.00    +0.037 A 
ATOM      2  C   UNL     1       9.977   1.748  22.090  0.00  0.00    +0.013 A 
ATOM      3  C   UNL     1       9.802   0.372  21.914  0.00  0.00    +0.006 A 
ATOM      4  C   UNL     1      10.040  -0.524  22.967  0.00  0.00    -0.032 A 
ATOM      5  C   UNL     1      10.419  -0.001  24.210  0.00  0.00    +0.006 A 
ATOM      6  C   UNL     1      10.584   1.380  24.392  0.00  0.00    +0.013 A 
ENDROOT
BRANCH   1   9
ATOM      7  N   UNL     1       9.581   4.584  23.552  0.00  0.00    -0.301 N 
ATOM      8  H   UNL     1       8.675   4.193  23.758  0.00  0.00    +0.150 HD
ATOM      9  C   UNL     1      10.662   3.740  23.401  0.00  0.00    +0.245 C 
ATOM     10  O   UNL     1      11.811   4.167  23.345  0.00  0.00    -0.270 OA
BRANCH   7  11
ATOM     11  C   UNL     1       9.756   6.029  23.756  0.00  0.00    +0.150 C 
BRANCH  11  12
ATOM     12  C   UNL     1      10.075   6.268  25.239  0.00  0.00    +0.151 C 
ATOM     13  O   UNL     1       9.276   5.930  26.121  0.00  0.00    -0.296 OA
ATOM     14  C   UNL     1      11.344   7.004  25.594  0.00  0.00    +0.088 C 
ENDBRANCH  11  12
BRANCH  11  15
ATOM     15  C   UNL     1       8.540   6.825  23.290  0.00  0.00    +0.150 C 
BRANCH  15  16
ATOM     16  C   UNL     1       7.525   5.941  22.628  0.00  0.00    +0.307 C 
ATOM     17  O   UNL     1       6.744   5.242  23.256  0.00  0.00    -0.251 OA
BRANCH  16  18
ATOM     18  O   UNL     1       7.545   5.989  21.281  0.00  0.00    -0.481 OA
ATOM     19  H   UNL     1       6.902   6.606  20.879  0.00  0.00    +0.295 HD
ENDBRANCH  16  18
ENDBRANCH  15  16
ENDBRANCH  11  15
ENDBRANCH   7  11
ENDBRANCH   1   9
BRANCH   4  20
ATOM     20  C   UNL     1       9.992  -2.013  22.695  0.00  0.00    +0.141 C 
BRANCH  20  21
ATOM     21  N   UNL     1       8.722  -2.643  23.064  0.00  0.00    -0.186 NA
ATOM     22  H   UNL     1       8.245  -3.167  22.330  0.00  0.00    +0.148 HD
BRANCH  21  23
ATOM     23  S   UNL     1       8.689  -3.484  24.518  0.00  0.00    +0.059 S 
ATOM     24  O   UNL     1       8.285  -2.565  25.561  0.00  0.00    -0.153 OA
ATOM     25  O   UNL     1       9.930  -4.225  24.590  0.00  0.00    -0.153 OA
BRANCH  23  26
ATOM     26  C   UNL     1       7.391  -4.672  24.279  0.00  0.00    +0.106 A 
ATOM     27  C   UNL     1       7.025  -5.061  22.986  0.00  0.00    +0.032 A 
ATOM     28  C   UNL     1       5.965  -5.954  22.805  0.00  0.00    +0.048 A 
ATOM     29  C   UNL     1       5.288  -6.448  23.918  0.00  0.00    +0.131 A 
ATOM     30  C   UNL     1       5.642  -6.056  25.214  0.00  0.00    +0.102 A 
ATOM     31  C   UNL     1       6.705  -5.164  25.396  0.00  0.00    +0.047 A 
BRANCH  29  32
ATOM     32  O   UNL     1       4.247  -7.312  23.716  0.00  0.00    -0.506 OA
ATOM     33  H   UNL     1       3.908  -7.130  22.815  0.00  0.00    +0.292 HD
ENDBRANCH  29  32
BRANCH  30  34
ATOM     34  C   UNL     1       4.957  -6.576  26.423  0.00  0.00    +0.340 C 
ATOM     35  O   UNL     1       3.748  -6.738  26.464  0.00  0.00    -0.245 OA
BRANCH  34  36
ATOM     36  O   UNL     1       5.782  -6.880  27.447  0.00  0.00    -0.477 OA
ATOM     37  H   UNL     1       5.596  -6.364  28.263  0.00  0.00    +0.295 HD
ENDBRANCH  34  36
ENDBRANCH  30  34
ENDBRANCH  23  26
ENDBRANCH  21  23
ENDBRANCH  20  21
ENDBRANCH   4  20
TORSDOF 13
ENDMDL
MODEL 3
REMARK VINA RESULT:      -6.9      3.024      7.158
REMARK  Name = 
REMARK  14 active torsions:
REMARK  status: ('A' for Active; 'I' for Inactive)
REMARK    1  A    between atoms: C_2  and  C_3
REMARK    2  A    between atoms: C_2  and  N_7
REMARK    3  A    between atoms: C_2  and  C_31
REMARK    4  A    between atoms: C_3  and  C_4
REMARK    5  A    between atoms: C_4  and  O_5
REMARK    6  A    between atoms: C_8  and  C_10
REMARK    7  A    between atoms: C_13  and  C_14
REMARK    8  A    between atoms: C_14  and  N_15
REMARK    9  A    between atoms: N_15  and  S_16
REMARK   10  A    between atoms: S_16  and  C_19
REMARK   11  A    between atoms: C_21  and  C_22
REMARK   12  A    between atoms: C_22  and  O_23
REMARK   13  A    between atoms: C_25  and  O_26
REMARK   14  A    between atoms: C_31  and  C_32
REMARK                            x       y       z     vdW  Elec       q    Type
REMARK                         _______ _______ _______ _____ _____    ______ ____
ROOT
ATOM      1  C   UNL     1       8.927  -3.127  24.929  0.00  0.00    +0.037 A 
ATOM      2  C   UNL     1       8.096  -2.571  25.912  0.00  0.00    +0.013 A 
ATOM      3  C   UNL     1       7.435  -3.385  26.837  0.00  0.00    +0.006 A 
ATOM      4  C   UNL     1       7.590  -4.779  26.807  0.00  0.00    -0.032 A 
ATOM      5  C   UNL     1       8.453  -5.330  25.851  0.00  0.00    +0.006 A 
ATOM      6  C   UNL     1       9.125  -4.514  24.929  0.00  0.00    +0.013 A 
ENDROOT
BRANCH   1   9
ATOM      7  N   UNL     1       9.085  -0.886  23.909  0.00  0.00    -0.301 N 
ATOM      8  H   UNL     1       8.516  -0.552  24.672  0.00  0.00    +0.150 HD
ATOM      9  C   UNL     1       9.514  -2.196  23.911  0.00  0.00    +0.245 C 
ATOM     10  O   UNL     1      10.360  -2.599  23.119  0.00  0.00    -0.270 OA
BRANCH   7  11
ATOM     11  C   UNL     1       9.692   0.121  23.027  0.00  0.00    +0.150 C 
BRANCH  11  12
ATOM     12  C   UNL     1      10.537   1.067  23.892  0.00  0.00    +0.151 C 
ATOM     13  O   UNL     1      11.101   0.657  24.914  0.00  0.00    -0.296 OA
ATOM     14  C   UNL     1      10.593   2.528  23.518  0.00  0.00    +0.088 C 
ENDBRANCH  11  12
BRANCH  11  15
ATOM     15  C   UNL     1       8.645   0.869  22.205  0.00  0.00    +0.150 C 
BRANCH  15  16
ATOM     16  C   UNL     1       7.312   0.883  22.894  0.00  0.00    +0.307 C 
ATOM     17  O   UNL     1       6.969   1.772  23.658  0.00  0.00    -0.251 OA
BRANCH  16  18
ATOM     18  O   UNL     1       6.523  -0.168  22.593  0.00  0.00    -0.481 OA
ATOM     19  H   UNL     1       6.754  -1.003  23.048  0.00  0.00    +0.295 HD
ENDBRANCH  16  18
ENDBRANCH  15  16
ENDBRANCH  11  15
ENDBRANCH   7  11
ENDBRANCH   1   9
BRANCH   4  20
ATOM     20  C   UNL     1       6.740  -5.637  27.722  0.00  0.00    +0.141 C 
BRANCH  20  21
ATOM     21  N   UNL     1       5.954  -6.654  27.020  0.00  0.00    -0.186 NA
ATOM     22  H   UNL     1       5.912  -7.576  27.455  0.00  0.00    +0.148 HD
BRANCH  21  23
ATOM     23  S   UNL     1       4.439  -6.187  26.462  0.00  0.00    +0.059 S 
ATOM     24  O   UNL     1       3.830  -5.343  27.469  0.00  0.00    -0.153 OA
ATOM     25  O   UNL     1       3.794  -7.387  25.977  0.00  0.00    -0.153 OA
BRANCH  23  26
ATOM     26  C   UNL     1       4.812  -5.189  25.041  0.00  0.00    +0.106 A 
ATOM     27  C   UNL     1       4.429  -3.844  25.007  0.00  0.00    +0.032 A 
ATOM     28  C   UNL     1       4.678  -3.082  23.862  0.00  0.00    +0.048 A 
ATOM     29  C   UNL     1       5.309  -3.672  22.769  0.00  0.00    +0.131 A 
ATOM     30  C   UNL     1       5.687  -5.020  22.792  0.00  0.00    +0.102 A 
ATOM     31  C   UNL     1       5.440  -5.783  23.940  0.00  0.00    +0.047 A 
BRANCH  29  32
ATOM     32  O   UNL     1       5.532  -2.909  21.656  0.00  0.00    -0.506 OA
ATOM     33  H   UNL     1       5.853  -2.041  21.977  0.00  0.00    +0.292 HD
ENDBRANCH  29  32
BRANCH  30  34
ATOM     34  C   UNL     1       6.378  -5.677  21.657  0.00  0.00    +0.340 C 
ATOM     35  O   UNL     1       5.957  -5.606  20.513  0.00  0.00    -0.245 OA
BRANCH  34  36
ATOM     36  O   UNL     1       7.514  -6.324  21.990  0.00  0.00    -0.477 OA
ATOM     37  H   UNL     1       7.702  -6.310  22.955  0.00  0.00    +0.295 HD
ENDBRANCH  34  36
ENDBRANCH  30  34
ENDBRANCH  23  26
ENDBRANCH  21  23
ENDBRANCH  20  21
ENDBRANCH   4  20
TORSDOF 13
ENDMDL
MODEL 4
REMARK VINA RESULT:      -6.9      1.033      2.034
REMARK  Name = 
REMARK  14 active torsions:
REMARK  status: ('A' for Active; 'I' for Inactive)
REMARK    1  A    between atoms: C_2  and  C_3
REMARK    2  A    between atoms: C_2  and  N_7
REMARK    3  A    between atoms: C_2  and  C_31
REMARK    4  A    between atoms: C_3  and  C_4
REMARK    5  A    between atoms: C_4  and  O_5
REMARK    6  A    between atoms: C_8  and  C_10
REMARK    7  A    between atoms: C_13  and  C_14
REMARK    8  A    between atoms: C_14  and  N_15
REMARK    9  A    between atoms: N_15  and  S_16
REMARK   10  A    between atoms: S_16  and  C_19
REMARK   11  A    between atoms: C_21  and  C_22
REMARK   12  A    between atoms: C_22  and  O_23
REMARK   13  A    between atoms: C_25  and  O_26
REMARK   14  A    between atoms: C_31  and  C_32
REMARK                            x       y       z     vdW  Elec       q    Type
REMARK                         _______ _______ _______ _____ _____    ______ ____
ROOT
ATOM      1  C   UNL     1       9.456  -2.084  23.639  0.00  0.00    +0.037 A 
ATOM      2  C   UNL     1       9.278  -1.784  22.281  0.00  0.00    +0.013 A 
ATOM      3  C   UNL     1       9.556  -0.506  21.787  0.00  0.00    +0.006 A 
ATOM      4  C   UNL     1      10.022   0.508  22.637  0.00  0.00    -0.032 A 
ATOM      5  C   UNL     1      10.239   0.195  23.986  0.00  0.00    +0.006 A 
ATOM      6  C   UNL     1       9.972  -1.089  24.481  0.00  0.00    +0.013 A 
ENDROOT
BRANCH   1   9
ATOM      7  N   UNL     1       7.698  -3.770  24.033  0.00  0.00    -0.301 N 
ATOM      8  H   UNL     1       7.070  -3.161  23.532  0.00  0.00    +0.150 HD
ATOM      9  C   UNL     1       9.036  -3.444  24.109  0.00  0.00    +0.245 C 
ATOM     10  O   UNL     1       9.871  -4.238  24.532  0.00  0.00    -0.270 OA
BRANCH   7  11
ATOM     11  C   UNL     1       7.216  -5.120  24.359  0.00  0.00    +0.150 C 
BRANCH  11  12
ATOM     12  C   UNL     1       6.406  -5.640  23.163  0.00  0.00    +0.151 C 
ATOM     13  O   UNL     1       5.252  -6.060  23.315  0.00  0.00    -0.296 OA
ATOM     14  C   UNL     1       7.078  -5.712  21.814  0.00  0.00    +0.088 C 
ENDBRANCH  11  12
BRANCH  11  15
ATOM     15  C   UNL     1       6.412  -5.143  25.657  0.00  0.00    +0.150 C 
BRANCH  15  16
ATOM     16  C   UNL     1       7.297  -5.367  26.848  0.00  0.00    +0.307 C 
ATOM     17  O   UNL     1       6.945  -5.124  27.992  0.00  0.00    -0.251 OA
BRANCH  16  18
ATOM     18  O   UNL     1       8.514  -5.864  26.546  0.00  0.00    -0.481 OA
ATOM     19  H   UNL     1       8.509  -6.630  25.938  0.00  0.00    +0.295 HD
ENDBRANCH  16  18
ENDBRANCH  15  16
ENDBRANCH  11  15
ENDBRANCH   7  11
ENDBRANCH   1   9
BRANCH   4  20
ATOM     20  C   UNL     1      10.163   1.917  22.099  0.00  0.00    +0.141 C 
BRANCH  20  21
ATOM     21  N   UNL     1       8.897   2.521  21.679  0.00  0.00    -0.186 NA
ATOM     22  H   UNL     1       8.246   1.911  21.182  0.00  0.00    +0.148 HD
BRANCH  21  23
ATOM     23  S   UNL     1       8.090   3.456  22.818  0.00  0.00    +0.059 S 
ATOM     24  O   UNL     1       7.007   4.145  22.149  0.00  0.00    -0.153 OA
ATOM     25  O   UNL     1       9.109   4.168  23.558  0.00  0.00    -0.153 OA
BRANCH  23  26
ATOM     26  C   UNL     1       7.395   2.252  23.922  0.00  0.00    +0.106 A 
ATOM     27  C   UNL     1       6.646   1.184  23.416  0.00  0.00    +0.032 A 
ATOM     28  C   UNL     1       6.056   0.272  24.296  0.00  0.00    +0.048 A 
ATOM     29  C   UNL     1       6.225   0.438  25.669  0.00  0.00    +0.131 A 
ATOM     30  C   UNL     1       6.964   1.508  26.184  0.00  0.00    +0.102 A 
ATOM     31  C   UNL     1       7.558   2.421  25.303  0.00  0.00    +0.047 A 
BRANCH  29  32
ATOM     32  O   UNL     1       5.629  -0.461  26.511  0.00  0.00    -0.506 OA
ATOM     33  H   UNL     1       6.131  -1.298  26.421  0.00  0.00    +0.292 HD
ENDBRANCH  29  32
BRANCH  30  34
ATOM     34  C   UNL     1       7.182   1.706  27.637  0.00  0.00    +0.340 C 
ATOM     35  O   UNL     1       6.811   2.713  28.217  0.00  0.00    -0.245 OA
BRANCH  34  36
ATOM     36  O   UNL     1       7.789   0.672  28.258  0.00  0.00    -0.477 OA
ATOM     37  H   UNL     1       8.414   0.954  28.962  0.00  0.00    +0.295 HD
ENDBRANCH  34  36
ENDBRANCH  30  34
ENDBRANCH  23  26
ENDBRANCH  21  23
ENDBRANCH  20  21
ENDBRANCH   4  20
TORSDOF 13
ENDMDL
MODEL 5
REMARK VINA RESULT:      -6.8      2.657      7.314
REMARK  Name = 
REMARK  14 active torsions:
REMARK  status: ('A' for Active; 'I' for Inactive)
REMARK    1  A    between atoms: C_2  and  C_3
REMARK    2  A    between atoms: C_2  and  N_7
REMARK    3  A    between atoms: C_2  and  C_31
REMARK    4  A    between atoms: C_3  and  C_4
REMARK    5  A    between atoms: C_4  and  O_5
REMARK    6  A    between atoms: C_8  and  C_10
REMARK    7  A    between atoms: C_13  and  C_14
REMARK    8  A    between atoms: C_14  and  N_15
REMARK    9  A    between atoms: N_15  and  S_16
REMARK   10  A    between atoms: S_16  and  C_19
REMARK   11  A    between atoms: C_21  and  C_22
REMARK   12  A    between atoms: C_22  and  O_23
REMARK   13  A    between atoms: C_25  and  O_26
REMARK   14  A    between atoms: C_31  and  C_32
REMARK                            x       y       z     vdW  Elec       q    Type
REMARK                         _______ _______ _______ _____ _____    ______ ____
ROOT
ATOM      1  C   UNL     1      10.492   2.251  23.181  0.00  0.00    +0.037 A 
ATOM      2  C   UNL     1      10.825   1.393  24.239  0.00  0.00    +0.013 A 
ATOM      3  C   UNL     1      10.633   0.012  24.129  0.00  0.00    +0.006 A 
ATOM      4  C   UNL     1      10.107  -0.549  22.957  0.00  0.00    -0.032 A 
ATOM      5  C   UNL     1       9.814   0.304  21.885  0.00  0.00    +0.006 A 
ATOM      6  C   UNL     1      10.016   1.688  21.989  0.00  0.00    +0.013 A 
ENDROOT
BRANCH   1   9
ATOM      7  N   UNL     1       9.475   4.461  23.593  0.00  0.00    -0.301 N 
ATOM      8  H   UNL     1       8.597   3.980  23.713  0.00  0.00    +0.150 HD
ATOM      9  C   UNL     1      10.628   3.725  23.415  0.00  0.00    +0.245 C 
ATOM     10  O   UNL     1      11.739   4.246  23.459  0.00  0.00    -0.270 OA
BRANCH   7  11
ATOM     11  C   UNL     1       9.519   5.887  23.946  0.00  0.00    +0.150 C 
BRANCH  11  12
ATOM     12  C   UNL     1       9.402   6.006  25.472  0.00  0.00    +0.151 C 
ATOM     13  O   UNL     1       8.610   5.296  26.103  0.00  0.00    -0.296 OA
ATOM     14  C   UNL     1      10.207   7.071  26.175  0.00  0.00    +0.088 C 
ENDBRANCH  11  12
BRANCH  11  15
ATOM     15  C   UNL     1       8.445   6.691  23.217  0.00  0.00    +0.150 C 
BRANCH  15  16
ATOM     16  C   UNL     1       7.290   5.824  22.812  0.00  0.00    +0.307 C 
ATOM     17  O   UNL     1       6.370   5.546  23.567  0.00  0.00    -0.251 OA
BRANCH  16  18
ATOM     18  O   UNL     1       7.351   5.381  21.540  0.00  0.00    -0.481 OA
ATOM     19  H   UNL     1       6.489   5.317  21.081  0.00  0.00    +0.295 HD
ENDBRANCH  16  18
ENDBRANCH  15  16
ENDBRANCH  11  15
ENDBRANCH   7  11
ENDBRANCH   1   9
BRANCH   4  20
ATOM     20  C   UNL     1       9.769  -2.026  22.931  0.00  0.00    +0.141 C 
BRANCH  20  21
ATOM     21  N   UNL     1       9.198  -2.525  24.184  0.00  0.00    -0.186 NA
ATOM     22  H   UNL     1       9.677  -2.250  25.042  0.00  0.00    +0.148 HD
BRANCH  21  23
ATOM     23  S   UNL     1       7.532  -2.396  24.361  0.00  0.00    +0.059 S 
ATOM     24  O   UNL     1       7.147  -3.133  25.545  0.00  0.00    -0.153 OA
ATOM     25  O   UNL     1       6.960  -2.680  23.063  0.00  0.00    -0.153 OA
BRANCH  23  26
ATOM     26  C   UNL     1       7.283  -0.665  24.668  0.00  0.00    +0.106 A 
ATOM     27  C   UNL     1       7.532  -0.133  25.938  0.00  0.00    +0.032 A 
ATOM     28  C   UNL     1       7.280   1.219  26.185  0.00  0.00    +0.048 A 
ATOM     29  C   UNL     1       6.787   2.023  25.159  0.00  0.00    +0.131 A 
ATOM     30  C   UNL     1       6.528   1.497  23.888  0.00  0.00    +0.102 A 
ATOM     31  C   UNL     1       6.782   0.143  23.639  0.00  0.00    +0.047 A 
BRANCH  29  32
ATOM     32  O   UNL     1       6.539   3.341  25.427  0.00  0.00    -0.506 OA
ATOM     33  H   UNL     1       6.020   3.684  24.671  0.00  0.00    +0.292 HD
ENDBRANCH  29  32
BRANCH  30  34
ATOM     34  C   UNL     1       6.022   2.326  22.767  0.00  0.00    +0.340 C 
ATOM     35  O   UNL     1       6.686   2.532  21.764  0.00  0.00    -0.245 OA
BRANCH  34  36
ATOM     36  O   UNL     1       4.769   2.797  22.939  0.00  0.00    -0.477 OA
ATOM     37  H   UNL     1       4.422   2.659  23.848  0.00  0.00    +0.295 HD
ENDBRANCH  34  36
ENDBRANCH  30  34
ENDBRANCH  23  26
ENDBRANCH  21  23
ENDBRANCH  20  21
ENDBRANCH   4  20
TORSDOF 13
ENDMDL
MODEL 6
REMARK VINA RESULT:      -6.6      2.838      7.194
REMARK  Name = 
REMARK  14 active torsions:
REMARK  status: ('A' for Active; 'I' for Inactive)
REMARK    1  A    between atoms: C_2  and  C_3
REMARK    2  A    between atoms: C_2  and  N_7
REMARK    3  A    between atoms: C_2  and  C_31
REMARK    4  A    between atoms: C_3  and  C_4
REMARK    5  A    between atoms: C_4  and  O_5
REMARK    6  A    between atoms: C_8  and  C_10
REMARK    7  A    between atoms: C_13  and  C_14
REMARK    8  A    between atoms: C_14  and  N_15
REMARK    9  A    between atoms: N_15  and  S_16
REMARK   10  A    between atoms: S_16  and  C_19
REMARK   11  A    between atoms: C_21  and  C_22
REMARK   12  A    between atoms: C_22  and  O_23
REMARK   13  A    between atoms: C_25  and  O_26
REMARK   14  A    between atoms: C_31  and  C_32
REMARK                            x       y       z     vdW  Elec       q    Type
REMARK                         _______ _______ _______ _____ _____    ______ ____
ROOT
ATOM      1  C   UNL     1       6.640  -1.727  25.553  0.00  0.00    +0.037 A 
ATOM      2  C   UNL     1       6.171  -1.959  24.253  0.00  0.00    +0.013 A 
ATOM      3  C   UNL     1       4.951  -2.606  24.035  0.00  0.00    +0.006 A 
ATOM      4  C   UNL     1       4.164  -3.037  25.112  0.00  0.00    -0.032 A 
ATOM      5  C   UNL     1       4.613  -2.767  26.412  0.00  0.00    +0.006 A 
ATOM      6  C   UNL     1       5.831  -2.109  26.632  0.00  0.00    +0.013 A 
ENDROOT
BRANCH   1   9
ATOM      7  N   UNL     1       8.461  -0.302  24.692  0.00  0.00    -0.301 N 
ATOM      8  H   UNL     1       7.822  -0.008  23.968  0.00  0.00    +0.150 HD
ATOM      9  C   UNL     1       8.004  -1.123  25.701  0.00  0.00    +0.245 C 
ATOM     10  O   UNL     1       8.676  -1.351  26.702  0.00  0.00    -0.270 OA
BRANCH   7  11
ATOM     11  C   UNL     1       9.732   0.425  24.808  0.00  0.00    +0.150 C 
BRANCH  11  12
ATOM     12  C   UNL     1       9.462   1.910  24.524  0.00  0.00    +0.151 C 
ATOM     13  O   UNL     1       8.535   2.503  25.088  0.00  0.00    -0.296 OA
ATOM     14  C   UNL     1      10.294   2.606  23.475  0.00  0.00    +0.088 C 
ENDBRANCH  11  12
BRANCH  11  15
ATOM     15  C   UNL     1      10.809  -0.153  23.893  0.00  0.00    +0.150 C 
BRANCH  15  16
ATOM     16  C   UNL     1      10.229  -1.125  22.909  0.00  0.00    +0.307 C 
ATOM     17  O   UNL     1       9.737  -0.780  21.845  0.00  0.00    -0.251 OA
BRANCH  16  18
ATOM     18  O   UNL     1      10.304  -2.414  23.297  0.00  0.00    -0.481 OA
ATOM     19  H   UNL     1       9.448  -2.827  23.531  0.00  0.00    +0.295 HD
ENDBRANCH  16  18
ENDBRANCH  15  16
ENDBRANCH  11  15
ENDBRANCH   7  11
ENDBRANCH   1   9
BRANCH   4  20
ATOM     20  C   UNL     1       2.928  -3.870  24.839  0.00  0.00    +0.141 C 
BRANCH  20  21
ATOM     21  N   UNL     1       3.086  -5.290  25.160  0.00  0.00    -0.186 NA
ATOM     22  H   UNL     1       2.268  -5.761  25.548  0.00  0.00    +0.148 HD
BRANCH  21  23
ATOM     23  S   UNL     1       3.837  -6.248  24.002  0.00  0.00    +0.059 S 
ATOM     24  O   UNL     1       3.364  -5.831  22.699  0.00  0.00    -0.153 OA
ATOM     25  O   UNL     1       3.713  -7.615  24.460  0.00  0.00    -0.153 OA
BRANCH  23  26
ATOM     26  C   UNL     1       5.550  -5.807  24.149  0.00  0.00    +0.106 A 
ATOM     27  C   UNL     1       6.337  -5.654  23.002  0.00  0.00    +0.032 A 
ATOM     28  C   UNL     1       7.698  -5.361  23.129  0.00  0.00    +0.048 A 
ATOM     29  C   UNL     1       8.253  -5.222  24.399  0.00  0.00    +0.131 A 
ATOM     30  C   UNL     1       7.475  -5.383  25.551  0.00  0.00    +0.102 A 
ATOM     31  C   UNL     1       6.111  -5.674  25.425  0.00  0.00    +0.047 A 
BRANCH  29  32
ATOM     32  O   UNL     1       9.589  -4.946  24.499  0.00  0.00    -0.506 OA
ATOM     33  H   UNL     1       9.978  -5.658  25.048  0.00  0.00    +0.292 HD
ENDBRANCH  29  32
BRANCH  30  34
ATOM     34  C   UNL     1       8.026  -5.223  26.919  0.00  0.00    +0.340 C 
ATOM     35  O   UNL     1       7.625  -5.887  27.861  0.00  0.00    -0.245 OA
BRANCH  34  36
ATOM     36  O   UNL     1       9.020  -4.316  27.020  0.00  0.00    -0.477 OA
ATOM     37  H   UNL     1       9.510  -4.178  26.179  0.00  0.00    +0.295 HD
ENDBRANCH  34  36
ENDBRANCH  30  34
ENDBRANCH  23  26
ENDBRANCH  21  23
ENDBRANCH  20  21
ENDBRANCH   4  20
TORSDOF 13
ENDMDL
MODEL 7
REMARK VINA RESULT:      -6.5      2.837      7.202
REMARK  Name = 
REMARK  14 active torsions:
REMARK  status: ('A' for Active; 'I' for Inactive)
REMARK    1  A    between atoms: C_2  and  C_3
REMARK    2  A    between atoms: C_2  and  N_7
REMARK    3  A    between atoms: C_2  and  C_31
REMARK    4  A    between atoms: C_3  and  C_4
REMARK    5  A    between atoms: C_4  and  O_5
REMARK    6  A    between atoms: C_8  and  C_10
REMARK    7  A    between atoms: C_13  and  C_14
REMARK    8  A    between atoms: C_14  and  N_15
REMARK    9  A    between atoms: N_15  and  S_16
REMARK   10  A    between atoms: S_16  and  C_19
REMARK   11  A    between atoms: C_21  and  C_22
REMARK   12  A    between atoms: C_22  and  O_23
REMARK   13  A    between atoms: C_25  and  O_26
REMARK   14  A    between atoms: C_31  and  C_32
REMARK                            x       y       z     vdW  Elec       q    Type
REMARK                         _______ _______ _______ _____ _____    ______ ____
ROOT
ATOM      1  C   UNL     1       6.537  -0.745  25.582  0.00  0.00    +0.037 A 
ATOM      2  C   UNL     1       5.851  -1.434  24.572  0.00  0.00    +0.013 A 
ATOM      3  C   UNL     1       4.921  -2.429  24.887  0.00  0.00    +0.006 A 
ATOM      4  C   UNL     1       4.649  -2.761  26.222  0.00  0.00    -0.032 A 
ATOM      5  C   UNL     1       5.304  -2.043  27.232  0.00  0.00    +0.006 A 
ATOM      6  C   UNL     1       6.229  -1.037  26.917  0.00  0.00    +0.013 A 
ENDROOT
BRANCH   1   9
ATOM      7  N   UNL     1       7.990   0.225  23.840  0.00  0.00    -0.301 N 
ATOM      8  H   UNL     1       7.465  -0.316  23.169  0.00  0.00    +0.150 HD
ATOM      9  C   UNL     1       7.593   0.232  25.160  0.00  0.00    +0.245 C 
ATOM     10  O   UNL     1       8.070   1.017  25.974  0.00  0.00    -0.270 OA
BRANCH   7  11
ATOM     11  C   UNL     1       8.931   1.224  23.314  0.00  0.00    +0.150 C 
BRANCH  11  12
ATOM     12  C   UNL     1       8.170   2.128  22.333  0.00  0.00    +0.151 C 
ATOM     13  O   UNL     1       7.908   1.740  21.188  0.00  0.00    -0.296 OA
ATOM     14  C   UNL     1       7.827   3.532  22.765  0.00  0.00    +0.088 C 
ENDBRANCH  11  12
BRANCH  11  15
ATOM     15  C   UNL     1      10.156   0.577  22.674  0.00  0.00    +0.150 C 
BRANCH  15  16
ATOM     16  C   UNL     1       9.895  -0.854  22.310  0.00  0.00    +0.307 C 
ATOM     17  O   UNL     1      10.241  -1.792  23.013  0.00  0.00    -0.251 OA
BRANCH  16  18
ATOM     18  O   UNL     1       9.242  -1.017  21.142  0.00  0.00    -0.481 OA
ATOM     19  H   UNL     1       8.267  -0.968  21.203  0.00  0.00    +0.295 HD
ENDBRANCH  16  18
ENDBRANCH  15  16
ENDBRANCH  11  15
ENDBRANCH   7  11
ENDBRANCH   1   9
BRANCH   4  20
ATOM     20  C   UNL     1       3.754  -3.947  26.522  0.00  0.00    +0.141 C 
BRANCH  20  21
ATOM     21  N   UNL     1       4.290  -4.852  27.541  0.00  0.00    -0.186 NA
ATOM     22  H   UNL     1       3.680  -5.055  28.333  0.00  0.00    +0.148 HD
BRANCH  21  23
ATOM     23  S   UNL     1       5.042  -6.250  26.990  0.00  0.00    +0.059 S 
ATOM     24  O   UNL     1       4.201  -6.842  25.972  0.00  0.00    -0.153 OA
ATOM     25  O   UNL     1       5.450  -6.985  28.167  0.00  0.00    -0.153 OA
BRANCH  23  26
ATOM     26  C   UNL     1       6.523  -5.646  26.219  0.00  0.00    +0.106 A 
ATOM     27  C   UNL     1       7.630  -5.296  27.000  0.00  0.00    +0.032 A 
ATOM     28  C   UNL     1       8.770  -4.769  26.388  0.00  0.00    +0.048 A 
ATOM     29  C   UNL     1       8.791  -4.601  25.005  0.00  0.00    +0.131 A 
ATOM     30  C   UNL     1       7.685  -4.940  24.218  0.00  0.00    +0.102 A 
ATOM     31  C   UNL     1       6.543  -5.470  24.830  0.00  0.00    +0.047 A 
BRANCH  29  32
ATOM     32  O   UNL     1       9.915  -4.073  24.431  0.00  0.00    -0.506 OA
ATOM     33  H   UNL     1      10.235  -4.740  23.787  0.00  0.00    +0.292 HD
ENDBRANCH  29  32
BRANCH  30  34
ATOM     34  C   UNL     1       7.678  -4.794  22.742  0.00  0.00    +0.340 C 
ATOM     35  O   UNL     1       7.514  -5.747  21.998  0.00  0.00    -0.245 OA
BRANCH  34  36
ATOM     36  O   UNL     1       7.834  -3.528  22.303  0.00  0.00    -0.477 OA
ATOM     37  H   UNL     1       8.756  -3.197  22.386  0.00  0.00    +0.295 HD
ENDBRANCH  34  36
ENDBRANCH  30  34
ENDBRANCH  23  26
ENDBRANCH  21  23
ENDBRANCH  20  21
ENDBRANCH   4  20
TORSDOF 13
ENDMDL
MODEL 8
REMARK VINA RESULT:      -6.4      1.609      2.456
REMARK  Name = 
REMARK  14 active torsions:
REMARK  status: ('A' for Active; 'I' for Inactive)
REMARK    1  A    between atoms: C_2  and  C_3
REMARK    2  A    between atoms: C_2  and  N_7
REMARK    3  A    between atoms: C_2  and  C_31
REMARK    4  A    between atoms: C_3  and  C_4
REMARK    5  A    between atoms: C_4  and  O_5
REMARK    6  A    between atoms: C_8  and  C_10
REMARK    7  A    between atoms: C_13  and  C_14
REMARK    8  A    between atoms: C_14  and  N_15
REMARK    9  A    between atoms: N_15  and  S_16
REMARK   10  A    between atoms: S_16  and  C_19
REMARK   11  A    between atoms: C_21  and  C_22
REMARK   12  A    between atoms: C_22  and  O_23
REMARK   13  A    between atoms: C_25  and  O_26
REMARK   14  A    between atoms: C_31  and  C_32
REMARK                            x       y       z     vdW  Elec       q    Type
REMARK                         _______ _______ _______ _____ _____    ______ ____
ROOT
ATOM      1  C   UNL     1       9.997  -0.521  23.389  0.00  0.00    +0.037 A 
ATOM      2  C   UNL     1       9.696   0.185  22.216  0.00  0.00    +0.013 A 
ATOM      3  C   UNL     1       9.963   1.554  22.115  0.00  0.00    +0.006 A 
ATOM      4  C   UNL     1      10.542   2.254  23.184  0.00  0.00    -0.032 A 
ATOM      5  C   UNL     1      10.882   1.539  24.340  0.00  0.00    +0.006 A 
ATOM      6  C   UNL     1      10.625   0.164  24.439  0.00  0.00    +0.013 A 
ENDROOT
BRANCH   1   9
ATOM      7  N   UNL     1       8.260  -2.242  23.720  0.00  0.00    -0.301 N 
ATOM      8  H   UNL     1       7.585  -1.492  23.708  0.00  0.00    +0.150 HD
ATOM      9  C   UNL     1       9.584  -1.961  23.456  0.00  0.00    +0.245 C 
ATOM     10  O   UNL     1      10.407  -2.851  23.267  0.00  0.00    -0.270 OA
BRANCH   7  11
ATOM     11  C   UNL     1       7.744  -3.617  23.687  0.00  0.00    +0.150 C 
BRANCH  11  12
ATOM     12  C   UNL     1       6.456  -3.625  22.852  0.00  0.00    +0.151 C 
ATOM     13  O   UNL     1       6.018  -2.581  22.354  0.00  0.00    -0.296 OA
ATOM     14  C   UNL     1       5.686  -4.917  22.728  0.00  0.00    +0.088 C 
ENDBRANCH  11  12
BRANCH  11  15
ATOM     15  C   UNL     1       7.530  -4.183  25.089  0.00  0.00    +0.150 C 
BRANCH  15  16
ATOM     16  C   UNL     1       8.507  -5.279  25.395  0.00  0.00    +0.307 C 
ATOM     17  O   UNL     1       9.382  -5.625  24.615  0.00  0.00    -0.251 OA
BRANCH  16  18
ATOM     18  O   UNL     1       8.339  -5.846  26.606  0.00  0.00    -0.481 OA
ATOM     19  H   UNL     1       8.833  -6.679  26.745  0.00  0.00    +0.295 HD
ENDBRANCH  16  18
ENDBRANCH  15  16
ENDBRANCH  11  15
ENDBRANCH   7  11
ENDBRANCH   1   9
BRANCH   4  20
ATOM     20  C   UNL     1      10.673   3.761  23.096  0.00  0.00    +0.141 C 
BRANCH  20  21
ATOM     21  N   UNL     1      10.160   4.470  24.270  0.00  0.00    -0.186 NA
ATOM     22  H   UNL     1      10.725   5.247  24.614  0.00  0.00    +0.148 HD
BRANCH  21  23
ATOM     23  S   UNL     1       8.530   4.878  24.255  0.00  0.00    +0.059 S 
ATOM     24  O   UNL     1       8.251   5.571  23.015  0.00  0.00    -0.153 OA
ATOM     25  O   UNL     1       8.244   5.469  25.543  0.00  0.00    -0.153 OA
BRANCH  23  26
ATOM     26  C   UNL     1       7.711   3.302  24.216  0.00  0.00    +0.106 A 
ATOM     27  C   UNL     1       6.928   2.944  23.113  0.00  0.00    +0.032 A 
ATOM     28  C   UNL     1       6.244   1.726  23.115  0.00  0.00    +0.048 A 
ATOM     29  C   UNL     1       6.352   0.881  24.218  0.00  0.00    +0.131 A 
ATOM     30  C   UNL     1       7.126   1.236  25.328  0.00  0.00    +0.102 A 
ATOM     31  C   UNL     1       7.815   2.455  25.326  0.00  0.00    +0.047 A 
BRANCH  29  32
ATOM     32  O   UNL     1       5.665  -0.301  24.202  0.00  0.00    -0.506 OA
ATOM     33  H   UNL     1       6.337  -1.013  24.240  0.00  0.00    +0.292 HD
ENDBRANCH  29  32
BRANCH  30  34
ATOM     34  C   UNL     1       7.282   0.354  26.510  0.00  0.00    +0.340 C 
ATOM     35  O   UNL     1       7.708  -0.786  26.417  0.00  0.00    -0.245 OA
BRANCH  34  36
ATOM     36  O   UNL     1       6.946   0.926  27.685  0.00  0.00    -0.477 OA
ATOM     37  H   UNL     1       7.083   1.899  27.698  0.00  0.00    +0.295 HD
ENDBRANCH  34  36
ENDBRANCH  30  34
ENDBRANCH  23  26
ENDBRANCH  21  23
ENDBRANCH  20  21
ENDBRANCH   4  20
TORSDOF 13
ENDMDL
MODEL 9
REMARK VINA RESULT:      -6.4      2.561      5.138
REMARK  Name = 
REMARK  14 active torsions:
REMARK  status: ('A' for Active; 'I' for Inactive)
REMARK    1  A    between atoms: C_2  and  C_3
REMARK    2  A    between atoms: C_2  and  N_7
REMARK    3  A    between atoms: C_2  and  C_31
REMARK    4  A    between atoms: C_3  and  C_4
REMARK    5  A    between atoms: C_4  and  O_5
REMARK    6  A    between atoms: C_8  and  C_10
REMARK    7  A    between atoms: C_13  and  C_14
REMARK    8  A    between atoms: C_14  and  N_15
REMARK    9  A    between atoms: N_15  and  S_16
REMARK   10  A    between atoms: S_16  and  C_19
REMARK   11  A    between atoms: C_21  and  C_22
REMARK   12  A    between atoms: C_22  and  O_23
REMARK   13  A    between atoms: C_25  and  O_26
REMARK   14  A    between atoms: C_31  and  C_32
REMARK                            x       y       z     vdW  Elec       q    Type
REMARK                         _______ _______ _______ _____ _____    ______ ____
ROOT
ATOM      1  C   UNL     1       5.549  -2.391  26.080  0.00  0.00    +0.037 A 
ATOM      2  C   UNL     1       6.742  -2.157  26.778  0.00  0.00    +0.013 A 
ATOM      3  C   UNL     1       7.618  -1.143  26.380  0.00  0.00    +0.006 A 
ATOM      4  C   UNL     1       7.323  -0.331  25.274  0.00  0.00    -0.032 A 
ATOM      5  C   UNL     1       6.110  -0.539  24.603  0.00  0.00    +0.006 A 
ATOM      6  C   UNL     1       5.225  -1.549  25.008  0.00  0.00    +0.013 A 
ENDROOT
BRANCH   1   9
ATOM      7  N   UNL     1       5.331  -4.795  26.593  0.00  0.00    -0.301 N 
ATOM      8  H   UNL     1       6.336  -4.851  26.523  0.00  0.00    +0.150 HD
ATOM      9  C   UNL     1       4.716  -3.563  26.505  0.00  0.00    +0.245 C 
ATOM     10  O   UNL     1       3.529  -3.414  26.776  0.00  0.00    -0.270 OA
BRANCH   7  11
ATOM     11  C   UNL     1       4.623  -5.973  27.114  0.00  0.00    +0.150 C 
BRANCH  11  12
ATOM     12  C   UNL     1       5.279  -6.377  28.442  0.00  0.00    +0.151 C 
ATOM     13  O   UNL     1       5.734  -7.516  28.603  0.00  0.00    -0.296 OA
ATOM     14  C   UNL     1       5.277  -5.383  29.578  0.00  0.00    +0.088 C 
ENDBRANCH  11  12
BRANCH  11  15
ATOM     15  C   UNL     1       4.599  -7.119  26.107  0.00  0.00    +0.150 C 
BRANCH  15  16
ATOM     16  C   UNL     1       3.762  -6.782  24.909  0.00  0.00    +0.307 C 
ATOM     17  O   UNL     1       2.739  -6.117  24.980  0.00  0.00    -0.251 OA
BRANCH  16  18
ATOM     18  O   UNL     1       4.238  -7.272  23.747  0.00  0.00    -0.481 OA
ATOM     19  H   UNL     1       4.913  -6.716  23.308  0.00  0.00    +0.295 HD
ENDBRANCH  16  18
ENDBRANCH  15  16
ENDBRANCH  11  15
ENDBRANCH   7  11
ENDBRANCH   1   9
BRANCH   4  20
ATOM     20  C   UNL     1       8.365   0.651  24.779  0.00  0.00    +0.141 C 
BRANCH  20  21
ATOM     21  N   UNL     1       8.658   0.534  23.349  0.00  0.00    -0.186 NA
ATOM     22  H   UNL     1       8.819   1.408  22.846  0.00  0.00    +0.148 HD
BRANCH  21  23
ATOM     23  S   UNL     1       9.784  -0.630  22.901  0.00  0.00    +0.059 S 
ATOM     24  O   UNL     1      10.860  -0.611  23.869  0.00  0.00    -0.153 OA
ATOM     25  O   UNL     1      10.023  -0.445  21.487  0.00  0.00    -0.153 OA
BRANCH  23  26
ATOM     26  C   UNL     1       8.892  -2.155  23.080  0.00  0.00    +0.106 A 
ATOM     27  C   UNL     1       7.810  -2.439  22.239  0.00  0.00    +0.032 A 
ATOM     28  C   UNL     1       7.080  -3.616  22.424  0.00  0.00    +0.048 A 
ATOM     29  C   UNL     1       7.443  -4.496  23.441  0.00  0.00    +0.131 A 
ATOM     30  C   UNL     1       8.518  -4.215  24.292  0.00  0.00    +0.102 A 
ATOM     31  C   UNL     1       9.252  -3.037  24.106  0.00  0.00    +0.047 A 
BRANCH  29  32
ATOM     32  O   UNL     1       6.707  -5.636  23.609  0.00  0.00    -0.506 OA
ATOM     33  H   UNL     1       5.922  -5.546  23.030  0.00  0.00    +0.292 HD
ENDBRANCH  29  32
BRANCH  30  34
ATOM     34  C   UNL     1       8.946  -5.136  25.372  0.00  0.00    +0.340 C 
ATOM     35  O   UNL     1       8.204  -5.449  26.289  0.00  0.00    -0.245 OA
BRANCH  34  36
ATOM     36  O   UNL     1      10.200  -5.616  25.236  0.00  0.00    -0.477 OA
ATOM     37  H   UNL     1      10.644  -5.797  26.094  0.00  0.00    +0.295 HD
ENDBRANCH  34  36
ENDBRANCH  30  34
ENDBRANCH  23  26
ENDBRANCH  21  23
ENDBRANCH  20  21
ENDBRANCH   4  20
TORSDOF 13
ENDMDL
