MODEL 1
REMARK VINA RESULT:      -6.2      0.000      0.000
REMARK  Name = 
REMARK  27 active torsions:
REMARK  status: ('A' for Active; 'I' for Inactive)
REMARK    1  A    between atoms: N_1  and  C_2
REMARK    2  A    between atoms: C_2  and  C_3
REMARK    3  A    between atoms: C_6  and  O_8
REMARK    4  A    between atoms: O_8  and  C_9
REMARK    5  A    between atoms: C_11  and  C_13
REMARK    6  A    between atoms: C_13  and  O_14
REMARK    7  A    between atoms: C_16  and  O_18
REMARK    8  A    between atoms: O_18  and  C_19
REMARK    9  A    between atoms: C_21  and  O_23
REMARK   10  A    between atoms: C_24  and  N_26
REMARK   11  A    between atoms: C_28  and  N_30
REMARK   12  A    between atoms: C_31  and  O_33
REMARK   13  A    between atoms: O_33  and  C_34
REMARK   14  A    between atoms: C_37  and  C_39
REMARK   15  A    between atoms: C_39  and  O_40
REMARK   16  A    between atoms: C_41  and  O_43
REMARK   17  A    between atoms: C_44  and  O_46
REMARK   18  A    between atoms: C_47  and  N_49
REMARK   19  A    between atoms: C_50  and  O_52
REMARK   20  A    between atoms: O_52  and  C_53
REMARK   21  A    between atoms: C_53  and  C_54
REMARK   22  A    between atoms: C_54  and  N_55
REMARK   23  A    between atoms: N_55  and  C_56
REMARK   24  A    between atoms: C_56  and  C_57
REMARK   25  A    between atoms: C_64  and  N_66
REMARK   26  A    between atoms: C_67  and  O_69
REMARK   27  A    between atoms: C_70  and  O_72
REMARK                            x       y       z     vdW  Elec       q    Type
REMARK                         _______ _______ _______ _____ _____    ______ ____
ROOT
ATOM      1  C   UNL     1       5.479   1.187  25.463  0.00  0.00    +0.186 C 
ATOM      2  C   UNL     1       5.683  -0.325  25.272  0.00  0.00    +0.205 C 
ATOM      3  C   UNL     1       5.254  -0.971  26.635  0.00  0.00    +0.282 C 
ATOM      4  O   UNL     1       4.865   0.078  27.510  0.00  0.00    -0.340 OA
ATOM      5  C   UNL     1       4.802   1.325  26.818  0.00  0.00    +0.178 C 
ENDROOT
BRANCH   5   6
ATOM      6  C   UNL     1       3.364   1.819  26.629  0.00  0.00    +0.190 C 
BRANCH   6   7
ATOM      7  O   UNL     1       3.359   3.077  25.942  0.00  0.00    -0.392 OA
ATOM      8  H   UNL     1       3.733   2.912  25.055  0.00  0.00    +0.210 HD
ENDBRANCH   6   7
ENDBRANCH   5   6
BRANCH   3   9
ATOM      9  O   UNL     1       4.128  -1.847  26.420  0.00  0.00    -0.340 OA
BRANCH   9  10
ATOM     10  C   UNL     1       4.018  -3.133  27.098  0.00  0.00    +0.182 C 
ATOM     11  C   UNL     1       5.252  -3.618  27.916  0.00  0.00    +0.169 C 
ATOM     12  C   UNL     1       4.959  -5.031  28.540  0.00  0.00    +0.084 C 
ATOM     13  C   UNL     1       3.676  -5.072  29.370  0.00  0.00    +0.042 C 
ATOM     14  C   UNL     1       2.490  -4.672  28.512  0.00  0.00    +0.084 C 
ATOM     15  C   UNL     1       2.696  -3.277  27.899  0.00  0.00    +0.163 C 
BRANCH  14  16
ATOM     16  N   UNL     1       1.251  -4.712  29.320  0.00  0.00    -0.325 NA
ATOM     17  H   UNL     1       0.888  -5.665  29.340  0.00  0.00    +0.119 HD
ATOM     18  H   UNL     1       1.536  -4.525  30.288  0.00  0.00    +0.119 HD
ENDBRANCH  14  16
BRANCH  12  19
ATOM     19  N   UNL     1       6.076  -5.524  29.364  0.00  0.00    -0.325 NA
ATOM     20  H   UNL     1       6.814  -5.905  28.774  0.00  0.00    +0.119 HD
ATOM     21  H   UNL     1       6.492  -4.745  29.878  0.00  0.00    +0.119 HD
ENDBRANCH  12  19
BRANCH  15  22
ATOM     22  O   UNL     1       1.578  -3.040  27.031  0.00  0.00    -0.388 OA
ATOM     23  H   UNL     1       0.855  -3.608  27.376  0.00  0.00    +0.210 HD
ENDBRANCH  15  22
BRANCH  11  24
ATOM     24  O   UNL     1       6.429  -3.839  27.110  0.00  0.00    -0.342 OA
BRANCH  24  25
ATOM     25  C   UNL     1       6.432  -4.983  26.268  0.00  0.00    +0.270 C 
ATOM     26  C   UNL     1       7.900  -5.490  26.058  0.00  0.00    +0.139 C 
ATOM     27  C   UNL     1       8.583  -4.989  24.774  0.00  0.00    +0.167 C 
ATOM     28  C   UNL     1       7.629  -4.678  23.621  0.00  0.00    +0.176 C 
ATOM     29  C   UNL     1       6.389  -3.937  24.121  0.00  0.00    +0.178 C 
ATOM     30  O   UNL     1       5.712  -4.767  25.062  0.00  0.00    -0.342 OA
BRANCH  26  31
ATOM     31  N   UNL     1       8.792  -5.167  27.205  0.00  0.00    -0.321 NA
ATOM     32  H   UNL     1       9.747  -5.443  26.990  0.00  0.00    +0.119 HD
ATOM     33  H   UNL     1       8.483  -5.715  28.013  0.00  0.00    +0.119 HD
ENDBRANCH  26  31
BRANCH  28  34
ATOM     34  O   UNL     1       8.339  -3.930  22.615  0.00  0.00    -0.387 OA
ATOM     35  H   UNL     1       9.065  -3.447  23.059  0.00  0.00    +0.210 HD
ENDBRANCH  28  34
BRANCH  27  36
ATOM     36  O   UNL     1       9.516  -5.996  24.317  0.00  0.00    -0.387 OA
ATOM     37  H   UNL     1       8.995  -6.668  23.841  0.00  0.00    +0.210 HD
ENDBRANCH  27  36
BRANCH  29  38
ATOM     38  C   UNL     1       5.419  -3.650  22.963  0.00  0.00    +0.190 C 
BRANCH  38  39
ATOM     39  O   UNL     1       5.681  -2.398  22.338  0.00  0.00    -0.392 OA
ATOM     40  H   UNL     1       6.404  -1.976  22.849  0.00  0.00    +0.210 HD
ENDBRANCH  38  39
ENDBRANCH  29  38
ENDBRANCH  24  25
ENDBRANCH  11  24
ENDBRANCH   9  10
ENDBRANCH   3   9
BRANCH   2  41
ATOM     41  O   UNL     1       6.976  -0.699  24.738  0.00  0.00    -0.368 OA
BRANCH  41  42
ATOM     42  C   UNL     1       7.786  -1.363  25.732  0.00  0.00    +0.175 C 
BRANCH  42  43
ATOM     43  C   UNL     1       8.824  -0.452  26.410  0.00  0.00    +0.109 C 
BRANCH  43  44
ATOM     44  N   UNL     1       9.323   0.677  25.600  0.00  0.00    -0.314 NA
ATOM     45  H   UNL     1       9.386   1.491  26.204  0.00  0.00    +0.122 HD
BRANCH  44  46
ATOM     46  C   UNL     1      10.629   0.383  25.012  0.00  0.00    +0.085 C 
BRANCH  46  47
ATOM     47  C   UNL     1      10.553   0.237  23.484  0.00  0.00    +0.017 C 
ATOM     48  C   UNL     1      10.392  -1.257  23.148  0.00  0.00    +0.085 C 
ATOM     49  N   UNL     1      10.241  -1.505  21.715  0.00  0.00    -0.316 NA
ATOM     50  H   UNL     1      11.079  -1.179  21.231  0.00  0.00    +0.122 HD
ATOM     51  C   UNL     1       9.084  -0.781  21.187  0.00  0.00    +0.081 C 
ATOM     52  C   UNL     1       9.233   0.724  21.392  0.00  0.00    +0.015 C 
ATOM     53  C   UNL     1       9.410   1.061  22.872  0.00  0.00    +0.007 C 
ENDBRANCH  46  47
ENDBRANCH  44  46
ENDBRANCH  43  44
ENDBRANCH  42  43
ENDBRANCH  41  42
ENDBRANCH   2  41
BRANCH   1  54
ATOM     54  O   UNL     1       6.650   2.025  25.406  0.00  0.00    -0.341 OA
BRANCH  54  59
ATOM     55  C   UNL     1       5.099   3.654  22.542  0.00  0.00    +0.166 C 
ATOM     56  C   UNL     1       5.398   5.143  22.790  0.00  0.00    +0.175 C 
ATOM     57  C   UNL     1       6.766   5.313  23.506  0.00  0.00    +0.167 C 
ATOM     58  C   UNL     1       6.906   4.384  24.739  0.00  0.00    +0.139 C 
ATOM     59  C   UNL     1       6.573   2.940  24.295  0.00  0.00    +0.270 C 
ATOM     60  O   UNL     1       5.262   2.898  23.747  0.00  0.00    -0.343 OA
BRANCH  58  61
ATOM     61  N   UNL     1       6.030   4.824  25.853  0.00  0.00    -0.321 NA
ATOM     62  H   UNL     1       6.217   5.823  26.009  0.00  0.00    +0.119 HD
ATOM     63  H   UNL     1       5.070   4.818  25.494  0.00  0.00    +0.119 HD
ENDBRANCH  58  61
BRANCH  57  64
ATOM     64  O   UNL     1       7.861   5.114  22.600  0.00  0.00    -0.387 OA
ATOM     65  H   UNL     1       8.337   4.294  22.807  0.00  0.00    +0.210 HD
ENDBRANCH  57  64
BRANCH  56  66
ATOM     66  O   UNL     1       4.350   5.718  23.583  0.00  0.00    -0.387 OA
ATOM     67  H   UNL     1       4.762   6.169  24.342  0.00  0.00    +0.210 HD
ENDBRANCH  56  66
BRANCH  55  68
ATOM     68  C   UNL     1       3.659   3.358  22.072  0.00  0.00    +0.112 C 
BRANCH  68  69
ATOM     69  N   UNL     1       2.763   2.903  23.130  0.00  0.00    -0.328 NA
ATOM     70  H   UNL     1       1.818   2.843  22.748  0.00  0.00    +0.118 HD
ATOM     71  H   UNL     1       3.007   1.935  23.352  0.00  0.00    +0.118 HD
ENDBRANCH  68  69
ENDBRANCH  55  68
ENDBRANCH  54  59
ENDBRANCH   1  54
TORSDOF 27
ENDMDL
MODEL 2
REMARK VINA RESULT:      -6.1      1.791      2.751
REMARK  Name = 
REMARK  27 active torsions:
REMARK  status: ('A' for Active; 'I' for Inactive)
REMARK    1  A    between atoms: N_1  and  C_2
REMARK    2  A    between atoms: C_2  and  C_3
REMARK    3  A    between atoms: C_6  and  O_8
REMARK    4  A    between atoms: O_8  and  C_9
REMARK    5  A    between atoms: C_11  and  C_13
REMARK    6  A    between atoms: C_13  and  O_14
REMARK    7  A    between atoms: C_16  and  O_18
REMARK    8  A    between atoms: O_18  and  C_19
REMARK    9  A    between atoms: C_21  and  O_23
REMARK   10  A    between atoms: C_24  and  N_26
REMARK   11  A    between atoms: C_28  and  N_30
REMARK   12  A    between atoms: C_31  and  O_33
REMARK   13  A    between atoms: O_33  and  C_34
REMARK   14  A    between atoms: C_37  and  C_39
REMARK   15  A    between atoms: C_39  and  O_40
REMARK   16  A    between atoms: C_41  and  O_43
REMARK   17  A    between atoms: C_44  and  O_46
REMARK   18  A    between atoms: C_47  and  N_49
REMARK   19  A    between atoms: C_50  and  O_52
REMARK   20  A    between atoms: O_52  and  C_53
REMARK   21  A    between atoms: C_53  and  C_54
REMARK   22  A    between atoms: C_54  and  N_55
REMARK   23  A    between atoms: N_55  and  C_56
REMARK   24  A    between atoms: C_56  and  C_57
REMARK   25  A    between atoms: C_64  and  N_66
REMARK   26  A    between atoms: C_67  and  O_69
REMARK   27  A    between atoms: C_70  and  O_72
REMARK                            x       y       z     vdW  Elec       q    Type
REMARK                         _______ _______ _______ _____ _____    ______ ____
ROOT
ATOM      1  C   UNL     1       5.361   0.891  25.704  0.00  0.00    +0.186 C 
ATOM      2  C   UNL     1       5.589  -0.590  25.361  0.00  0.00    +0.205 C 
ATOM      3  C   UNL     1       5.013  -1.387  26.582  0.00  0.00    +0.282 C 
ATOM      4  O   UNL     1       4.528  -0.443  27.527  0.00  0.00    -0.340 OA
ATOM      5  C   UNL     1       4.539   0.876  26.984  0.00  0.00    +0.178 C 
ENDROOT
BRANCH   5   6
ATOM      6  C   UNL     1       3.130   1.405  26.698  0.00  0.00    +0.190 C 
BRANCH   6   7
ATOM      7  O   UNL     1       2.171   0.345  26.810  0.00  0.00    -0.392 OA
ATOM      8  H   UNL     1       2.375  -0.130  27.639  0.00  0.00    +0.210 HD
ENDBRANCH   6   7
ENDBRANCH   5   6
BRANCH   3   9
ATOM      9  O   UNL     1       3.920  -2.220  26.143  0.00  0.00    -0.340 OA
BRANCH   9  10
ATOM     10  C   UNL     1       3.602  -3.479  26.806  0.00  0.00    +0.182 C 
ATOM     11  C   UNL     1       4.526  -4.697  26.508  0.00  0.00    +0.169 C 
ATOM     12  C   UNL     1       4.007  -5.965  27.280  0.00  0.00    +0.084 C 
ATOM     13  C   UNL     1       3.841  -5.733  28.781  0.00  0.00    +0.042 C 
ATOM     14  C   UNL     1       2.870  -4.592  29.027  0.00  0.00    +0.084 C 
ATOM     15  C   UNL     1       3.341  -3.305  28.327  0.00  0.00    +0.163 C 
BRANCH  14  16
ATOM     16  N   UNL     1       2.715  -4.371  30.481  0.00  0.00    -0.325 NA
ATOM     17  H   UNL     1       2.458  -3.399  30.653  0.00  0.00    +0.119 HD
ATOM     18  H   UNL     1       1.889  -4.909  30.765  0.00  0.00    +0.119 HD
ENDBRANCH  14  16
BRANCH  12  19
ATOM     19  N   UNL     1       4.867  -7.142  27.071  0.00  0.00    -0.325 NA
ATOM     20  H   UNL     1       4.710  -7.539  26.147  0.00  0.00    +0.119 HD
ATOM     21  H   UNL     1       5.848  -6.857  27.099  0.00  0.00    +0.119 HD
ENDBRANCH  12  19
BRANCH  15  22
ATOM     22  O   UNL     1       2.312  -2.327  28.531  0.00  0.00    -0.388 OA
ATOM     23  H   UNL     1       1.616  -2.784  29.051  0.00  0.00    +0.210 HD
ENDBRANCH  15  22
BRANCH  11  24
ATOM     24  O   UNL     1       4.508  -5.110  25.125  0.00  0.00    -0.342 OA
BRANCH  24  25
ATOM     25  C   UNL     1       5.112  -4.240  24.179  0.00  0.00    +0.270 C 
ATOM     26  C   UNL     1       4.832  -4.750  22.725  0.00  0.00    +0.139 C 
ATOM     27  C   UNL     1       5.952  -5.607  22.110  0.00  0.00    +0.167 C 
ATOM     28  C   UNL     1       7.353  -5.305  22.639  0.00  0.00    +0.176 C 
ATOM     29  C   UNL     1       7.337  -5.109  24.155  0.00  0.00    +0.178 C 
ATOM     30  O   UNL     1       6.485  -4.007  24.462  0.00  0.00    -0.342 OA
BRANCH  26  31
ATOM     31  N   UNL     1       3.560  -5.515  22.615  0.00  0.00    -0.321 NA
ATOM     32  H   UNL     1       3.510  -5.978  21.712  0.00  0.00    +0.119 HD
ATOM     33  H   UNL     1       2.783  -4.850  22.669  0.00  0.00    +0.119 HD
ENDBRANCH  26  31
BRANCH  28  34
ATOM     34  O   UNL     1       8.244  -6.365  22.239  0.00  0.00    -0.387 OA
ATOM     35  H   UNL     1       7.896  -6.749  21.409  0.00  0.00    +0.210 HD
ENDBRANCH  28  34
BRANCH  27  36
ATOM     36  O   UNL     1       5.965  -5.404  20.678  0.00  0.00    -0.387 OA
ATOM     37  H   UNL     1       5.449  -6.133  20.286  0.00  0.00    +0.210 HD
ENDBRANCH  27  36
BRANCH  29  38
ATOM     38  C   UNL     1       8.744  -4.778  24.680  0.00  0.00    +0.190 C 
BRANCH  38  39
ATOM     39  O   UNL     1       9.620  -5.899  24.620  0.00  0.00    -0.392 OA
ATOM     40  H   UNL     1       9.116  -6.666  24.966  0.00  0.00    +0.210 HD
ENDBRANCH  38  39
ENDBRANCH  29  38
ENDBRANCH  24  25
ENDBRANCH  11  24
ENDBRANCH   9  10
ENDBRANCH   3   9
BRANCH   2  41
ATOM     41  O   UNL     1       6.933  -0.913  24.931  0.00  0.00    -0.368 OA
BRANCH  41  42
ATOM     42  C   UNL     1       7.709  -1.482  26.008  0.00  0.00    +0.175 C 
BRANCH  42  43
ATOM     43  C   UNL     1       8.804  -0.551  26.556  0.00  0.00    +0.109 C 
BRANCH  43  44
ATOM     44  N   UNL     1       9.233   0.543  25.662  0.00  0.00    -0.314 NA
ATOM     45  H   UNL     1       9.211   1.408  26.193  0.00  0.00    +0.122 HD
BRANCH  44  46
ATOM     46  C   UNL     1      10.575   0.311  25.132  0.00  0.00    +0.085 C 
BRANCH  46  47
ATOM     47  C   UNL     1      10.574   0.163  23.603  0.00  0.00    +0.017 C 
ATOM     48  C   UNL     1      10.266  -1.307  23.259  0.00  0.00    +0.085 C 
ATOM     49  N   UNL     1      10.173  -1.546  21.819  0.00  0.00    -0.316 NA
ATOM     50  H   UNL     1      11.070  -1.320  21.386  0.00  0.00    +0.122 HD
ATOM     51  C   UNL     1       9.138  -0.701  21.223  0.00  0.00    +0.081 C 
ATOM     52  C   UNL     1       9.443   0.780  21.436  0.00  0.00    +0.015 C 
ATOM     53  C   UNL     1       9.568   1.105  22.923  0.00  0.00    +0.007 C 
ENDBRANCH  46  47
ENDBRANCH  44  46
ENDBRANCH  43  44
ENDBRANCH  42  43
ENDBRANCH  41  42
ENDBRANCH   2  41
BRANCH   1  54
ATOM     54  O   UNL     1       6.530   1.717  25.876  0.00  0.00    -0.341 OA
BRANCH  54  59
ATOM     55  C   UNL     1       7.728   4.702  24.167  0.00  0.00    +0.166 C 
ATOM     56  C   UNL     1       6.947   4.676  22.842  0.00  0.00    +0.175 C 
ATOM     57  C   UNL     1       5.538   4.056  23.051  0.00  0.00    +0.167 C 
ATOM     58  C   UNL     1       5.593   2.715  23.826  0.00  0.00    +0.139 C 
ATOM     59  C   UNL     1       6.409   2.939  25.121  0.00  0.00    +0.270 C 
ATOM     60  O   UNL     1       7.709   3.413  24.790  0.00  0.00    -0.343 OA
BRANCH  58  61
ATOM     61  N   UNL     1       6.177   1.632  22.997  0.00  0.00    -0.321 NA
ATOM     62  H   UNL     1       5.554   0.817  23.080  0.00  0.00    +0.119 HD
ATOM     63  H   UNL     1       6.064   1.915  22.018  0.00  0.00    +0.119 HD
ENDBRANCH  58  61
BRANCH  57  64
ATOM     64  O   UNL     1       4.651   4.978  23.703  0.00  0.00    -0.387 OA
ATOM     65  H   UNL     1       5.150   5.661  24.178  0.00  0.00    +0.210 HD
ENDBRANCH  57  64
BRANCH  56  66
ATOM     66  O   UNL     1       7.678   3.921  21.866  0.00  0.00    -0.387 OA
ATOM     67  H   UNL     1       7.060   3.298  21.444  0.00  0.00    +0.210 HD
ENDBRANCH  56  66
BRANCH  55  68
ATOM     68  C   UNL     1       9.223   5.057  24.024  0.00  0.00    +0.112 C 
BRANCH  68  69
ATOM     69  N   UNL     1       9.509   6.056  23.000  0.00  0.00    -0.328 NA
ATOM     70  H   UNL     1       8.742   6.056  22.326  0.00  0.00    +0.118 HD
ATOM     71  H   UNL     1       9.456   6.978  23.440  0.00  0.00    +0.118 HD
ENDBRANCH  68  69
ENDBRANCH  55  68
ENDBRANCH  54  59
ENDBRANCH   1  54
TORSDOF 27
ENDMDL
MODEL 3
REMARK VINA RESULT:      -6.1      2.449      9.132
REMARK  Name = 
REMARK  27 active torsions:
REMARK  status: ('A' for Active; 'I' for Inactive)
REMARK    1  A    between atoms: N_1  and  C_2
REMARK    2  A    between atoms: C_2  and  C_3
REMARK    3  A    between atoms: C_6  and  O_8
REMARK    4  A    between atoms: O_8  and  C_9
REMARK    5  A    between atoms: C_11  and  C_13
REMARK    6  A    between atoms: C_13  and  O_14
REMARK    7  A    between atoms: C_16  and  O_18
REMARK    8  A    between atoms: O_18  and  C_19
REMARK    9  A    between atoms: C_21  and  O_23
REMARK   10  A    between atoms: C_24  and  N_26
REMARK   11  A    between atoms: C_28  and  N_30
REMARK   12  A    between atoms: C_31  and  O_33
REMARK   13  A    between atoms: O_33  and  C_34
REMARK   14  A    between atoms: C_37  and  C_39
REMARK   15  A    between atoms: C_39  and  O_40
REMARK   16  A    between atoms: C_41  and  O_43
REMARK   17  A    between atoms: C_44  and  O_46
REMARK   18  A    between atoms: C_47  and  N_49
REMARK   19  A    between atoms: C_50  and  O_52
REMARK   20  A    between atoms: O_52  and  C_53
REMARK   21  A    between atoms: C_53  and  C_54
REMARK   22  A    between atoms: C_54  and  N_55
REMARK   23  A    between atoms: N_55  and  C_56
REMARK   24  A    between atoms: C_56  and  C_57
REMARK   25  A    between atoms: C_64  and  N_66
REMARK   26  A    between atoms: C_67  and  O_69
REMARK   27  A    between atoms: C_70  and  O_72
REMARK                            x       y       z     vdW  Elec       q    Type
REMARK                         _______ _______ _______ _____ _____    ______ ____
ROOT
ATOM      1  C   UNL     1       8.877  -0.772  24.799  0.00  0.00    +0.186 C 
ATOM      2  C   UNL     1       8.431   0.646  25.193  0.00  0.00    +0.205 C 
ATOM      3  C   UNL     1       9.626   1.577  24.792  0.00  0.00    +0.282 C 
ATOM      4  O   UNL     1      10.651   0.759  24.244  0.00  0.00    -0.340 OA
ATOM      5  C   UNL     1      10.191  -0.579  24.058  0.00  0.00    +0.178 C 
ENDROOT
BRANCH   5   6
ATOM      6  C   UNL     1      10.007  -0.935  22.580  0.00  0.00    +0.190 C 
BRANCH   6   7
ATOM      7  O   UNL     1       9.129  -2.061  22.447  0.00  0.00    -0.392 OA
ATOM      8  H   UNL     1       9.627  -2.842  22.758  0.00  0.00    +0.210 HD
ENDBRANCH   6   7
ENDBRANCH   5   6
BRANCH   3   9
ATOM      9  O   UNL     1       9.189   2.519  23.790  0.00  0.00    -0.340 OA
BRANCH   9  10
ATOM     10  C   UNL     1       9.418   3.952  23.934  0.00  0.00    +0.182 C 
ATOM     11  C   UNL     1       8.736   4.667  25.139  0.00  0.00    +0.169 C 
ATOM     12  C   UNL     1       9.067   6.204  25.106  0.00  0.00    +0.084 C 
ATOM     13  C   UNL     1      10.565   6.499  25.044  0.00  0.00    +0.042 C 
ATOM     14  C   UNL     1      11.172   5.852  23.813  0.00  0.00    +0.084 C 
ATOM     15  C   UNL     1      10.916   4.336  23.801  0.00  0.00    +0.163 C 
BRANCH  14  16
ATOM     16  N   UNL     1      12.622   6.140  23.759  0.00  0.00    -0.325 NA
ATOM     17  H   UNL     1      13.047   5.923  24.660  0.00  0.00    +0.119 HD
ATOM     18  H   UNL     1      13.026   5.453  23.113  0.00  0.00    +0.119 HD
ENDBRANCH  14  16
BRANCH  12  19
ATOM     19  N   UNL     1       8.485   6.929  26.249  0.00  0.00    -0.325 NA
ATOM     20  H   UNL     1       7.497   6.703  26.348  0.00  0.00    +0.119 HD
ATOM     21  H   UNL     1       8.938   6.626  27.113  0.00  0.00    +0.119 HD
ENDBRANCH  12  19
BRANCH  15  22
ATOM     22  O   UNL     1      11.432   3.841  22.557  0.00  0.00    -0.388 OA
ATOM     23  H   UNL     1      12.386   3.671  22.719  0.00  0.00    +0.210 HD
ENDBRANCH  15  22
BRANCH  11  24
ATOM     24  O   UNL     1       7.294   4.629  25.093  0.00  0.00    -0.342 OA
BRANCH  24  25
ATOM     25  C   UNL     1       6.669   5.126  23.918  0.00  0.00    +0.270 C 
ATOM     26  C   UNL     1       5.277   5.750  24.275  0.00  0.00    +0.139 C 
ATOM     27  C   UNL     1       4.075   4.810  24.080  0.00  0.00    +0.167 C 
ATOM     28  C   UNL     1       4.266   3.740  23.006  0.00  0.00    +0.176 C 
ATOM     29  C   UNL     1       5.663   3.126  23.085  0.00  0.00    +0.178 C 
ATOM     30  O   UNL     1       6.626   4.158  22.879  0.00  0.00    -0.342 OA
BRANCH  26  31
ATOM     31  N   UNL     1       5.221   6.281  25.664  0.00  0.00    -0.321 NA
ATOM     32  H   UNL     1       4.368   6.820  25.795  0.00  0.00    +0.119 HD
ATOM     33  H   UNL     1       6.014   6.915  25.795  0.00  0.00    +0.119 HD
ENDBRANCH  26  31
BRANCH  28  34
ATOM     34  O   UNL     1       3.229   2.749  23.142  0.00  0.00    -0.387 OA
ATOM     35  H   UNL     1       3.491   2.140  23.863  0.00  0.00    +0.210 HD
ENDBRANCH  28  34
BRANCH  27  36
ATOM     36  O   UNL     1       2.917   5.598  23.720  0.00  0.00    -0.387 OA
ATOM     37  H   UNL     1       2.583   6.000  24.544  0.00  0.00    +0.210 HD
ENDBRANCH  27  36
BRANCH  29  38
ATOM     38  C   UNL     1       5.861   2.070  21.985  0.00  0.00    +0.190 C 
BRANCH  38  39
ATOM     39  O   UNL     1       6.968   1.215  22.252  0.00  0.00    -0.392 OA
ATOM     40  H   UNL     1       6.659   0.554  22.907  0.00  0.00    +0.210 HD
ENDBRANCH  38  39
ENDBRANCH  29  38
ENDBRANCH  24  25
ENDBRANCH  11  24
ENDBRANCH   9  10
ENDBRANCH   3   9
BRANCH   2  41
ATOM     41  O   UNL     1       7.918   0.767  26.541  0.00  0.00    -0.368 OA
BRANCH  41  42
ATOM     42  C   UNL     1       6.556   1.247  26.547  0.00  0.00    +0.175 C 
BRANCH  42  43
ATOM     43  C   UNL     1       5.619   0.496  25.586  0.00  0.00    +0.109 C 
BRANCH  43  44
ATOM     44  N   UNL     1       4.254   0.232  26.084  0.00  0.00    -0.314 NA
ATOM     45  H   UNL     1       3.701  -0.120  25.309  0.00  0.00    +0.122 HD
BRANCH  44  46
ATOM     46  C   UNL     1       4.258  -0.733  27.182  0.00  0.00    +0.085 C 
BRANCH  46  47
ATOM     47  C   UNL     1       4.315  -2.182  26.675  0.00  0.00    +0.017 C 
ATOM     48  C   UNL     1       4.799  -3.080  27.830  0.00  0.00    +0.085 C 
ATOM     49  N   UNL     1       4.825  -4.498  27.475  0.00  0.00    -0.316 NA
ATOM     50  H   UNL     1       5.474  -4.634  26.699  0.00  0.00    +0.122 HD
ATOM     51  C   UNL     1       3.496  -4.949  27.061  0.00  0.00    +0.081 C 
ATOM     52  C   UNL     1       3.001  -4.168  25.846  0.00  0.00    +0.015 C 
ATOM     53  C   UNL     1       2.960  -2.669  26.138  0.00  0.00    +0.007 C 
ENDBRANCH  46  47
ENDBRANCH  44  46
ENDBRANCH  43  44
ENDBRANCH  42  43
ENDBRANCH  41  42
ENDBRANCH   2  41
BRANCH   1  54
ATOM     54  O   UNL     1       9.043  -1.731  25.862  0.00  0.00    -0.341 OA
BRANCH  54  59
ATOM     55  C   UNL     1       6.374  -3.645  24.287  0.00  0.00    +0.166 C 
ATOM     56  C   UNL     1       7.001  -5.041  24.128  0.00  0.00    +0.175 C 
ATOM     57  C   UNL     1       7.983  -5.335  25.295  0.00  0.00    +0.167 C 
ATOM     58  C   UNL     1       8.980  -4.173  25.534  0.00  0.00    +0.139 C 
ATOM     59  C   UNL     1       8.170  -2.863  25.672  0.00  0.00    +0.270 C 
ATOM     60  O   UNL     1       7.389  -2.658  24.502  0.00  0.00    -0.343 OA
BRANCH  58  61
ATOM     61  N   UNL     1       9.978  -4.081  24.440  0.00  0.00    -0.321 NA
ATOM     62  H   UNL     1       9.455  -3.968  23.561  0.00  0.00    +0.119 HD
ATOM     63  H   UNL     1      10.453  -3.179  24.548  0.00  0.00    +0.119 HD
ENDBRANCH  58  61
BRANCH  57  64
ATOM     64  O   UNL     1       7.278  -5.650  26.506  0.00  0.00    -0.387 OA
ATOM     65  H   UNL     1       7.061  -4.843  27.000  0.00  0.00    +0.210 HD
ENDBRANCH  57  64
BRANCH  56  66
ATOM     66  O   UNL     1       7.689  -5.121  22.872  0.00  0.00    -0.387 OA
ATOM     67  H   UNL     1       8.359  -5.825  22.942  0.00  0.00    +0.210 HD
ENDBRANCH  56  66
BRANCH  55  68
ATOM     68  C   UNL     1       5.587  -3.151  23.055  0.00  0.00    +0.112 C 
BRANCH  68  69
ATOM     69  N   UNL     1       6.007  -1.846  22.557  0.00  0.00    -0.328 NA
ATOM     70  H   UNL     1       5.629  -1.722  21.616  0.00  0.00    +0.118 HD
ATOM     71  H   UNL     1       5.532  -1.131  23.114  0.00  0.00    +0.118 HD
ENDBRANCH  68  69
ENDBRANCH  55  68
ENDBRANCH  54  59
ENDBRANCH   1  54
TORSDOF 27
ENDMDL
MODEL 4
REMARK VINA RESULT:      -6.0      2.239      4.261
REMARK  Name = 
REMARK  27 active torsions:
REMARK  status: ('A' for Active; 'I' for Inactive)
REMARK    1  A    between atoms: N_1  and  C_2
REMARK    2  A    between atoms: C_2  and  C_3
REMARK    3  A    between atoms: C_6  and  O_8
REMARK    4  A    between atoms: O_8  and  C_9
REMARK    5  A    between atoms: C_11  and  C_13
REMARK    6  A    between atoms: C_13  and  O_14
REMARK    7  A    between atoms: C_16  and  O_18
REMARK    8  A    between atoms: O_18  and  C_19
REMARK    9  A    between atoms: C_21  and  O_23
REMARK   10  A    between atoms: C_24  and  N_26
REMARK   11  A    between atoms: C_28  and  N_30
REMARK   12  A    between atoms: C_31  and  O_33
REMARK   13  A    between atoms: O_33  and  C_34
REMARK   14  A    between atoms: C_37  and  C_39
REMARK   15  A    between atoms: C_39  and  O_40
REMARK   16  A    between atoms: C_41  and  O_43
REMARK   17  A    between atoms: C_44  and  O_46
REMARK   18  A    between atoms: C_47  and  N_49
REMARK   19  A    between atoms: C_50  and  O_52
REMARK   20  A    between atoms: O_52  and  C_53
REMARK   21  A    between atoms: C_53  and  C_54
REMARK   22  A    between atoms: C_54  and  N_55
REMARK   23  A    between atoms: N_55  and  C_56
REMARK   24  A    between atoms: C_56  and  C_57
REMARK   25  A    between atoms: C_64  and  N_66
REMARK   26  A    between atoms: C_67  and  O_69
REMARK   27  A    between atoms: C_70  and  O_72
REMARK                            x       y       z     vdW  Elec       q    Type
REMARK                         _______ _______ _______ _____ _____    ______ ____
ROOT
ATOM      1  C   UNL     1       7.014  -0.137  25.498  0.00  0.00    +0.186 C 
ATOM      2  C   UNL     1       6.801  -0.398  26.998  0.00  0.00    +0.205 C 
ATOM      3  C   UNL     1       5.307  -0.855  27.127  0.00  0.00    +0.282 C 
ATOM      4  O   UNL     1       4.732  -0.833  25.828  0.00  0.00    -0.340 OA
ATOM      5  C   UNL     1       5.728  -0.604  24.832  0.00  0.00    +0.178 C 
ENDROOT
BRANCH   5   6
ATOM      6  C   UNL     1       6.009  -1.849  23.985  0.00  0.00    +0.190 C 
BRANCH   6   7
ATOM      7  O   UNL     1       6.801  -1.502  22.842  0.00  0.00    -0.392 OA
ATOM      8  H   UNL     1       6.210  -1.027  22.226  0.00  0.00    +0.210 HD
ENDBRANCH   6   7
ENDBRANCH   5   6
BRANCH   3   9
ATOM      9  O   UNL     1       5.257  -2.202  27.642  0.00  0.00    -0.340 OA
BRANCH   9  10
ATOM     10  C   UNL     1       4.075  -3.040  27.481  0.00  0.00    +0.182 C 
ATOM     11  C   UNL     1       4.298  -4.506  27.003  0.00  0.00    +0.169 C 
ATOM     12  C   UNL     1       2.913  -5.237  26.854  0.00  0.00    +0.084 C 
ATOM     13  C   UNL     1       2.058  -5.176  28.118  0.00  0.00    +0.042 C 
ATOM     14  C   UNL     1       1.798  -3.730  28.501  0.00  0.00    +0.084 C 
ATOM     15  C   UNL     1       3.117  -2.964  28.700  0.00  0.00    +0.163 C 
BRANCH  14  16
ATOM     16  N   UNL     1       0.970  -3.677  29.727  0.00  0.00    -0.325 NA
ATOM     17  H   UNL     1       1.093  -4.539  30.258  0.00  0.00    +0.119 HD
ATOM     18  H   UNL     1       1.384  -2.949  30.319  0.00  0.00    +0.119 HD
ENDBRANCH  14  16
BRANCH  12  19
ATOM     19  N   UNL     1       3.061  -6.644  26.445  0.00  0.00    -0.325 NA
ATOM     20  H   UNL     1       3.995  -6.811  26.074  0.00  0.00    +0.119 HD
ATOM     21  H   UNL     1       2.963  -7.249  27.262  0.00  0.00    +0.119 HD
ENDBRANCH  12  19
BRANCH  15  22
ATOM     22  O   UNL     1       2.764  -1.597  28.953  0.00  0.00    -0.388 OA
ATOM     23  H   UNL     1       3.613  -1.136  29.127  0.00  0.00    +0.210 HD
ENDBRANCH  15  22
BRANCH  11  24
ATOM     24  O   UNL     1       4.876  -4.601  25.684  0.00  0.00    -0.342 OA
BRANCH  24  25
ATOM     25  C   UNL     1       5.738  -5.702  25.431  0.00  0.00    +0.270 C 
ATOM     26  C   UNL     1       7.228  -5.283  25.676  0.00  0.00    +0.139 C 
ATOM     27  C   UNL     1       7.998  -4.855  24.415  0.00  0.00    +0.167 C 
ATOM     28  C   UNL     1       7.508  -5.496  23.118  0.00  0.00    +0.176 C 
ATOM     29  C   UNL     1       5.982  -5.523  23.062  0.00  0.00    +0.178 C 
ATOM     30  O   UNL     1       5.500  -6.293  24.162  0.00  0.00    -0.342 OA
BRANCH  26  31
ATOM     31  N   UNL     1       7.365  -4.197  26.685  0.00  0.00    -0.321 NA
ATOM     32  H   UNL     1       6.937  -4.482  27.563  0.00  0.00    +0.119 HD
ATOM     33  H   UNL     1       6.856  -3.377  26.342  0.00  0.00    +0.119 HD
ENDBRANCH  26  31
BRANCH  28  34
ATOM     34  O   UNL     1       8.080  -4.787  22.001  0.00  0.00    -0.387 OA
ATOM     35  H   UNL     1       7.569  -5.028  21.201  0.00  0.00    +0.210 HD
ENDBRANCH  28  34
BRANCH  27  36
ATOM     36  O   UNL     1       9.394  -5.197  24.580  0.00  0.00    -0.387 OA
ATOM     37  H   UNL     1       9.842  -4.965  23.746  0.00  0.00    +0.210 HD
ENDBRANCH  27  36
BRANCH  29  38
ATOM     38  C   UNL     1       5.492  -6.193  21.767  0.00  0.00    +0.190 C 
BRANCH  38  39
ATOM     39  O   UNL     1       5.862  -5.457  20.606  0.00  0.00    -0.392 OA
ATOM     40  H   UNL     1       6.840  -5.386  20.619  0.00  0.00    +0.210 HD
ENDBRANCH  38  39
ENDBRANCH  29  38
ENDBRANCH  24  25
ENDBRANCH  11  24
ENDBRANCH   9  10
ENDBRANCH   3   9
BRANCH   2  41
ATOM     41  O   UNL     1       7.246   0.671  27.868  0.00  0.00    -0.368 OA
BRANCH  41  42
ATOM     42  C   UNL     1       6.139   1.481  28.318  0.00  0.00    +0.175 C 
BRANCH  42  43
ATOM     43  C   UNL     1       6.323   2.989  28.078  0.00  0.00    +0.109 C 
BRANCH  43  44
ATOM     44  N   UNL     1       7.511   3.381  27.293  0.00  0.00    -0.314 NA
ATOM     45  H   UNL     1       7.715   2.631  26.641  0.00  0.00    +0.122 HD
BRANCH  44  46
ATOM     46  C   UNL     1       7.291   4.632  26.571  0.00  0.00    +0.085 C 
BRANCH  46  47
ATOM     47  C   UNL     1       8.351   4.864  25.483  0.00  0.00    +0.017 C 
ATOM     48  C   UNL     1       7.629   5.038  24.133  0.00  0.00    +0.085 C 
ATOM     49  N   UNL     1       8.545   5.334  23.033  0.00  0.00    -0.316 NA
ATOM     50  H   UNL     1       9.197   4.556  22.924  0.00  0.00    +0.122 HD
ATOM     51  C   UNL     1       9.309   6.551  23.313  0.00  0.00    +0.081 C 
ATOM     52  C   UNL     1      10.136   6.403  24.588  0.00  0.00    +0.015 C 
ATOM     53  C   UNL     1       9.244   6.078  25.784  0.00  0.00    +0.007 C 
ENDBRANCH  46  47
ENDBRANCH  44  46
ENDBRANCH  43  44
ENDBRANCH  42  43
ENDBRANCH  41  42
ENDBRANCH   2  41
BRANCH   1  54
ATOM     54  O   UNL     1       7.316   1.215  25.099  0.00  0.00    -0.341 OA
BRANCH  54  59
ATOM     55  C   UNL     1      10.205  -0.162  23.359  0.00  0.00    +0.166 C 
ATOM     56  C   UNL     1      10.089   0.459  21.957  0.00  0.00    +0.175 C 
ATOM     57  C   UNL     1       9.467   1.880  22.039  0.00  0.00    +0.167 C 
ATOM     58  C   UNL     1       8.176   1.911  22.897  0.00  0.00    +0.139 C 
ATOM     59  C   UNL     1       8.489   1.252  24.261  0.00  0.00    +0.270 C 
ATOM     60  O   UNL     1       8.956  -0.075  24.055  0.00  0.00    -0.343 OA
BRANCH  58  61
ATOM     61  N   UNL     1       7.052   1.229  22.210  0.00  0.00    -0.321 NA
ATOM     62  H   UNL     1       7.271   0.224  22.192  0.00  0.00    +0.119 HD
ATOM     63  H   UNL     1       6.245   1.283  22.839  0.00  0.00    +0.119 HD
ENDBRANCH  58  61
BRANCH  57  64
ATOM     64  O   UNL     1      10.417   2.841  22.525  0.00  0.00    -0.387 OA
ATOM     65  H   UNL     1      10.219   3.089  23.442  0.00  0.00    +0.210 HD
ENDBRANCH  57  64
BRANCH  56  66
ATOM     66  O   UNL     1       9.285  -0.384  21.121  0.00  0.00    -0.387 OA
ATOM     67  H   UNL     1       8.889   0.172  20.426  0.00  0.00    +0.210 HD
ENDBRANCH  56  66
BRANCH  55  68
ATOM     68  C   UNL     1      10.567  -1.662  23.369  0.00  0.00    +0.112 C 
BRANCH  68  69
ATOM     69  N   UNL     1       9.530  -2.535  22.831  0.00  0.00    -0.328 NA
ATOM     70  H   UNL     1       8.777  -2.603  23.517  0.00  0.00    +0.118 HD
ATOM     71  H   UNL     1       9.101  -2.057  22.034  0.00  0.00    +0.118 HD
ENDBRANCH  68  69
ENDBRANCH  55  68
ENDBRANCH  54  59
ENDBRANCH   1  54
TORSDOF 27
ENDMDL
MODEL 5
REMARK VINA RESULT:      -6.0      1.800      2.585
REMARK  Name = 
REMARK  27 active torsions:
REMARK  status: ('A' for Active; 'I' for Inactive)
REMARK    1  A    between atoms: N_1  and  C_2
REMARK    2  A    between atoms: C_2  and  C_3
REMARK    3  A    between atoms: C_6  and  O_8
REMARK    4  A    between atoms: O_8  and  C_9
REMARK    5  A    between atoms: C_11  and  C_13
REMARK    6  A    between atoms: C_13  and  O_14
REMARK    7  A    between atoms: C_16  and  O_18
REMARK    8  A    between atoms: O_18  and  C_19
REMARK    9  A    between atoms: C_21  and  O_23
REMARK   10  A    between atoms: C_24  and  N_26
REMARK   11  A    between atoms: C_28  and  N_30
REMARK   12  A    between atoms: C_31  and  O_33
REMARK   13  A    between atoms: O_33  and  C_34
REMARK   14  A    between atoms: C_37  and  C_39
REMARK   15  A    between atoms: C_39  and  O_40
REMARK   16  A    between atoms: C_41  and  O_43
REMARK   17  A    between atoms: C_44  and  O_46
REMARK   18  A    between atoms: C_47  and  N_49
REMARK   19  A    between atoms: C_50  and  O_52
REMARK   20  A    between atoms: O_52  and  C_53
REMARK   21  A    between atoms: C_53  and  C_54
REMARK   22  A    between atoms: C_54  and  N_55
REMARK   23  A    between atoms: N_55  and  C_56
REMARK   24  A    between atoms: C_56  and  C_57
REMARK   25  A    between atoms: C_64  and  N_66
REMARK   26  A    between atoms: C_67  and  O_69
REMARK   27  A    between atoms: C_70  and  O_72
REMARK                            x       y       z     vdW  Elec       q    Type
REMARK                         _______ _______ _______ _____ _____    ______ ____
ROOT
ATOM      1  C   UNL     1       5.743   1.707  24.683  0.00  0.00    +0.186 C 
ATOM      2  C   UNL     1       5.816   0.175  24.784  0.00  0.00    +0.205 C 
ATOM      3  C   UNL     1       5.267  -0.168  26.212  0.00  0.00    +0.282 C 
ATOM      4  O   UNL     1       4.936   1.055  26.856  0.00  0.00    -0.340 OA
ATOM      5  C   UNL     1       5.020   2.151  25.946  0.00  0.00    +0.178 C 
ENDROOT
BRANCH   5   6
ATOM      6  C   UNL     1       3.644   2.716  25.580  0.00  0.00    +0.190 C 
BRANCH   6   7
ATOM      7  O   UNL     1       2.608   1.841  26.047  0.00  0.00    -0.392 OA
ATOM      8  H   UNL     1       2.819   1.631  26.978  0.00  0.00    +0.210 HD
ENDBRANCH   6   7
ENDBRANCH   5   6
BRANCH   3   9
ATOM      9  O   UNL     1       4.077  -0.974  26.091  0.00  0.00    -0.340 OA
BRANCH   9  10
ATOM     10  C   UNL     1       3.703  -1.945  27.112  0.00  0.00    +0.182 C 
ATOM     11  C   UNL     1       4.798  -2.950  27.578  0.00  0.00    +0.169 C 
ATOM     12  C   UNL     1       4.200  -3.935  28.649  0.00  0.00    +0.084 C 
ATOM     13  C   UNL     1       3.546  -3.220  29.830  0.00  0.00    +0.042 C 
ATOM     14  C   UNL     1       2.432  -2.314  29.337  0.00  0.00    +0.084 C 
ATOM     15  C   UNL     1       2.959  -1.297  28.311  0.00  0.00    +0.163 C 
BRANCH  14  16
ATOM     16  N   UNL     1       1.804  -1.623  30.485  0.00  0.00    -0.325 NA
ATOM     17  H   UNL     1       1.760  -2.258  31.282  0.00  0.00    +0.119 HD
ATOM     18  H   UNL     1       2.463  -0.893  30.774  0.00  0.00    +0.119 HD
ENDBRANCH  14  16
BRANCH  12  19
ATOM     19  N   UNL     1       5.203  -4.885  29.161  0.00  0.00    -0.325 NA
ATOM     20  H   UNL     1       6.099  -4.739  28.701  0.00  0.00    +0.119 HD
ATOM     21  H   UNL     1       5.358  -4.713  30.156  0.00  0.00    +0.119 HD
ENDBRANCH  12  19
BRANCH  15  22
ATOM     22  O   UNL     1       1.820  -0.567  27.834  0.00  0.00    -0.388 OA
ATOM     23  H   UNL     1       1.053  -1.166  27.963  0.00  0.00    +0.210 HD
ENDBRANCH  15  22
BRANCH  11  24
ATOM     24  O   UNL     1       5.260  -3.828  26.529  0.00  0.00    -0.342 OA
BRANCH  24  25
ATOM     25  C   UNL     1       4.339  -4.146  25.496  0.00  0.00    +0.270 C 
ATOM     26  C   UNL     1       4.214  -5.701  25.349  0.00  0.00    +0.139 C 
ATOM     27  C   UNL     1       5.100  -6.323  24.255  0.00  0.00    +0.167 C 
ATOM     28  C   UNL     1       5.425  -5.391  23.088  0.00  0.00    +0.176 C 
ATOM     29  C   UNL     1       5.763  -3.986  23.585  0.00  0.00    +0.178 C 
ATOM     30  O   UNL     1       4.633  -3.467  24.284  0.00  0.00    -0.342 OA
BRANCH  26  31
ATOM     31  N   UNL     1       4.483  -6.425  26.620  0.00  0.00    -0.321 NA
ATOM     32  H   UNL     1       5.471  -6.361  26.855  0.00  0.00    +0.119 HD
ATOM     33  H   UNL     1       4.261  -7.414  26.477  0.00  0.00    +0.119 HD
ENDBRANCH  26  31
BRANCH  28  34
ATOM     34  O   UNL     1       6.496  -5.966  22.315  0.00  0.00    -0.387 OA
ATOM     35  H   UNL     1       6.991  -6.576  22.898  0.00  0.00    +0.210 HD
ENDBRANCH  28  34
BRANCH  27  36
ATOM     36  O   UNL     1       4.433  -7.489  23.720  0.00  0.00    -0.387 OA
ATOM     37  H   UNL     1       4.790  -8.261  24.196  0.00  0.00    +0.210 HD
ENDBRANCH  27  36
BRANCH  29  38
ATOM     38  C   UNL     1       6.062  -3.045  22.407  0.00  0.00    +0.190 C 
BRANCH  38  39
ATOM     39  O   UNL     1       7.436  -3.067  22.035  0.00  0.00    -0.392 OA
ATOM     40  H   UNL     1       7.554  -2.369  21.357  0.00  0.00    +0.210 HD
ENDBRANCH  38  39
ENDBRANCH  29  38
ENDBRANCH  24  25
ENDBRANCH  11  24
ENDBRANCH   9  10
ENDBRANCH   3   9
BRANCH   2  41
ATOM     41  O   UNL     1       7.092  -0.396  24.409  0.00  0.00    -0.368 OA
BRANCH  41  42
ATOM     42  C   UNL     1       7.623  -1.237  25.456  0.00  0.00    +0.175 C 
BRANCH  42  43
ATOM     43  C   UNL     1       8.778  -0.603  26.249  0.00  0.00    +0.109 C 
BRANCH  43  44
ATOM     44  N   UNL     1       9.402   0.591  25.644  0.00  0.00    -0.314 NA
ATOM     45  H   UNL     1       9.527   1.283  26.376  0.00  0.00    +0.122 HD
BRANCH  44  46
ATOM     46  C   UNL     1      10.687   0.273  25.025  0.00  0.00    +0.085 C 
BRANCH  46  47
ATOM     47  C   UNL     1      10.619   0.331  23.492  0.00  0.00    +0.017 C 
ATOM     48  C   UNL     1      10.186  -1.054  22.974  0.00  0.00    +0.085 C 
ATOM     49  N   UNL     1      10.023  -1.092  21.521  0.00  0.00    -0.316 NA
ATOM     50  H   UNL     1      10.918  -0.875  21.080  0.00  0.00    +0.122 HD
ATOM     51  C   UNL     1       9.035  -0.103  21.088  0.00  0.00    +0.081 C 
ATOM     52  C   UNL     1       9.460   1.310  21.478  0.00  0.00    +0.015 C 
ATOM     53  C   UNL     1       9.665   1.424  22.987  0.00  0.00    +0.007 C 
ENDBRANCH  46  47
ENDBRANCH  44  46
ENDBRANCH  43  44
ENDBRANCH  42  43
ENDBRANCH  41  42
ENDBRANCH   2  41
BRANCH   1  54
ATOM     54  O   UNL     1       6.987   2.421  24.548  0.00  0.00    -0.341 OA
BRANCH  54  59
ATOM     55  C   UNL     1       7.905   5.895  23.950  0.00  0.00    +0.166 C 
ATOM     56  C   UNL     1       7.050   6.271  22.727  0.00  0.00    +0.175 C 
ATOM     57  C   UNL     1       5.695   5.511  22.754  0.00  0.00    +0.167 C 
ATOM     58  C   UNL     1       5.874   3.993  23.009  0.00  0.00    +0.139 C 
ATOM     59  C   UNL     1       6.751   3.817  24.272  0.00  0.00    +0.270 C 
ATOM     60  O   UNL     1       7.998   4.473  24.084  0.00  0.00    -0.343 OA
BRANCH  58  61
ATOM     61  N   UNL     1       6.472   3.312  21.835  0.00  0.00    -0.321 NA
ATOM     62  H   UNL     1       6.766   4.046  21.176  0.00  0.00    +0.119 HD
ATOM     63  H   UNL     1       7.361   2.908  22.148  0.00  0.00    +0.119 HD
ENDBRANCH  58  61
BRANCH  57  64
ATOM     64  O   UNL     1       4.794   6.080  23.717  0.00  0.00    -0.387 OA
ATOM     65  H   UNL     1       3.871   5.904  23.473  0.00  0.00    +0.210 HD
ENDBRANCH  57  64
BRANCH  56  66
ATOM     66  O   UNL     1       7.767   5.959  21.525  0.00  0.00    -0.387 OA
ATOM     67  H   UNL     1       8.605   5.532  21.778  0.00  0.00    +0.210 HD
ENDBRANCH  56  66
BRANCH  55  68
ATOM     68  C   UNL     1       9.365   6.390  23.889  0.00  0.00    +0.112 C 
BRANCH  68  69
ATOM     69  N   UNL     1      10.310   5.411  23.363  0.00  0.00    -0.328 NA
ATOM     70  H   UNL     1      10.491   5.632  22.382  0.00  0.00    +0.118 HD
ATOM     71  H   UNL     1      11.210   5.566  23.825  0.00  0.00    +0.118 HD
ENDBRANCH  68  69
ENDBRANCH  55  68
ENDBRANCH  54  59
ENDBRANCH   1  54
TORSDOF 27
ENDMDL
MODEL 6
REMARK VINA RESULT:      -5.8      1.630      2.560
REMARK  Name = 
REMARK  27 active torsions:
REMARK  status: ('A' for Active; 'I' for Inactive)
REMARK    1  A    between atoms: N_1  and  C_2
REMARK    2  A    between atoms: C_2  and  C_3
REMARK    3  A    between atoms: C_6  and  O_8
REMARK    4  A    between atoms: O_8  and  C_9
REMARK    5  A    between atoms: C_11  and  C_13
REMARK    6  A    between atoms: C_13  and  O_14
REMARK    7  A    between atoms: C_16  and  O_18
REMARK    8  A    between atoms: O_18  and  C_19
REMARK    9  A    between atoms: C_21  and  O_23
REMARK   10  A    between atoms: C_24  and  N_26
REMARK   11  A    between atoms: C_28  and  N_30
REMARK   12  A    between atoms: C_31  and  O_33
REMARK   13  A    between atoms: O_33  and  C_34
REMARK   14  A    between atoms: C_37  and  C_39
REMARK   15  A    between atoms: C_39  and  O_40
REMARK   16  A    between atoms: C_41  and  O_43
REMARK   17  A    between atoms: C_44  and  O_46
REMARK   18  A    between atoms: C_47  and  N_49
REMARK   19  A    between atoms: C_50  and  O_52
REMARK   20  A    between atoms: O_52  and  C_53
REMARK   21  A    between atoms: C_53  and  C_54
REMARK   22  A    between atoms: C_54  and  N_55
REMARK   23  A    between atoms: N_55  and  C_56
REMARK   24  A    between atoms: C_56  and  C_57
REMARK   25  A    between atoms: C_64  and  N_66
REMARK   26  A    between atoms: C_67  and  O_69
REMARK   27  A    between atoms: C_70  and  O_72
REMARK                            x       y       z     vdW  Elec       q    Type
REMARK                         _______ _______ _______ _____ _____    ______ ____
ROOT
ATOM      1  C   UNL     1       5.576   0.891  25.555  0.00  0.00    +0.186 C 
ATOM      2  C   UNL     1       5.690  -0.573  25.098  0.00  0.00    +0.205 C 
ATOM      3  C   UNL     1       5.285  -1.425  26.351  0.00  0.00    +0.282 C 
ATOM      4  O   UNL     1       4.991  -0.527  27.411  0.00  0.00    -0.340 OA
ATOM      5  C   UNL     1       4.966   0.822  26.947  0.00  0.00    +0.178 C 
ENDROOT
BRANCH   5   6
ATOM      6  C   UNL     1       3.550   1.407  26.919  0.00  0.00    +0.190 C 
BRANCH   6   7
ATOM      7  O   UNL     1       3.481   2.492  25.985  0.00  0.00    -0.392 OA
ATOM      8  H   UNL     1       4.271   2.421  25.415  0.00  0.00    +0.210 HD
ENDBRANCH   6   7
ENDBRANCH   5   6
BRANCH   3   9
ATOM      9  O   UNL     1       4.105  -2.198  26.047  0.00  0.00    -0.340 OA
BRANCH   9  10
ATOM     10  C   UNL     1       3.795  -3.432  26.759  0.00  0.00    +0.182 C 
ATOM     11  C   UNL     1       4.696  -4.670  26.471  0.00  0.00    +0.169 C 
ATOM     12  C   UNL     1       4.187  -5.907  27.298  0.00  0.00    +0.084 C 
ATOM     13  C   UNL     1       4.069  -5.626  28.796  0.00  0.00    +0.042 C 
ATOM     14  C   UNL     1       3.118  -4.466  29.034  0.00  0.00    +0.084 C 
ATOM     15  C   UNL     1       3.581  -3.208  28.280  0.00  0.00    +0.163 C 
BRANCH  14  16
ATOM     16  N   UNL     1       3.009  -4.198  30.485  0.00  0.00    -0.325 NA
ATOM     17  H   UNL     1       2.103  -3.775  30.685  0.00  0.00    +0.119 HD
ATOM     18  H   UNL     1       2.971  -5.115  30.942  0.00  0.00    +0.119 HD
ENDBRANCH  14  16
BRANCH  12  19
ATOM     19  N   UNL     1       5.029  -7.100  27.101  0.00  0.00    -0.325 NA
ATOM     20  H   UNL     1       4.799  -7.815  27.788  0.00  0.00    +0.119 HD
ATOM     21  H   UNL     1       4.834  -7.507  26.184  0.00  0.00    +0.119 HD
ENDBRANCH  12  19
BRANCH  15  22
ATOM     22  O   UNL     1       2.569  -2.212  28.484  0.00  0.00    -0.388 OA
ATOM     23  H   UNL     1       2.233  -2.363  29.393  0.00  0.00    +0.210 HD
ENDBRANCH  15  22
BRANCH  11  24
ATOM     24  O   UNL     1       4.632  -5.126  25.103  0.00  0.00    -0.342 OA
BRANCH  24  25
ATOM     25  C   UNL     1       5.333  -4.363  24.132  0.00  0.00    +0.270 C 
ATOM     26  C   UNL     1       5.235  -5.059  22.731  0.00  0.00    +0.139 C 
ATOM     27  C   UNL     1       6.432  -5.955  22.366  0.00  0.00    +0.167 C 
ATOM     28  C   UNL     1       7.756  -5.549  23.011  0.00  0.00    +0.176 C 
ATOM     29  C   UNL     1       7.557  -5.166  24.477  0.00  0.00    +0.178 C 
ATOM     30  O   UNL     1       6.660  -4.059  24.540  0.00  0.00    -0.342 OA
BRANCH  26  31
ATOM     31  N   UNL     1       3.995  -5.867  22.573  0.00  0.00    -0.321 NA
ATOM     32  H   UNL     1       3.449  -5.838  23.430  0.00  0.00    +0.119 HD
ATOM     33  H   UNL     1       4.268  -6.840  22.410  0.00  0.00    +0.119 HD
ENDBRANCH  26  31
BRANCH  28  34
ATOM     34  O   UNL     1       8.701  -6.625  22.856  0.00  0.00    -0.387 OA
ATOM     35  H   UNL     1       9.074  -6.567  21.952  0.00  0.00    +0.210 HD
ENDBRANCH  28  34
BRANCH  27  36
ATOM     36  O   UNL     1       6.612  -5.932  20.931  0.00  0.00    -0.387 OA
ATOM     37  H   UNL     1       5.868  -5.422  20.561  0.00  0.00    +0.210 HD
ENDBRANCH  27  36
BRANCH  29  38
ATOM     38  C   UNL     1       8.886  -4.732  25.116  0.00  0.00    +0.190 C 
BRANCH  38  39
ATOM     39  O   UNL     1       9.829  -5.798  25.176  0.00  0.00    -0.392 OA
ATOM     40  H   UNL     1      10.469  -5.646  24.449  0.00  0.00    +0.210 HD
ENDBRANCH  38  39
ENDBRANCH  29  38
ENDBRANCH  24  25
ENDBRANCH  11  24
ENDBRANCH   9  10
ENDBRANCH   3   9
BRANCH   2  41
ATOM     41  O   UNL     1       6.937  -0.907  24.443  0.00  0.00    -0.368 OA
BRANCH  41  42
ATOM     42  C   UNL     1       6.809  -0.854  23.006  0.00  0.00    +0.175 C 
BRANCH  42  43
ATOM     43  C   UNL     1       7.551  -1.979  22.264  0.00  0.00    +0.109 C 
BRANCH  43  44
ATOM     44  N   UNL     1       9.017  -1.833  22.167  0.00  0.00    -0.314 NA
ATOM     45  H   UNL     1       9.392  -2.696  21.785  0.00  0.00    +0.122 HD
BRANCH  44  46
ATOM     46  C   UNL     1       9.392  -0.702  21.320  0.00  0.00    +0.085 C 
BRANCH  46  47
ATOM     47  C   UNL     1      10.192   0.357  22.093  0.00  0.00    +0.017 C 
ATOM     48  C   UNL     1       9.448   1.702  21.982  0.00  0.00    +0.085 C 
ATOM     49  N   UNL     1      10.091   2.772  22.743  0.00  0.00    -0.316 NA
ATOM     50  H   UNL     1      11.032   2.921  22.377  0.00  0.00    +0.122 HD
ATOM     51  C   UNL     1      10.190   2.409  24.158  0.00  0.00    +0.081 C 
ATOM     52  C   UNL     1      11.013   1.136  24.345  0.00  0.00    +0.015 C 
ATOM     53  C   UNL     1      10.407  -0.028  23.565  0.00  0.00    +0.007 C 
ENDBRANCH  46  47
ENDBRANCH  44  46
ENDBRANCH  43  44
ENDBRANCH  42  43
ENDBRANCH  41  42
ENDBRANCH   2  41
BRANCH   1  54
ATOM     54  O   UNL     1       6.788   1.671  25.583  0.00  0.00    -0.341 OA
BRANCH  54  59
ATOM     55  C   UNL     1       5.368   3.593  22.834  0.00  0.00    +0.166 C 
ATOM     56  C   UNL     1       5.599   5.048  23.276  0.00  0.00    +0.175 C 
ATOM     57  C   UNL     1       6.912   5.167  24.099  0.00  0.00    +0.167 C 
ATOM     58  C   UNL     1       7.005   4.099  25.219  0.00  0.00    +0.139 C 
ATOM     59  C   UNL     1       6.750   2.711  24.585  0.00  0.00    +0.270 C 
ATOM     60  O   UNL     1       5.479   2.702  23.949  0.00  0.00    -0.343 OA
BRANCH  58  61
ATOM     61  N   UNL     1       6.045   4.379  26.315  0.00  0.00    -0.321 NA
ATOM     62  H   UNL     1       6.533   4.189  27.201  0.00  0.00    +0.119 HD
ATOM     63  H   UNL     1       5.907   5.394  26.336  0.00  0.00    +0.119 HD
ENDBRANCH  58  61
BRANCH  57  64
ATOM     64  O   UNL     1       8.069   5.107  23.251  0.00  0.00    -0.387 OA
ATOM     65  H   UNL     1       8.150   4.233  22.836  0.00  0.00    +0.210 HD
ENDBRANCH  57  64
BRANCH  56  66
ATOM     66  O   UNL     1       4.484   5.496  24.059  0.00  0.00    -0.387 OA
ATOM     67  H   UNL     1       4.418   4.922  24.843  0.00  0.00    +0.210 HD
ENDBRANCH  56  66
BRANCH  55  68
ATOM     68  C   UNL     1       3.972   3.318  22.236  0.00  0.00    +0.112 C 
BRANCH  68  69
ATOM     69  N   UNL     1       2.985   2.851  23.204  0.00  0.00    -0.328 NA
ATOM     70  H   UNL     1       2.954   1.831  23.166  0.00  0.00    +0.118 HD
ATOM     71  H   UNL     1       3.343   3.057  24.140  0.00  0.00    +0.118 HD
ENDBRANCH  68  69
ENDBRANCH  55  68
ENDBRANCH  54  59
ENDBRANCH   1  54
TORSDOF 27
ENDMDL
MODEL 7
REMARK VINA RESULT:      -5.8      2.495      9.377
REMARK  Name = 
REMARK  27 active torsions:
REMARK  status: ('A' for Active; 'I' for Inactive)
REMARK    1  A    between atoms: N_1  and  C_2
REMARK    2  A    between atoms: C_2  and  C_3
REMARK    3  A    between atoms: C_6  and  O_8
REMARK    4  A    between atoms: O_8  and  C_9
REMARK    5  A    between atoms: C_11  and  C_13
REMARK    6  A    between atoms: C_13  and  O_14
REMARK    7  A    between atoms: C_16  and  O_18
REMARK    8  A    between atoms: O_18  and  C_19
REMARK    9  A    between atoms: C_21  and  O_23
REMARK   10  A    between atoms: C_24  and  N_26
REMARK   11  A    between atoms: C_28  and  N_30
REMARK   12  A    between atoms: C_31  and  O_33
REMARK   13  A    between atoms: O_33  and  C_34
REMARK   14  A    between atoms: C_37  and  C_39
REMARK   15  A    between atoms: C_39  and  O_40
REMARK   16  A    between atoms: C_41  and  O_43
REMARK   17  A    between atoms: C_44  and  O_46
REMARK   18  A    between atoms: C_47  and  N_49
REMARK   19  A    between atoms: C_50  and  O_52
REMARK   20  A    between atoms: O_52  and  C_53
REMARK   21  A    between atoms: C_53  and  C_54
REMARK   22  A    between atoms: C_54  and  N_55
REMARK   23  A    between atoms: N_55  and  C_56
REMARK   24  A    between atoms: C_56  and  C_57
REMARK   25  A    between atoms: C_64  and  N_66
REMARK   26  A    between atoms: C_67  and  O_69
REMARK   27  A    between atoms: C_70  and  O_72
REMARK                            x       y       z     vdW  Elec       q    Type
REMARK                         _______ _______ _______ _____ _____    ______ ____
ROOT
ATOM      1  C   UNL     1       8.859  -0.831  24.525  0.00  0.00    +0.186 C 
ATOM      2  C   UNL     1       8.318   0.574  24.834  0.00  0.00    +0.205 C 
ATOM      3  C   UNL     1       9.451   1.558  24.380  0.00  0.00    +0.282 C 
ATOM      4  O   UNL     1      10.530   0.778  23.884  0.00  0.00    -0.340 OA
ATOM      5  C   UNL     1      10.161  -0.596  23.776  0.00  0.00    +0.178 C 
ENDROOT
BRANCH   5   6
ATOM      6  C   UNL     1      10.009  -1.050  22.321  0.00  0.00    +0.190 C 
BRANCH   6   7
ATOM      7  O   UNL     1       9.190  -2.225  22.252  0.00  0.00    -0.392 OA
ATOM      8  H   UNL     1       8.320  -1.981  22.624  0.00  0.00    +0.210 HD
ENDBRANCH   6   7
ENDBRANCH   5   6
BRANCH   3   9
ATOM      9  O   UNL     1       8.959   2.408  23.324  0.00  0.00    -0.340 OA
BRANCH   9  10
ATOM     10  C   UNL     1       9.158   3.852  23.347  0.00  0.00    +0.182 C 
ATOM     11  C   UNL     1       8.058   4.715  24.034  0.00  0.00    +0.169 C 
ATOM     12  C   UNL     1       8.428   6.239  23.928  0.00  0.00    +0.084 C 
ATOM     13  C   UNL     1       9.822   6.562  24.466  0.00  0.00    +0.042 C 
ATOM     14  C   UNL     1      10.868   5.761  23.714  0.00  0.00    +0.084 C 
ATOM     15  C   UNL     1      10.585   4.252  23.809  0.00  0.00    +0.163 C 
BRANCH  14  16
ATOM     16  N   UNL     1      12.215   6.076  24.240  0.00  0.00    -0.325 NA
ATOM     17  H   UNL     1      12.133   6.743  25.007  0.00  0.00    +0.119 HD
ATOM     18  H   UNL     1      12.557   5.216  24.683  0.00  0.00    +0.119 HD
ENDBRANCH  14  16
BRANCH  12  19
ATOM     19  N   UNL     1       7.445   7.105  24.600  0.00  0.00    -0.325 NA
ATOM     20  H   UNL     1       6.622   7.233  24.013  0.00  0.00    +0.119 HD
ATOM     21  H   UNL     1       7.120   6.653  25.457  0.00  0.00    +0.119 HD
ENDBRANCH  12  19
BRANCH  15  22
ATOM     22  O   UNL     1      11.560   3.598  22.986  0.00  0.00    -0.388 OA
ATOM     23  H   UNL     1      11.056   3.225  22.230  0.00  0.00    +0.210 HD
ENDBRANCH  15  22
BRANCH  11  24
ATOM     24  O   UNL     1       6.770   4.632  23.386  0.00  0.00    -0.342 OA
BRANCH  24  25
ATOM     25  C   UNL     1       5.678   4.175  24.170  0.00  0.00    +0.270 C 
ATOM     26  C   UNL     1       4.866   3.093  23.379  0.00  0.00    +0.139 C 
ATOM     27  C   UNL     1       3.635   3.627  22.626  0.00  0.00    +0.167 C 
ATOM     28  C   UNL     1       2.997   4.871  23.242  0.00  0.00    +0.176 C 
ATOM     29  C   UNL     1       4.064   5.870  23.690  0.00  0.00    +0.178 C 
ATOM     30  O   UNL     1       4.889   5.245  24.671  0.00  0.00    -0.342 OA
BRANCH  26  31
ATOM     31  N   UNL     1       5.704   2.339  22.407  0.00  0.00    -0.321 NA
ATOM     32  H   UNL     1       6.643   2.727  22.382  0.00  0.00    +0.119 HD
ATOM     33  H   UNL     1       5.294   2.454  21.476  0.00  0.00    +0.119 HD
ENDBRANCH  26  31
BRANCH  28  34
ATOM     34  O   UNL     1       2.080   5.446  22.292  0.00  0.00    -0.387 OA
ATOM     35  H   UNL     1       1.402   4.772  22.085  0.00  0.00    +0.210 HD
ENDBRANCH  28  34
BRANCH  27  36
ATOM     36  O   UNL     1       2.628   2.589  22.580  0.00  0.00    -0.387 OA
ATOM     37  H   UNL     1       1.762   3.034  22.626  0.00  0.00    +0.210 HD
ENDBRANCH  27  36
BRANCH  29  38
ATOM     38  C   UNL     1       3.420   7.108  24.334  0.00  0.00    +0.190 C 
BRANCH  38  39
ATOM     39  O   UNL     1       2.123   6.833  24.852  0.00  0.00    -0.392 OA
ATOM     40  H   UNL     1       1.826   5.997  24.433  0.00  0.00    +0.210 HD
ENDBRANCH  38  39
ENDBRANCH  29  38
ENDBRANCH  24  25
ENDBRANCH  11  24
ENDBRANCH   9  10
ENDBRANCH   3   9
BRANCH   2  41
ATOM     41  O   UNL     1       7.791   0.740  26.172  0.00  0.00    -0.368 OA
BRANCH  41  42
ATOM     42  C   UNL     1       6.571   1.513  26.167  0.00  0.00    +0.175 C 
BRANCH  42  43
ATOM     43  C   UNL     1       5.291   0.672  26.307  0.00  0.00    +0.109 C 
BRANCH  43  44
ATOM     44  N   UNL     1       5.445  -0.782  26.100  0.00  0.00    -0.314 NA
ATOM     45  H   UNL     1       6.382  -0.950  25.750  0.00  0.00    +0.122 HD
BRANCH  44  46
ATOM     46  C   UNL     1       5.226  -1.529  27.337  0.00  0.00    +0.085 C 
BRANCH  46  47
ATOM     47  C   UNL     1       4.648  -2.927  27.073  0.00  0.00    +0.017 C 
ATOM     48  C   UNL     1       4.555  -3.675  28.416  0.00  0.00    +0.085 C 
ATOM     49  N   UNL     1       3.951  -5.000  28.289  0.00  0.00    -0.316 NA
ATOM     50  H   UNL     1       4.528  -5.571  27.669  0.00  0.00    +0.122 HD
ATOM     51  C   UNL     1       2.607  -4.900  27.718  0.00  0.00    +0.081 C 
ATOM     52  C   UNL     1       2.641  -4.262  26.332  0.00  0.00    +0.015 C 
ATOM     53  C   UNL     1       3.275  -2.874  26.383  0.00  0.00    +0.007 C 
ENDBRANCH  46  47
ENDBRANCH  44  46
ENDBRANCH  43  44
ENDBRANCH  42  43
ENDBRANCH  41  42
ENDBRANCH   2  41
BRANCH   1  54
ATOM     54  O   UNL     1       9.082  -1.713  25.643  0.00  0.00    -0.341 OA
BRANCH  54  59
ATOM     55  C   UNL     1       6.399  -3.774  24.294  0.00  0.00    +0.166 C 
ATOM     56  C   UNL     1       7.025  -5.179  24.267  0.00  0.00    +0.175 C 
ATOM     57  C   UNL     1       8.019  -5.356  25.448  0.00  0.00    +0.167 C 
ATOM     58  C   UNL     1       9.018  -4.176  25.560  0.00  0.00    +0.139 C 
ATOM     59  C   UNL     1       8.208  -2.858  25.576  0.00  0.00    +0.270 C 
ATOM     60  O   UNL     1       7.414  -2.770  24.399  0.00  0.00    -0.343 OA
BRANCH  58  61
ATOM     61  N   UNL     1      10.004  -4.193  24.451  0.00  0.00    -0.321 NA
ATOM     62  H   UNL     1       9.972  -3.268  24.003  0.00  0.00    +0.119 HD
ATOM     63  H   UNL     1      10.934  -4.213  24.883  0.00  0.00    +0.119 HD
ENDBRANCH  58  61
BRANCH  57  64
ATOM     64  O   UNL     1       7.328  -5.549  26.691  0.00  0.00    -0.387 OA
ATOM     65  H   UNL     1       6.581  -6.159  26.581  0.00  0.00    +0.210 HD
ENDBRANCH  57  64
BRANCH  56  66
ATOM     66  O   UNL     1       7.700  -5.382  23.019  0.00  0.00    -0.387 OA
ATOM     67  H   UNL     1       7.047  -5.272  22.304  0.00  0.00    +0.210 HD
ENDBRANCH  56  66
BRANCH  55  68
ATOM     68  C   UNL     1       5.598  -3.404  23.028  0.00  0.00    +0.112 C 
BRANCH  68  69
ATOM     69  N   UNL     1       4.630  -4.413  22.612  0.00  0.00    -0.328 NA
ATOM     70  H   UNL     1       4.225  -4.124  21.720  0.00  0.00    +0.118 HD
ATOM     71  H   UNL     1       5.145  -5.268  22.389  0.00  0.00    +0.118 HD
ENDBRANCH  68  69
ENDBRANCH  55  68
ENDBRANCH  54  59
ENDBRANCH   1  54
TORSDOF 27
ENDMDL
MODEL 8
REMARK VINA RESULT:      -5.8      2.547      8.126
REMARK  Name = 
REMARK  27 active torsions:
REMARK  status: ('A' for Active; 'I' for Inactive)
REMARK    1  A    between atoms: N_1  and  C_2
REMARK    2  A    between atoms: C_2  and  C_3
REMARK    3  A    between atoms: C_6  and  O_8
REMARK    4  A    between atoms: O_8  and  C_9
REMARK    5  A    between atoms: C_11  and  C_13
REMARK    6  A    between atoms: C_13  and  O_14
REMARK    7  A    between atoms: C_16  and  O_18
REMARK    8  A    between atoms: O_18  and  C_19
REMARK    9  A    between atoms: C_21  and  O_23
REMARK   10  A    between atoms: C_24  and  N_26
REMARK   11  A    between atoms: C_28  and  N_30
REMARK   12  A    between atoms: C_31  and  O_33
REMARK   13  A    between atoms: O_33  and  C_34
REMARK   14  A    between atoms: C_37  and  C_39
REMARK   15  A    between atoms: C_39  and  O_40
REMARK   16  A    between atoms: C_41  and  O_43
REMARK   17  A    between atoms: C_44  and  O_46
REMARK   18  A    between atoms: C_47  and  N_49
REMARK   19  A    between atoms: C_50  and  O_52
REMARK   20  A    between atoms: O_52  and  C_53
REMARK   21  A    between atoms: C_53  and  C_54
REMARK   22  A    between atoms: C_54  and  N_55
REMARK   23  A    between atoms: N_55  and  C_56
REMARK   24  A    between atoms: C_56  and  C_57
REMARK   25  A    between atoms: C_64  and  N_66
REMARK   26  A    between atoms: C_67  and  O_69
REMARK   27  A    between atoms: C_70  and  O_72
REMARK                            x       y       z     vdW  Elec       q    Type
REMARK                         _______ _______ _______ _____ _____    ______ ____
ROOT
ATOM      1  C   UNL     1       4.270  -1.151  26.798  0.00  0.00    +0.186 C 
ATOM      2  C   UNL     1       5.343  -0.670  25.806  0.00  0.00    +0.205 C 
ATOM      3  C   UNL     1       5.368   0.890  25.956  0.00  0.00    +0.282 C 
ATOM      4  O   UNL     1       4.392   1.251  26.923  0.00  0.00    -0.340 OA
ATOM      5  C   UNL     1       3.862   0.094  27.570  0.00  0.00    +0.178 C 
ENDROOT
BRANCH   5   6
ATOM      6  C   UNL     1       4.325  -0.027  29.026  0.00  0.00    +0.190 C 
BRANCH   6   7
ATOM      7  O   UNL     1       4.099  -1.358  29.508  0.00  0.00    -0.392 OA
ATOM      8  H   UNL     1       3.148  -1.543  29.381  0.00  0.00    +0.210 HD
ENDBRANCH   6   7
ENDBRANCH   5   6
BRANCH   3   9
ATOM      9  O   UNL     1       6.669   1.310  26.420  0.00  0.00    -0.340 OA
BRANCH   9  10
ATOM     10  C   UNL     1       7.392   2.405  25.786  0.00  0.00    +0.182 C 
ATOM     11  C   UNL     1       7.270   2.541  24.238  0.00  0.00    +0.169 C 
ATOM     12  C   UNL     1       8.143   3.749  23.736  0.00  0.00    +0.084 C 
ATOM     13  C   UNL     1       7.823   5.063  24.449  0.00  0.00    +0.042 C 
ATOM     14  C   UNL     1       8.034   4.908  25.944  0.00  0.00    +0.084 C 
ATOM     15  C   UNL     1       7.177   3.762  26.508  0.00  0.00    +0.163 C 
BRANCH  14  16
ATOM     16  N   UNL     1       7.722   6.182  26.628  0.00  0.00    -0.325 NA
ATOM     17  H   UNL     1       6.806   6.115  27.072  0.00  0.00    +0.119 HD
ATOM     18  H   UNL     1       8.382   6.255  27.410  0.00  0.00    +0.119 HD
ENDBRANCH  14  16
BRANCH  12  19
ATOM     19  N   UNL     1       8.033   3.955  22.282  0.00  0.00    -0.325 NA
ATOM     20  H   UNL     1       7.247   3.430  21.906  0.00  0.00    +0.119 HD
ATOM     21  H   UNL     1       7.841   4.940  22.090  0.00  0.00    +0.119 HD
ENDBRANCH  12  19
BRANCH  15  22
ATOM     22  O   UNL     1       7.525   3.632  27.893  0.00  0.00    -0.388 OA
ATOM     23  H   UNL     1       7.500   4.544  28.256  0.00  0.00    +0.210 HD
ENDBRANCH  15  22
BRANCH  11  24
ATOM     24  O   UNL     1       7.805   1.411  23.516  0.00  0.00    -0.342 OA
BRANCH  24  25
ATOM     25  C   UNL     1       9.165   1.077  23.750  0.00  0.00    +0.270 C 
ATOM     26  C   UNL     1       9.775   0.388  22.481  0.00  0.00    +0.139 C 
ATOM     27  C   UNL     1       9.767  -1.150  22.510  0.00  0.00    +0.167 C 
ATOM     28  C   UNL     1       9.824  -1.764  23.908  0.00  0.00    +0.176 C 
ATOM     29  C   UNL     1       8.906  -1.015  24.874  0.00  0.00    +0.178 C 
ATOM     30  O   UNL     1       9.340   0.341  24.953  0.00  0.00    -0.342 OA
BRANCH  26  31
ATOM     31  N   UNL     1       9.121   0.824  21.218  0.00  0.00    -0.321 NA
ATOM     32  H   UNL     1       9.067   0.044  20.567  0.00  0.00    +0.119 HD
ATOM     33  H   UNL     1       9.705   1.548  20.790  0.00  0.00    +0.119 HD
ENDBRANCH  26  31
BRANCH  28  34
ATOM     34  O   UNL     1       9.491  -3.163  23.819  0.00  0.00    -0.387 OA
ATOM     35  H   UNL     1      10.329  -3.669  23.800  0.00  0.00    +0.210 HD
ENDBRANCH  28  34
BRANCH  27  36
ATOM     36  O   UNL     1      10.907  -1.638  21.765  0.00  0.00    -0.387 OA
ATOM     37  H   UNL     1      11.134  -2.510  22.137  0.00  0.00    +0.210 HD
ENDBRANCH  27  36
BRANCH  29  38
ATOM     38  C   UNL     1       8.987  -1.619  26.286  0.00  0.00    +0.190 C 
BRANCH  38  39
ATOM     39  O   UNL     1       8.954  -0.621  27.301  0.00  0.00    -0.392 OA
ATOM     40  H   UNL     1       9.449  -0.985  28.066  0.00  0.00    +0.210 HD
ENDBRANCH  38  39
ENDBRANCH  29  38
ENDBRANCH  24  25
ENDBRANCH  11  24
ENDBRANCH   9  10
ENDBRANCH   3   9
BRANCH   2  41
ATOM     41  O   UNL     1       5.214  -1.207  24.468  0.00  0.00    -0.368 OA
BRANCH  41  42
ATOM     42  C   UNL     1       5.849  -2.499  24.354  0.00  0.00    +0.175 C 
BRANCH  42  43
ATOM     43  C   UNL     1       6.036  -2.984  22.906  0.00  0.00    +0.109 C 
BRANCH  43  44
ATOM     44  N   UNL     1       4.977  -3.865  22.375  0.00  0.00    -0.314 NA
ATOM     45  H   UNL     1       5.424  -4.671  21.951  0.00  0.00    +0.122 HD
BRANCH  44  46
ATOM     46  C   UNL     1       4.056  -4.294  23.426  0.00  0.00    +0.085 C 
BRANCH  46  47
ATOM     47  C   UNL     1       3.511  -5.708  23.174  0.00  0.00    +0.017 C 
ATOM     48  C   UNL     1       3.980  -6.620  24.323  0.00  0.00    +0.085 C 
ATOM     49  N   UNL     1       3.458  -7.982  24.218  0.00  0.00    -0.316 NA
ATOM     50  H   UNL     1       3.793  -8.400  23.349  0.00  0.00    +0.122 HD
ATOM     51  C   UNL     1       1.994  -7.971  24.200  0.00  0.00    +0.081 C 
ATOM     52  C   UNL     1       1.462  -7.169  23.015  0.00  0.00    +0.015 C 
ATOM     53  C   UNL     1       1.979  -5.732  23.050  0.00  0.00    +0.007 C 
ENDBRANCH  46  47
ENDBRANCH  44  46
ENDBRANCH  43  44
ENDBRANCH  42  43
ENDBRANCH  41  42
ENDBRANCH   2  41
BRANCH   1  54
ATOM     54  O   UNL     1       3.105  -1.798  26.249  0.00  0.00    -0.341 OA
BRANCH  54  59
ATOM     55  C   UNL     1       4.224  -4.815  27.954  0.00  0.00    +0.166 C 
ATOM     56  C   UNL     1       2.967  -5.263  28.720  0.00  0.00    +0.175 C 
ATOM     57  C   UNL     1       1.684  -4.897  27.925  0.00  0.00    +0.167 C 
ATOM     58  C   UNL     1       1.689  -3.424  27.442  0.00  0.00    +0.139 C 
ATOM     59  C   UNL     1       3.019  -3.166  26.696  0.00  0.00    +0.270 C 
ATOM     60  O   UNL     1       4.114  -3.443  27.560  0.00  0.00    -0.343 OA
BRANCH  58  61
ATOM     61  N   UNL     1       1.510  -2.481  28.574  0.00  0.00    -0.321 NA
ATOM     62  H   UNL     1       0.502  -2.434  28.773  0.00  0.00    +0.119 HD
ATOM     63  H   UNL     1       1.892  -2.942  29.406  0.00  0.00    +0.119 HD
ENDBRANCH  58  61
BRANCH  57  64
ATOM     64  O   UNL     1       1.481  -5.788  26.818  0.00  0.00    -0.387 OA
ATOM     65  H   UNL     1       0.536  -5.886  26.621  0.00  0.00    +0.210 HD
ENDBRANCH  57  64
BRANCH  56  66
ATOM     66  O   UNL     1       2.943  -4.639  30.011  0.00  0.00    -0.387 OA
ATOM     67  H   UNL     1       2.911  -3.674  29.878  0.00  0.00    +0.210 HD
ENDBRANCH  56  66
BRANCH  55  68
ATOM     68  C   UNL     1       5.534  -4.896  28.766  0.00  0.00    +0.112 C 
BRANCH  68  69
ATOM     69  N   UNL     1       6.731  -5.097  27.958  0.00  0.00    -0.328 NA
ATOM     70  H   UNL     1       7.157  -4.186  27.779  0.00  0.00    +0.118 HD
ATOM     71  H   UNL     1       7.420  -5.586  28.535  0.00  0.00    +0.118 HD
ENDBRANCH  68  69
ENDBRANCH  55  68
ENDBRANCH  54  59
ENDBRANCH   1  54
TORSDOF 27
ENDMDL
MODEL 9
REMARK VINA RESULT:      -5.7      2.615      9.280
REMARK  Name = 
REMARK  27 active torsions:
REMARK  status: ('A' for Active; 'I' for Inactive)
REMARK    1  A    between atoms: N_1  and  C_2
REMARK    2  A    between atoms: C_2  and  C_3
REMARK    3  A    between atoms: C_6  and  O_8
REMARK    4  A    between atoms: O_8  and  C_9
REMARK    5  A    between atoms: C_11  and  C_13
REMARK    6  A    between atoms: C_13  and  O_14
REMARK    7  A    between atoms: C_16  and  O_18
REMARK    8  A    between atoms: O_18  and  C_19
REMARK    9  A    between atoms: C_21  and  O_23
REMARK   10  A    between atoms: C_24  and  N_26
REMARK   11  A    between atoms: C_28  and  N_30
REMARK   12  A    between atoms: C_31  and  O_33
REMARK   13  A    between atoms: O_33  and  C_34
REMARK   14  A    between atoms: C_37  and  C_39
REMARK   15  A    between atoms: C_39  and  O_40
REMARK   16  A    between atoms: C_41  and  O_43
REMARK   17  A    between atoms: C_44  and  O_46
REMARK   18  A    between atoms: C_47  and  N_49
REMARK   19  A    between atoms: C_50  and  O_52
REMARK   20  A    between atoms: O_52  and  C_53
REMARK   21  A    between atoms: C_53  and  C_54
REMARK   22  A    between atoms: C_54  and  N_55
REMARK   23  A    between atoms: N_55  and  C_56
REMARK   24  A    between atoms: C_56  and  C_57
REMARK   25  A    between atoms: C_64  and  N_66
REMARK   26  A    between atoms: C_67  and  O_69
REMARK   27  A    between atoms: C_70  and  O_72
REMARK                            x       y       z     vdW  Elec       q    Type
REMARK                         _______ _______ _______ _____ _____    ______ ____
ROOT
ATOM      1  C   UNL     1       7.631  -1.721  23.399  0.00  0.00    +0.186 C 
ATOM      2  C   UNL     1       6.867  -0.406  23.625  0.00  0.00    +0.205 C 
ATOM      3  C   UNL     1       7.974   0.666  23.912  0.00  0.00    +0.282 C 
ATOM      4  O   UNL     1       9.235   0.012  23.870  0.00  0.00    -0.340 OA
ATOM      5  C   UNL     1       9.100  -1.327  23.396  0.00  0.00    +0.178 C 
ENDROOT
BRANCH   5   6
ATOM      6  C   UNL     1       9.681  -1.513  21.991  0.00  0.00    +0.190 C 
BRANCH   6   7
ATOM      7  O   UNL     1       9.734  -0.255  21.306  0.00  0.00    -0.392 OA
ATOM      8  H   UNL     1      10.666   0.037  21.328  0.00  0.00    +0.210 HD
ENDBRANCH   6   7
ENDBRANCH   5   6
BRANCH   3   9
ATOM      9  O   UNL     1       7.937   1.684  22.890  0.00  0.00    -0.340 OA
BRANCH   9  10
ATOM     10  C   UNL     1       8.483   3.017  23.116  0.00  0.00    +0.182 C 
ATOM     11  C   UNL     1       7.866   3.854  24.276  0.00  0.00    +0.169 C 
ATOM     12  C   UNL     1       8.555   5.267  24.341  0.00  0.00    +0.084 C 
ATOM     13  C   UNL     1      10.078   5.193  24.441  0.00  0.00    +0.042 C 
ATOM     14  C   UNL     1      10.642   4.440  23.250  0.00  0.00    +0.084 C 
ATOM     15  C   UNL     1      10.035   3.030  23.150  0.00  0.00    +0.163 C 
BRANCH  14  16
ATOM     16  N   UNL     1      12.116   4.371  23.354  0.00  0.00    -0.325 NA
ATOM     17  H   UNL     1      12.456   5.154  23.910  0.00  0.00    +0.119 HD
ATOM     18  H   UNL     1      12.324   3.543  23.922  0.00  0.00    +0.119 HD
ENDBRANCH  14  16
BRANCH  12  19
ATOM     19  N   UNL     1       8.042   6.091  25.449  0.00  0.00    -0.325 NA
ATOM     20  H   UNL     1       8.757   6.210  26.165  0.00  0.00    +0.119 HD
ATOM     21  H   UNL     1       7.821   7.027  25.104  0.00  0.00    +0.119 HD
ENDBRANCH  12  19
BRANCH  15  22
ATOM     22  O   UNL     1      10.549   2.447  21.944  0.00  0.00    -0.388 OA
ATOM     23  H   UNL     1      10.450   1.477  22.060  0.00  0.00    +0.210 HD
ENDBRANCH  15  22
BRANCH  11  24
ATOM     24  O   UNL     1       6.470   4.165  24.084  0.00  0.00    -0.342 OA
BRANCH  24  25
ATOM     25  C   UNL     1       5.534   3.475  24.899  0.00  0.00    +0.270 C 
ATOM     26  C   UNL     1       4.429   2.815  24.005  0.00  0.00    +0.139 C 
ATOM     27  C   UNL     1       3.140   3.641  23.850  0.00  0.00    +0.167 C 
ATOM     28  C   UNL     1       2.828   4.567  25.025  0.00  0.00    +0.176 C 
ATOM     29  C   UNL     1       4.089   5.276  25.514  0.00  0.00    +0.178 C 
ATOM     30  O   UNL     1       5.026   4.291  25.946  0.00  0.00    -0.342 OA
BRANCH  26  31
ATOM     31  N   UNL     1       4.917   2.472  22.642  0.00  0.00    -0.321 NA
ATOM     32  H   UNL     1       4.344   1.732  22.243  0.00  0.00    +0.119 HD
ATOM     33  H   UNL     1       5.873   2.115  22.727  0.00  0.00    +0.119 HD
ENDBRANCH  26  31
BRANCH  28  34
ATOM     34  O   UNL     1       1.802   5.497  24.627  0.00  0.00    -0.387 OA
ATOM     35  H   UNL     1       2.111   6.398  24.855  0.00  0.00    +0.210 HD
ENDBRANCH  28  34
BRANCH  27  36
ATOM     36  O   UNL     1       2.022   2.737  23.688  0.00  0.00    -0.387 OA
ATOM     37  H   UNL     1       2.172   1.992  24.299  0.00  0.00    +0.210 HD
ENDBRANCH  27  36
BRANCH  29  38
ATOM     38  C   UNL     1       3.776   6.186  26.714  0.00  0.00    +0.190 C 
BRANCH  38  39
ATOM     39  O   UNL     1       2.564   5.822  27.365  0.00  0.00    -0.392 OA
ATOM     40  H   UNL     1       1.870   5.802  26.673  0.00  0.00    +0.210 HD
ENDBRANCH  38  39
ENDBRANCH  29  38
ENDBRANCH  24  25
ENDBRANCH  11  24
ENDBRANCH   9  10
ENDBRANCH   3   9
BRANCH   2  41
ATOM     41  O   UNL     1       5.770  -0.496  24.565  0.00  0.00    -0.368 OA
BRANCH  41  42
ATOM     42  C   UNL     1       6.143   0.015  25.863  0.00  0.00    +0.175 C 
BRANCH  42  43
ATOM     43  C   UNL     1       5.994  -1.002  27.008  0.00  0.00    +0.109 C 
BRANCH  43  44
ATOM     44  N   UNL     1       5.574  -2.362  26.617  0.00  0.00    -0.314 NA
ATOM     45  H   UNL     1       6.409  -2.931  26.518  0.00  0.00    +0.122 HD
BRANCH  44  46
ATOM     46  C   UNL     1       4.674  -2.953  27.605  0.00  0.00    +0.085 C 
BRANCH  46  47
ATOM     47  C   UNL     1       4.933  -4.455  27.795  0.00  0.00    +0.017 C 
ATOM     48  C   UNL     1       6.455  -4.688  27.799  0.00  0.00    +0.085 C 
ATOM     49  N   UNL     1       6.817  -6.083  28.043  0.00  0.00    -0.316 NA
ATOM     50  H   UNL     1       6.428  -6.663  27.298  0.00  0.00    +0.122 HD
ATOM     51  C   UNL     1       6.273  -6.539  29.323  0.00  0.00    +0.081 C 
ATOM     52  C   UNL     1       4.750  -6.436  29.345  0.00  0.00    +0.015 C 
ATOM     53  C   UNL     1       4.295  -5.002  29.082  0.00  0.00    +0.007 C 
ENDBRANCH  46  47
ENDBRANCH  44  46
ENDBRANCH  43  44
ENDBRANCH  42  43
ENDBRANCH  41  42
ENDBRANCH   2  41
BRANCH   1  54
ATOM     54  O   UNL     1       7.405  -2.787  24.343  0.00  0.00    -0.341 OA
BRANCH  54  59
ATOM     55  C   UNL     1       5.768  -6.014  23.926  0.00  0.00    +0.166 C 
ATOM     56  C   UNL     1       5.202  -5.929  22.497  0.00  0.00    +0.175 C 
ATOM     57  C   UNL     1       6.132  -5.076  21.591  0.00  0.00    +0.167 C 
ATOM     58  C   UNL     1       6.514  -3.724  22.245  0.00  0.00    +0.139 C 
ATOM     59  C   UNL     1       7.062  -4.011  23.662  0.00  0.00    +0.270 C 
ATOM     60  O   UNL     1       6.083  -4.708  24.422  0.00  0.00    -0.343 OA
BRANCH  58  61
ATOM     61  N   UNL     1       5.357  -2.797  22.288  0.00  0.00    -0.321 NA
ATOM     62  H   UNL     1       5.347  -2.280  21.399  0.00  0.00    +0.119 HD
ATOM     63  H   UNL     1       4.512  -3.375  22.233  0.00  0.00    +0.119 HD
ENDBRANCH  58  61
BRANCH  57  64
ATOM     64  O   UNL     1       7.312  -5.805  21.217  0.00  0.00    -0.387 OA
ATOM     65  H   UNL     1       7.259  -6.097  20.293  0.00  0.00    +0.210 HD
ENDBRANCH  57  64
BRANCH  56  66
ATOM     66  O   UNL     1       3.888  -5.358  22.533  0.00  0.00    -0.387 OA
ATOM     67  H   UNL     1       3.686  -5.015  21.644  0.00  0.00    +0.210 HD
ENDBRANCH  56  66
BRANCH  55  68
ATOM     68  C   UNL     1       4.800  -6.616  24.965  0.00  0.00    +0.112 C 
BRANCH  68  69
ATOM     69  N   UNL     1       3.918  -7.651  24.436  0.00  0.00    -0.328 NA
ATOM     70  H   UNL     1       3.666  -7.402  23.478  0.00  0.00    +0.118 HD
ATOM     71  H   UNL     1       4.466  -8.508  24.337  0.00  0.00    +0.118 HD
ENDBRANCH  68  69
ENDBRANCH  55  68
ENDBRANCH  54  59
ENDBRANCH   1  54
TORSDOF 27
ENDMDL
