MODEL 1
REMARK VINA RESULT:      -6.1      0.000      0.000
REMARK  Name = 
REMARK  9 active torsions:
REMARK  status: ('A' for Active; 'I' for Inactive)
REMARK    1  A    between atoms: C_1  and  C_2
REMARK    2  A    between atoms: C_2  and  O_3
REMARK    3  A    between atoms: C_2  and  C_4
REMARK    4  A    between atoms: C_2  and  C_14
REMARK    5  A    between atoms: C_4  and  O_5
REMARK    6  A    between atoms: O_5  and  C_6
REMARK    7  A    between atoms: C_9  and  C_12
REMARK    8  A    between atoms: N_16  and  C_17
REMARK    9  A    between atoms: C_20  and  C_21
REMARK                            x       y       z     vdW  Elec       q    Type
REMARK                         _______ _______ _______ _____ _____    ______ ____
ROOT
ATOM      1  C   UNL     1       8.196  -1.968  22.375  0.00  0.00    +0.055 C 
ATOM      2  C   UNL     1       9.568  -1.788  23.027  0.00  0.00    +0.173 C 
ENDROOT
BRANCH   2   3
ATOM      3  C   UNL     1       9.733  -0.409  23.707  0.00  0.00    +0.252 C 
ATOM      4  N   UNL     1       9.415   0.680  22.908  0.00  0.00    -0.283 N 
ATOM      5  H   UNL     1       9.352   0.502  21.909  0.00  0.00    +0.155 HD
ATOM      6  O   UNL     1      10.234  -0.310  24.831  0.00  0.00    -0.272 OA
BRANCH   4   7
ATOM      7  C   UNL     1       9.430   2.023  23.345  0.00  0.00    +0.035 A 
ATOM      8  C   UNL     1      10.565   2.801  23.102  0.00  0.00    +0.039 A 
ATOM      9  C   UNL     1      10.631   4.127  23.571  0.00  0.00    +0.032 A 
ATOM     10  I   UNL     1      12.407   5.187  23.203  0.00  0.00    -0.042 I 
ATOM     11  C   UNL     1       9.553   4.692  24.264  0.00  0.00    +0.065 A 
ATOM     12  C   UNL     1       8.405   3.922  24.469  0.00  0.00    +0.022 A 
ATOM     13  C   UNL     1       8.345   2.607  24.007  0.00  0.00    +0.024 A 
BRANCH  11  14
ATOM     14  C   UNL     1       9.561   6.031  24.778  0.00  0.00    +0.100 C 
ATOM     15  N   UNL     1       9.540   7.105  25.215  0.00  0.00    -0.191 NA
ENDBRANCH  11  14
ENDBRANCH   4   7
ENDBRANCH   2   3
BRANCH   2  16
ATOM     16  O   UNL     1      10.547  -1.861  21.974  0.00  0.00    -0.376 OA
ATOM     17  H   UNL     1      10.781  -0.945  21.735  0.00  0.00    +0.211 HD
ENDBRANCH   2  16
BRANCH   2  18
ATOM     18  C   UNL     1       9.816  -2.895  24.081  0.00  0.00    +0.273 C 
BRANCH  18  19
ATOM     19  O   UNL     1       8.973  -4.018  23.802  0.00  0.00    -0.489 OA
BRANCH  19  20
ATOM     20  C   UNL     1       8.172  -4.493  24.799  0.00  0.00    +0.121 A 
ATOM     21  C   UNL     1       6.898  -4.893  24.382  0.00  0.00    +0.047 A 
ATOM     22  C   UNL     1       6.002  -5.479  25.281  0.00  0.00    +0.022 A 
ATOM     23  C   UNL     1       6.377  -5.665  26.613  0.00  0.00    +0.052 A 
ATOM     24  C   UNL     1       7.635  -5.227  27.043  0.00  0.00    +0.022 A 
ATOM     25  C   UNL     1       8.529  -4.639  26.138  0.00  0.00    +0.047 A 
BRANCH  23  26
ATOM     26  C   UNL     1       5.489  -6.321  27.528  0.00  0.00    +0.099 C 
ATOM     27  N   UNL     1       4.758  -6.851  28.257  0.00  0.00    -0.191 NA
ENDBRANCH  23  26
ENDBRANCH  19  20
ENDBRANCH  18  19
ENDBRANCH   2  18
TORSDOF 8
ENDMDL
MODEL 2
REMARK VINA RESULT:      -6.1      3.825      8.913
REMARK  Name = 
REMARK  9 active torsions:
REMARK  status: ('A' for Active; 'I' for Inactive)
REMARK    1  A    between atoms: C_1  and  C_2
REMARK    2  A    between atoms: C_2  and  O_3
REMARK    3  A    between atoms: C_2  and  C_4
REMARK    4  A    between atoms: C_2  and  C_14
REMARK    5  A    between atoms: C_4  and  O_5
REMARK    6  A    between atoms: O_5  and  C_6
REMARK    7  A    between atoms: C_9  and  C_12
REMARK    8  A    between atoms: N_16  and  C_17
REMARK    9  A    between atoms: C_20  and  C_21
REMARK                            x       y       z     vdW  Elec       q    Type
REMARK                         _______ _______ _______ _____ _____    ______ ____
ROOT
ATOM      1  C   UNL     1       6.684   2.941  21.823  0.00  0.00    +0.055 C 
ATOM      2  C   UNL     1       6.039   2.682  23.186  0.00  0.00    +0.173 C 
ENDROOT
BRANCH   2   3
ATOM      3  C   UNL     1       6.312   1.256  23.717  0.00  0.00    +0.252 C 
ATOM      4  N   UNL     1       7.344   0.581  23.080  0.00  0.00    -0.283 N 
ATOM      5  H   UNL     1       7.649   0.963  22.189  0.00  0.00    +0.155 HD
ATOM      6  O   UNL     1       5.569   0.736  24.555  0.00  0.00    -0.272 OA
BRANCH   4   7
ATOM      7  C   UNL     1       7.805  -0.703  23.447  0.00  0.00    +0.035 A 
ATOM      8  C   UNL     1       7.270  -1.823  22.804  0.00  0.00    +0.039 A 
ATOM      9  C   UNL     1       7.670  -3.118  23.183  0.00  0.00    +0.032 A 
ATOM     10  I   UNL     1       6.760  -4.732  22.194  0.00  0.00    -0.042 I 
ATOM     11  C   UNL     1       8.627  -3.301  24.191  0.00  0.00    +0.065 A 
ATOM     12  C   UNL     1       9.187  -2.177  24.802  0.00  0.00    +0.022 A 
ATOM     13  C   UNL     1       8.784  -0.895  24.427  0.00  0.00    +0.024 A 
BRANCH  11  14
ATOM     14  C   UNL     1       9.068  -4.593  24.631  0.00  0.00    +0.100 C 
ATOM     15  N   UNL     1       9.391  -5.651  24.981  0.00  0.00    -0.191 NA
ENDBRANCH  11  14
ENDBRANCH   4   7
ENDBRANCH   2   3
BRANCH   2  16
ATOM     16  O   UNL     1       4.616   2.803  23.006  0.00  0.00    -0.376 OA
ATOM     17  H   UNL     1       4.277   1.915  22.787  0.00  0.00    +0.211 HD
ENDBRANCH   2  16
BRANCH   2  18
ATOM     18  C   UNL     1       6.547   3.707  24.229  0.00  0.00    +0.273 C 
BRANCH  18  19
ATOM     19  O   UNL     1       7.757   3.223  24.823  0.00  0.00    -0.489 OA
BRANCH  19  20
ATOM     20  C   UNL     1       8.940   3.780  24.433  0.00  0.00    +0.121 A 
ATOM     21  C   UNL     1       9.882   2.867  23.947  0.00  0.00    +0.047 A 
ATOM     22  C   UNL     1      11.105   3.306  23.431  0.00  0.00    +0.022 A 
ATOM     23  C   UNL     1      11.396   4.671  23.404  0.00  0.00    +0.052 A 
ATOM     24  C   UNL     1      10.474   5.584  23.927  0.00  0.00    +0.022 A 
ATOM     25  C   UNL     1       9.250   5.139  24.445  0.00  0.00    +0.047 A 
BRANCH  23  26
ATOM     26  C   UNL     1      12.621   5.137  22.821  0.00  0.00    +0.099 C 
ATOM     27  N   UNL     1      13.621   5.503  22.361  0.00  0.00    -0.191 NA
ENDBRANCH  23  26
ENDBRANCH  19  20
ENDBRANCH  18  19
ENDBRANCH   2  18
TORSDOF 8
ENDMDL
MODEL 3
REMARK VINA RESULT:      -6.1      3.453      9.118
REMARK  Name = 
REMARK  9 active torsions:
REMARK  status: ('A' for Active; 'I' for Inactive)
REMARK    1  A    between atoms: C_1  and  C_2
REMARK    2  A    between atoms: C_2  and  O_3
REMARK    3  A    between atoms: C_2  and  C_4
REMARK    4  A    between atoms: C_2  and  C_14
REMARK    5  A    between atoms: C_4  and  O_5
REMARK    6  A    between atoms: O_5  and  C_6
REMARK    7  A    between atoms: C_9  and  C_12
REMARK    8  A    between atoms: N_16  and  C_17
REMARK    9  A    between atoms: C_20  and  C_21
REMARK                            x       y       z     vdW  Elec       q    Type
REMARK                         _______ _______ _______ _____ _____    ______ ____
ROOT
ATOM      1  C   UNL     1      10.356  -0.364  23.746  0.00  0.00    +0.055 C 
ATOM      2  C   UNL     1       9.701  -0.902  22.473  0.00  0.00    +0.173 C 
ENDROOT
BRANCH   2   3
ATOM      3  C   UNL     1       8.412  -1.708  22.757  0.00  0.00    +0.252 C 
ATOM      4  N   UNL     1       8.599  -3.074  22.918  0.00  0.00    -0.283 N 
ATOM      5  H   UNL     1       9.487  -3.448  22.594  0.00  0.00    +0.155 HD
ATOM      6  O   UNL     1       7.302  -1.171  22.710  0.00  0.00    -0.272 OA
BRANCH   4   7
ATOM      7  C   UNL     1       7.573  -3.988  23.248  0.00  0.00    +0.035 A 
ATOM      8  C   UNL     1       7.265  -4.200  24.595  0.00  0.00    +0.039 A 
ATOM      9  C   UNL     1       6.284  -5.142  24.959  0.00  0.00    +0.032 A 
ATOM     10  I   UNL     1       5.943  -5.427  27.011  0.00  0.00    -0.042 I 
ATOM     11  C   UNL     1       5.586  -5.858  23.977  0.00  0.00    +0.065 A 
ATOM     12  C   UNL     1       5.870  -5.612  22.632  0.00  0.00    +0.022 A 
ATOM     13  C   UNL     1       6.847  -4.682  22.275  0.00  0.00    +0.024 A 
BRANCH  11  14
ATOM     14  C   UNL     1       4.585  -6.839  24.282  0.00  0.00    +0.100 C 
ATOM     15  N   UNL     1       3.770  -7.617  24.562  0.00  0.00    -0.191 NA
ENDBRANCH  11  14
ENDBRANCH   4   7
ENDBRANCH   2   3
BRANCH   2  16
ATOM     16  O   UNL     1      10.642  -1.806  21.866  0.00  0.00    -0.376 OA
ATOM     17  H   UNL     1      10.395  -1.889  20.926  0.00  0.00    +0.211 HD
ENDBRANCH   2  16
BRANCH   2  18
ATOM     18  C   UNL     1       9.358   0.259  21.508  0.00  0.00    +0.273 C 
BRANCH  18  19
ATOM     19  O   UNL     1       9.740   1.504  22.104  0.00  0.00    -0.489 OA
BRANCH  19  20
ATOM     20  C   UNL     1       8.764   2.409  22.401  0.00  0.00    +0.121 A 
ATOM     21  C   UNL     1       9.115   3.345  23.380  0.00  0.00    +0.047 A 
ATOM     22  C   UNL     1       8.244   4.384  23.722  0.00  0.00    +0.022 A 
ATOM     23  C   UNL     1       7.007   4.489  23.085  0.00  0.00    +0.052 A 
ATOM     24  C   UNL     1       6.635   3.532  22.135  0.00  0.00    +0.022 A 
ATOM     25  C   UNL     1       7.510   2.491  21.797  0.00  0.00    +0.047 A 
BRANCH  23  26
ATOM     26  C   UNL     1       6.132   5.587  23.384  0.00  0.00    +0.099 C 
ATOM     27  N   UNL     1       5.417   6.472  23.610  0.00  0.00    -0.191 NA
ENDBRANCH  23  26
ENDBRANCH  19  20
ENDBRANCH  18  19
ENDBRANCH   2  18
TORSDOF 8
ENDMDL
MODEL 4
REMARK VINA RESULT:      -6.0      1.221      1.501
REMARK  Name = 
REMARK  9 active torsions:
REMARK  status: ('A' for Active; 'I' for Inactive)
REMARK    1  A    between atoms: C_1  and  C_2
REMARK    2  A    between atoms: C_2  and  O_3
REMARK    3  A    between atoms: C_2  and  C_4
REMARK    4  A    between atoms: C_2  and  C_14
REMARK    5  A    between atoms: C_4  and  O_5
REMARK    6  A    between atoms: O_5  and  C_6
REMARK    7  A    between atoms: C_9  and  C_12
REMARK    8  A    between atoms: N_16  and  C_17
REMARK    9  A    between atoms: C_20  and  C_21
REMARK                            x       y       z     vdW  Elec       q    Type
REMARK                         _______ _______ _______ _____ _____    ______ ____
ROOT
ATOM      1  C   UNL     1       8.926  -1.736  21.846  0.00  0.00    +0.055 C 
ATOM      2  C   UNL     1       9.635  -1.806  23.199  0.00  0.00    +0.173 C 
ENDROOT
BRANCH   2   3
ATOM      3  C   UNL     1       9.761  -0.424  23.882  0.00  0.00    +0.252 C 
ATOM      4  N   UNL     1       9.534   0.663  23.050  0.00  0.00    -0.283 N 
ATOM      5  H   UNL     1       9.558   0.478  22.051  0.00  0.00    +0.155 HD
ATOM      6  O   UNL     1      10.161  -0.324  25.045  0.00  0.00    -0.272 OA
BRANCH   4   7
ATOM      7  C   UNL     1       9.533   2.010  23.478  0.00  0.00    +0.035 A 
ATOM      8  C   UNL     1      10.640   2.812  23.191  0.00  0.00    +0.039 A 
ATOM      9  C   UNL     1      10.691   4.142  23.648  0.00  0.00    +0.032 A 
ATOM     10  I   UNL     1      12.428   5.240  23.212  0.00  0.00    -0.042 I 
ATOM     11  C   UNL     1       9.624   4.687  24.374  0.00  0.00    +0.065 A 
ATOM     12  C   UNL     1       8.502   3.893  24.623  0.00  0.00    +0.022 A 
ATOM     13  C   UNL     1       8.458   2.572  24.173  0.00  0.00    +0.024 A 
BRANCH  11  14
ATOM     14  C   UNL     1       9.619   6.030  24.878  0.00  0.00    +0.100 C 
ATOM     15  N   UNL     1       9.587   7.107  25.309  0.00  0.00    -0.191 NA
ENDBRANCH  11  14
ENDBRANCH   4   7
ENDBRANCH   2   3
BRANCH   2  16
ATOM     16  O   UNL     1      10.971  -2.280  22.950  0.00  0.00    -0.376 OA
ATOM     17  H   UNL     1      11.553  -1.862  23.612  0.00  0.00    +0.211 HD
ENDBRANCH   2  16
BRANCH   2  18
ATOM     18  C   UNL     1       8.885  -2.766  24.155  0.00  0.00    +0.273 C 
BRANCH  18  19
ATOM     19  O   UNL     1       8.579  -3.984  23.466  0.00  0.00    -0.489 OA
BRANCH  19  20
ATOM     20  C   UNL     1       7.468  -4.681  23.841  0.00  0.00    +0.121 A 
ATOM     21  C   UNL     1       6.692  -5.157  22.778  0.00  0.00    +0.047 A 
ATOM     22  C   UNL     1       5.573  -5.960  23.012  0.00  0.00    +0.022 A 
ATOM     23  C   UNL     1       5.218  -6.290  24.321  0.00  0.00    +0.052 A 
ATOM     24  C   UNL     1       5.966  -5.782  25.388  0.00  0.00    +0.022 A 
ATOM     25  C   UNL     1       7.087  -4.975  25.149  0.00  0.00    +0.047 A 
BRANCH  23  26
ATOM     26  C   UNL     1       4.108  -7.164  24.570  0.00  0.00    +0.099 C 
ATOM     27  N   UNL     1       3.220  -7.885  24.765  0.00  0.00    -0.191 NA
ENDBRANCH  23  26
ENDBRANCH  19  20
ENDBRANCH  18  19
ENDBRANCH   2  18
TORSDOF 8
ENDMDL
MODEL 5
REMARK VINA RESULT:      -5.9      1.861      2.155
REMARK  Name = 
REMARK  9 active torsions:
REMARK  status: ('A' for Active; 'I' for Inactive)
REMARK    1  A    between atoms: C_1  and  C_2
REMARK    2  A    between atoms: C_2  and  O_3
REMARK    3  A    between atoms: C_2  and  C_4
REMARK    4  A    between atoms: C_2  and  C_14
REMARK    5  A    between atoms: C_4  and  O_5
REMARK    6  A    between atoms: O_5  and  C_6
REMARK    7  A    between atoms: C_9  and  C_12
REMARK    8  A    between atoms: N_16  and  C_17
REMARK    9  A    between atoms: C_20  and  C_21
REMARK                            x       y       z     vdW  Elec       q    Type
REMARK                         _______ _______ _______ _____ _____    ______ ____
ROOT
ATOM      1  C   UNL     1       7.832  -2.576  22.268  0.00  0.00    +0.055 C 
ATOM      2  C   UNL     1       9.023  -1.696  22.649  0.00  0.00    +0.173 C 
ENDROOT
BRANCH   2   3
ATOM      3  C   UNL     1       8.616  -0.235  22.954  0.00  0.00    +0.252 C 
ATOM      4  N   UNL     1       9.544   0.490  23.689  0.00  0.00    -0.283 N 
ATOM      5  H   UNL     1      10.263  -0.049  24.163  0.00  0.00    +0.155 HD
ATOM      6  O   UNL     1       7.492   0.185  22.666  0.00  0.00    -0.272 OA
BRANCH   4   7
ATOM      7  C   UNL     1       9.406   1.857  24.021  0.00  0.00    +0.035 A 
ATOM      8  C   UNL     1       8.472   2.226  24.992  0.00  0.00    +0.039 A 
ATOM      9  C   UNL     1       8.275   3.583  25.309  0.00  0.00    +0.032 A 
ATOM     10  I   UNL     1       6.803   4.031  26.739  0.00  0.00    -0.042 I 
ATOM     11  C   UNL     1       9.029   4.579  24.674  0.00  0.00    +0.065 A 
ATOM     12  C   UNL     1       9.990   4.201  23.734  0.00  0.00    +0.022 A 
ATOM     13  C   UNL     1      10.179   2.855  23.418  0.00  0.00    +0.024 A 
BRANCH  11  14
ATOM     14  C   UNL     1       8.868   5.979  24.942  0.00  0.00    +0.100 C 
ATOM     15  N   UNL     1       8.702   7.108  25.151  0.00  0.00    -0.191 NA
ENDBRANCH  11  14
ENDBRANCH   4   7
ENDBRANCH   2   3
BRANCH   2  16
ATOM     16  O   UNL     1       9.902  -1.662  21.510  0.00  0.00    -0.376 OA
ATOM     17  H   UNL     1       9.520  -2.253  20.834  0.00  0.00    +0.211 HD
ENDBRANCH   2  16
BRANCH   2  18
ATOM     18  C   UNL     1       9.753  -2.276  23.885  0.00  0.00    +0.273 C 
BRANCH  18  19
ATOM     19  O   UNL     1       9.012  -1.959  25.069  0.00  0.00    -0.489 OA
BRANCH  19  20
ATOM     20  C   UNL     1       8.443  -2.980  25.772  0.00  0.00    +0.121 A 
ATOM     21  C   UNL     1       7.186  -2.687  26.313  0.00  0.00    +0.047 A 
ATOM     22  C   UNL     1       6.448  -3.667  26.984  0.00  0.00    +0.022 A 
ATOM     23  C   UNL     1       6.970  -4.954  27.122  0.00  0.00    +0.052 A 
ATOM     24  C   UNL     1       8.244  -5.240  26.619  0.00  0.00    +0.022 A 
ATOM     25  C   UNL     1       8.981  -4.254  25.949  0.00  0.00    +0.047 A 
BRANCH  23  26
ATOM     26  C   UNL     1       6.195  -5.983  27.754  0.00  0.00    +0.099 C 
ATOM     27  N   UNL     1       5.583  -6.823  28.269  0.00  0.00    -0.191 NA
ENDBRANCH  23  26
ENDBRANCH  19  20
ENDBRANCH  18  19
ENDBRANCH   2  18
TORSDOF 8
ENDMDL
MODEL 6
REMARK VINA RESULT:      -5.8      3.290      8.996
REMARK  Name = 
REMARK  9 active torsions:
REMARK  status: ('A' for Active; 'I' for Inactive)
REMARK    1  A    between atoms: C_1  and  C_2
REMARK    2  A    between atoms: C_2  and  O_3
REMARK    3  A    between atoms: C_2  and  C_4
REMARK    4  A    between atoms: C_2  and  C_14
REMARK    5  A    between atoms: C_4  and  O_5
REMARK    6  A    between atoms: O_5  and  C_6
REMARK    7  A    between atoms: C_9  and  C_12
REMARK    8  A    between atoms: N_16  and  C_17
REMARK    9  A    between atoms: C_20  and  C_21
REMARK                            x       y       z     vdW  Elec       q    Type
REMARK                         _______ _______ _______ _____ _____    ______ ____
ROOT
ATOM      1  C   UNL     1      10.653  -0.074  23.695  0.00  0.00    +0.055 C 
ATOM      2  C   UNL     1       9.773  -1.051  22.913  0.00  0.00    +0.173 C 
ENDROOT
BRANCH   2   3
ATOM      3  C   UNL     1       9.379  -2.297  23.742  0.00  0.00    +0.252 C 
ATOM      4  N   UNL     1       8.116  -2.243  24.316  0.00  0.00    -0.283 N 
ATOM      5  H   UNL     1       7.679  -1.326  24.357  0.00  0.00    +0.155 HD
ATOM      6  O   UNL     1      10.194  -3.196  23.965  0.00  0.00    -0.272 OA
BRANCH   4   7
ATOM      7  C   UNL     1       7.530  -3.294  25.055  0.00  0.00    +0.035 A 
ATOM      8  C   UNL     1       6.612  -4.136  24.422  0.00  0.00    +0.039 A 
ATOM      9  C   UNL     1       5.972  -5.161  25.144  0.00  0.00    +0.032 A 
ATOM     10  I   UNL     1       4.565  -6.329  24.110  0.00  0.00    -0.042 I 
ATOM     11  C   UNL     1       6.264  -5.366  26.499  0.00  0.00    +0.065 A 
ATOM     12  C   UNL     1       7.212  -4.547  27.116  0.00  0.00    +0.022 A 
ATOM     13  C   UNL     1       7.841  -3.529  26.398  0.00  0.00    +0.024 A 
BRANCH  11  14
ATOM     14  C   UNL     1       5.638  -6.383  27.294  0.00  0.00    +0.100 C 
ATOM     15  N   UNL     1       5.153  -7.196  27.965  0.00  0.00    -0.191 NA
ENDBRANCH  11  14
ENDBRANCH   4   7
ENDBRANCH   2   3
BRANCH   2  16
ATOM     16  O   UNL     1      10.549  -1.514  21.794  0.00  0.00    -0.376 OA
ATOM     17  H   UNL     1      10.256  -1.010  21.012  0.00  0.00    +0.211 HD
ENDBRANCH   2  16
BRANCH   2  18
ATOM     18  C   UNL     1       8.481  -0.348  22.429  0.00  0.00    +0.273 C 
BRANCH  18  19
ATOM     19  O   UNL     1       7.958   0.469  23.483  0.00  0.00    -0.489 OA
BRANCH  19  20
ATOM     20  C   UNL     1       7.678   1.776  23.213  0.00  0.00    +0.121 A 
ATOM     21  C   UNL     1       8.020   2.668  24.234  0.00  0.00    +0.047 A 
ATOM     22  C   UNL     1       7.870   4.047  24.061  0.00  0.00    +0.022 A 
ATOM     23  C   UNL     1       7.367   4.544  22.857  0.00  0.00    +0.052 A 
ATOM     24  C   UNL     1       6.985   3.653  21.849  0.00  0.00    +0.022 A 
ATOM     25  C   UNL     1       7.136   2.271  22.028  0.00  0.00    +0.047 A 
BRANCH  23  26
ATOM     26  C   UNL     1       7.268   5.960  22.646  0.00  0.00    +0.099 C 
ATOM     27  N   UNL     1       7.201   7.107  22.485  0.00  0.00    -0.191 NA
ENDBRANCH  23  26
ENDBRANCH  19  20
ENDBRANCH  18  19
ENDBRANCH   2  18
TORSDOF 8
ENDMDL
MODEL 7
REMARK VINA RESULT:      -5.7      3.423      9.052
REMARK  Name = 
REMARK  9 active torsions:
REMARK  status: ('A' for Active; 'I' for Inactive)
REMARK    1  A    between atoms: C_1  and  C_2
REMARK    2  A    between atoms: C_2  and  O_3
REMARK    3  A    between atoms: C_2  and  C_4
REMARK    4  A    between atoms: C_2  and  C_14
REMARK    5  A    between atoms: C_4  and  O_5
REMARK    6  A    between atoms: O_5  and  C_6
REMARK    7  A    between atoms: C_9  and  C_12
REMARK    8  A    between atoms: N_16  and  C_17
REMARK    9  A    between atoms: C_20  and  C_21
REMARK                            x       y       z     vdW  Elec       q    Type
REMARK                         _______ _______ _______ _____ _____    ______ ____
ROOT
ATOM      1  C   UNL     1      10.619  -0.211  23.784  0.00  0.00    +0.055 C 
ATOM      2  C   UNL     1       9.884  -1.025  22.717  0.00  0.00    +0.173 C 
ENDROOT
BRANCH   2   3
ATOM      3  C   UNL     1       9.075  -2.201  23.313  0.00  0.00    +0.252 C 
ATOM      4  N   UNL     1       7.861  -2.452  22.688  0.00  0.00    -0.283 N 
ATOM      5  H   UNL     1       7.504  -1.715  22.086  0.00  0.00    +0.155 HD
ATOM      6  O   UNL     1       9.443  -2.768  24.345  0.00  0.00    -0.272 OA
BRANCH   4   7
ATOM      7  C   UNL     1       6.995  -3.516  23.025  0.00  0.00    +0.035 A 
ATOM      8  C   UNL     1       5.886  -3.255  23.834  0.00  0.00    +0.039 A 
ATOM      9  C   UNL     1       5.033  -4.302  24.230  0.00  0.00    +0.032 A 
ATOM     10  I   UNL     1       3.431  -3.809  25.495  0.00  0.00    -0.042 I 
ATOM     11  C   UNL     1       5.270  -5.614  23.799  0.00  0.00    +0.065 A 
ATOM     12  C   UNL     1       6.357  -5.863  22.958  0.00  0.00    +0.022 A 
ATOM     13  C   UNL     1       7.203  -4.823  22.572  0.00  0.00    +0.024 A 
BRANCH  11  14
ATOM     14  C   UNL     1       4.447  -6.727  24.176  0.00  0.00    +0.100 C 
ATOM     15  N   UNL     1       3.812  -7.649  24.484  0.00  0.00    -0.191 NA
ENDBRANCH  11  14
ENDBRANCH   4   7
ENDBRANCH   2   3
BRANCH   2  16
ATOM     16  O   UNL     1      10.888  -1.594  21.857  0.00  0.00    -0.376 OA
ATOM     17  H   UNL     1      10.979  -2.534  22.103  0.00  0.00    +0.211 HD
ENDBRANCH   2  16
BRANCH   2  18
ATOM     18  C   UNL     1       8.923  -0.118  21.910  0.00  0.00    +0.273 C 
BRANCH  18  19
ATOM     19  O   UNL     1       7.926   0.420  22.787  0.00  0.00    -0.489 OA
BRANCH  19  20
ATOM     20  C   UNL     1       7.841   1.774  22.920  0.00  0.00    +0.121 A 
ATOM     21  C   UNL     1       8.474   2.289  24.056  0.00  0.00    +0.047 A 
ATOM     22  C   UNL     1       8.542   3.668  24.276  0.00  0.00    +0.022 A 
ATOM     23  C   UNL     1       7.968   4.546  23.355  0.00  0.00    +0.052 A 
ATOM     24  C   UNL     1       7.298   4.033  22.238  0.00  0.00    +0.022 A 
ATOM     25  C   UNL     1       7.231   2.650  22.024  0.00  0.00    +0.047 A 
BRANCH  23  26
ATOM     26  C   UNL     1       8.085   5.964  23.539  0.00  0.00    +0.099 C 
ATOM     27  N   UNL     1       8.197   7.108  23.695  0.00  0.00    -0.191 NA
ENDBRANCH  23  26
ENDBRANCH  19  20
ENDBRANCH  18  19
ENDBRANCH   2  18
TORSDOF 8
ENDMDL
MODEL 8
REMARK VINA RESULT:      -5.7      2.960      6.273
REMARK  Name = 
REMARK  9 active torsions:
REMARK  status: ('A' for Active; 'I' for Inactive)
REMARK    1  A    between atoms: C_1  and  C_2
REMARK    2  A    between atoms: C_2  and  O_3
REMARK    3  A    between atoms: C_2  and  C_4
REMARK    4  A    between atoms: C_2  and  C_14
REMARK    5  A    between atoms: C_4  and  O_5
REMARK    6  A    between atoms: O_5  and  C_6
REMARK    7  A    between atoms: C_9  and  C_12
REMARK    8  A    between atoms: N_16  and  C_17
REMARK    9  A    between atoms: C_20  and  C_21
REMARK                            x       y       z     vdW  Elec       q    Type
REMARK                         _______ _______ _______ _____ _____    ______ ____
ROOT
ATOM      1  C   UNL     1       8.222  -4.159  25.183  0.00  0.00    +0.055 C 
ATOM      2  C   UNL     1       8.326  -3.364  23.880  0.00  0.00    +0.173 C 
ENDROOT
BRANCH   2   3
ATOM      3  C   UNL     1       7.273  -2.235  23.782  0.00  0.00    +0.252 C 
ATOM      4  N   UNL     1       7.380  -1.249  24.753  0.00  0.00    -0.283 N 
ATOM      5  H   UNL     1       7.951  -1.475  25.563  0.00  0.00    +0.155 HD
ATOM      6  O   UNL     1       6.344  -2.300  22.973  0.00  0.00    -0.272 OA
BRANCH   4   7
ATOM      7  C   UNL     1       6.567  -0.094  24.812  0.00  0.00    +0.035 A 
ATOM      8  C   UNL     1       6.804   0.946  23.909  0.00  0.00    +0.039 A 
ATOM      9  C   UNL     1       6.045   2.129  23.975  0.00  0.00    +0.032 A 
ATOM     10  I   UNL     1       6.523   3.653  22.610  0.00  0.00    -0.042 I 
ATOM     11  C   UNL     1       5.029   2.271  24.929  0.00  0.00    +0.065 A 
ATOM     12  C   UNL     1       4.770   1.212  25.802  0.00  0.00    +0.022 A 
ATOM     13  C   UNL     1       5.528   0.042  25.737  0.00  0.00    +0.024 A 
BRANCH  11  14
ATOM     14  C   UNL     1       4.229   3.455  25.057  0.00  0.00    +0.100 C 
ATOM     15  N   UNL     1       3.551   4.392  25.156  0.00  0.00    -0.191 NA
ENDBRANCH  11  14
ENDBRANCH   4   7
ENDBRANCH   2   3
BRANCH   2  16
ATOM     16  O   UNL     1       8.063  -4.283  22.805  0.00  0.00    -0.376 OA
ATOM     17  H   UNL     1       8.904  -4.733  22.598  0.00  0.00    +0.211 HD
ENDBRANCH   2  16
BRANCH   2  18
ATOM     18  C   UNL     1       9.736  -2.742  23.735  0.00  0.00    +0.273 C 
BRANCH  18  19
ATOM     19  O   UNL     1       9.736  -1.807  22.651  0.00  0.00    -0.489 OA
BRANCH  19  20
ATOM     20  C   UNL     1      10.064  -0.509  22.913  0.00  0.00    +0.121 A 
ATOM     21  C   UNL     1       9.818   0.379  21.860  0.00  0.00    +0.047 A 
ATOM     22  C   UNL     1      10.025   1.752  22.018  0.00  0.00    +0.022 A 
ATOM     23  C   UNL     1      10.488   2.248  23.238  0.00  0.00    +0.052 A 
ATOM     24  C   UNL     1      10.775   1.359  24.280  0.00  0.00    +0.022 A 
ATOM     25  C   UNL     1      10.568  -0.017  24.116  0.00  0.00    +0.047 A 
BRANCH  23  26
ATOM     26  C   UNL     1      10.645   3.661  23.430  0.00  0.00    +0.099 C 
ATOM     27  N   UNL     1      10.754   4.806  23.586  0.00  0.00    -0.191 NA
ENDBRANCH  23  26
ENDBRANCH  19  20
ENDBRANCH  18  19
ENDBRANCH   2  18
TORSDOF 8
ENDMDL
MODEL 9
REMARK VINA RESULT:      -5.6      2.785      3.880
REMARK  Name = 
REMARK  9 active torsions:
REMARK  status: ('A' for Active; 'I' for Inactive)
REMARK    1  A    between atoms: C_1  and  C_2
REMARK    2  A    between atoms: C_2  and  O_3
REMARK    3  A    between atoms: C_2  and  C_4
REMARK    4  A    between atoms: C_2  and  C_14
REMARK    5  A    between atoms: C_4  and  O_5
REMARK    6  A    between atoms: O_5  and  C_6
REMARK    7  A    between atoms: C_9  and  C_12
REMARK    8  A    between atoms: N_16  and  C_17
REMARK    9  A    between atoms: C_20  and  C_21
REMARK                            x       y       z     vdW  Elec       q    Type
REMARK                         _______ _______ _______ _____ _____    ______ ____
ROOT
ATOM      1  C   UNL     1       8.234  -5.032  23.588  0.00  0.00    +0.055 C 
ATOM      2  C   UNL     1       8.695  -4.688  25.005  0.00  0.00    +0.173 C 
ENDROOT
BRANCH   2   3
ATOM      3  C   UNL     1       8.802  -3.164  25.247  0.00  0.00    +0.252 C 
ATOM      4  N   UNL     1       9.200  -2.422  24.143  0.00  0.00    -0.283 N 
ATOM      5  H   UNL     1       9.617  -2.944  23.377  0.00  0.00    +0.155 HD
ATOM      6  O   UNL     1       8.666  -2.688  26.377  0.00  0.00    -0.272 OA
BRANCH   4   7
ATOM      7  C   UNL     1       9.299  -1.013  24.122  0.00  0.00    +0.035 A 
ATOM      8  C   UNL     1       8.227  -0.267  23.625  0.00  0.00    +0.039 A 
ATOM      9  C   UNL     1       8.315   1.135  23.542  0.00  0.00    +0.032 A 
ATOM     10  I   UNL     1       6.670   2.153  22.723  0.00  0.00    -0.042 I 
ATOM     11  C   UNL     1       9.466   1.803  23.979  0.00  0.00    +0.065 A 
ATOM     12  C   UNL     1      10.519   1.055  24.512  0.00  0.00    +0.022 A 
ATOM     13  C   UNL     1      10.430  -0.335  24.588  0.00  0.00    +0.024 A 
BRANCH  11  14
ATOM     14  C   UNL     1       9.624   3.227  23.910  0.00  0.00    +0.100 C 
ATOM     15  N   UNL     1       9.740   4.378  23.820  0.00  0.00    -0.191 NA
ENDBRANCH  11  14
ENDBRANCH   4   7
ENDBRANCH   2   3
BRANCH   2  16
ATOM     16  O   UNL     1      10.016  -5.236  25.162  0.00  0.00    -0.376 OA
ATOM     17  H   UNL     1       9.931  -6.208  25.121  0.00  0.00    +0.211 HD
ENDBRANCH   2  16
BRANCH   2  18
ATOM     18  C   UNL     1       7.726  -5.290  26.052  0.00  0.00    +0.273 C 
BRANCH  18  19
ATOM     19  O   UNL     1       6.440  -4.672  25.923  0.00  0.00    -0.489 OA
BRANCH  19  20
ATOM     20  C   UNL     1       5.384  -5.443  25.538  0.00  0.00    +0.121 A 
ATOM     21  C   UNL     1       4.744  -5.016  24.371  0.00  0.00    +0.047 A 
ATOM     22  C   UNL     1       3.700  -5.759  23.812  0.00  0.00    +0.022 A 
ATOM     23  C   UNL     1       3.285  -6.942  24.427  0.00  0.00    +0.052 A 
ATOM     24  C   UNL     1       3.895  -7.352  25.617  0.00  0.00    +0.022 A 
ATOM     25  C   UNL     1       4.940  -6.602  26.175  0.00  0.00    +0.047 A 
BRANCH  23  26
ATOM     26  C   UNL     1       2.258  -7.745  23.828  0.00  0.00    +0.099 C 
ATOM     27  N   UNL     1       1.438  -8.397  23.330  0.00  0.00    -0.191 NA
ENDBRANCH  23  26
ENDBRANCH  19  20
ENDBRANCH  18  19
ENDBRANCH   2  18
TORSDOF 8
ENDMDL
