MODEL 1
REMARK VINA RESULT:      -5.0      0.000      0.000
REMARK  Name = 
REMARK  4 active torsions:
REMARK  status: ('A' for Active; 'I' for Inactive)
REMARK    1  A    between atoms: N_1  and  C_2
REMARK    2  A    between atoms: C_3  and  O_4
REMARK    3  A    between atoms: C_8  and  C_9
REMARK    4  A    between atoms: C_9  and  O_10
REMARK                            x       y       z     vdW  Elec       q    Type
REMARK                         _______ _______ _______ _____ _____    ______ ____
ROOT
ATOM      1  C   UNL     1       9.749  -0.104  22.332  0.00  0.00    +0.081 A 
ATOM      2  C   UNL     1       9.682  -0.927  23.473  0.00  0.00    +0.083 A 
ATOM      3  C   UNL     1       9.932  -0.381  24.747  0.00  0.00    +0.017 A 
ATOM      4  C   UNL     1      10.312   0.958  24.884  0.00  0.00    +0.004 A 
ATOM      5  C   UNL     1      10.421   1.768  23.757  0.00  0.00    +0.047 A 
ATOM      6  C   UNL     1      10.118   1.238  22.509  0.00  0.00    +0.138 A 
ENDROOT
BRANCH   1   7
ATOM      7  N   UNL     1       9.418  -0.532  21.023  0.00  0.00    -0.355 N 
ATOM      8  H   UNL     1       8.478  -0.217  20.748  0.00  0.00    +0.142 HD
ATOM      9  H   UNL     1       9.510  -1.538  20.902  0.00  0.00    +0.142 HD
ENDBRANCH   1   7
BRANCH   2  10
ATOM     10  C   UNL     1       9.348  -2.370  23.331  0.00  0.00    +0.339 C 
ATOM     11  O   UNL     1       8.424  -2.779  22.646  0.00  0.00    -0.245 OA
BRANCH  10  12
ATOM     12  O   UNL     1      10.205  -3.206  23.958  0.00  0.00    -0.477 OA
ATOM     13  H   UNL     1      10.838  -2.781  24.564  0.00  0.00    +0.295 HD
ENDBRANCH  10  12
ENDBRANCH   2  10
BRANCH   6  14
ATOM     14  O   UNL     1      10.126   2.081  21.430  0.00  0.00    -0.505 OA
ATOM     15  H   UNL     1       9.408   1.744  20.859  0.00  0.00    +0.292 HD
ENDBRANCH   6  14
TORSDOF 4
ENDMDL
MODEL 2
REMARK VINA RESULT:      -4.7      1.839      2.485
REMARK  Name = 
REMARK  4 active torsions:
REMARK  status: ('A' for Active; 'I' for Inactive)
REMARK    1  A    between atoms: N_1  and  C_2
REMARK    2  A    between atoms: C_3  and  O_4
REMARK    3  A    between atoms: C_8  and  C_9
REMARK    4  A    between atoms: C_9  and  O_10
REMARK                            x       y       z     vdW  Elec       q    Type
REMARK                         _______ _______ _______ _____ _____    ______ ____
ROOT
ATOM      1  C   UNL     1      10.100   0.256  24.011  0.00  0.00    +0.081 A 
ATOM      2  C   UNL     1       9.662  -0.943  23.419  0.00  0.00    +0.083 A 
ATOM      3  C   UNL     1       9.334  -0.971  22.049  0.00  0.00    +0.017 A 
ATOM      4  C   UNL     1       9.376   0.200  21.286  0.00  0.00    +0.004 A 
ATOM      5  C   UNL     1       9.768   1.399  21.873  0.00  0.00    +0.047 A 
ATOM      6  C   UNL     1      10.145   1.408  23.210  0.00  0.00    +0.138 A 
ENDROOT
BRANCH   1   7
ATOM      7  N   UNL     1      10.547   0.365  25.351  0.00  0.00    -0.355 N 
ATOM      8  H   UNL     1      10.790   1.335  25.592  0.00  0.00    +0.142 HD
ATOM      9  H   UNL     1      11.320  -0.262  25.561  0.00  0.00    +0.142 HD
ENDBRANCH   1   7
BRANCH   2  10
ATOM     10  C   UNL     1       9.546  -2.179  24.239  0.00  0.00    +0.339 C 
ATOM     11  O   UNL     1      10.164  -3.204  23.997  0.00  0.00    -0.245 OA
BRANCH  10  12
ATOM     12  O   UNL     1       8.759  -2.054  25.330  0.00  0.00    -0.477 OA
ATOM     13  H   UNL     1       7.995  -2.657  25.368  0.00  0.00    +0.295 HD
ENDBRANCH  10  12
ENDBRANCH   2  10
BRANCH   6  14
ATOM     14  O   UNL     1      10.631   2.575  23.738  0.00  0.00    -0.505 OA
ATOM     15  H   UNL     1      10.232   3.272  23.182  0.00  0.00    +0.292 HD
ENDBRANCH   6  14
TORSDOF 4
ENDMDL
MODEL 3
REMARK VINA RESULT:      -4.7      1.902      3.873
REMARK  Name = 
REMARK  4 active torsions:
REMARK  status: ('A' for Active; 'I' for Inactive)
REMARK    1  A    between atoms: N_1  and  C_2
REMARK    2  A    between atoms: C_3  and  O_4
REMARK    3  A    between atoms: C_8  and  C_9
REMARK    4  A    between atoms: C_9  and  O_10
REMARK                            x       y       z     vdW  Elec       q    Type
REMARK                         _______ _______ _______ _____ _____    ______ ____
ROOT
ATOM      1  C   UNL     1       9.631   1.120  22.492  0.00  0.00    +0.081 A 
ATOM      2  C   UNL     1       9.774   1.654  23.786  0.00  0.00    +0.083 A 
ATOM      3  C   UNL     1      10.076   0.804  24.867  0.00  0.00    +0.017 A 
ATOM      4  C   UNL     1      10.170  -0.578  24.678  0.00  0.00    +0.004 A 
ATOM      5  C   UNL     1       9.989  -1.120  23.409  0.00  0.00    +0.047 A 
ATOM      6  C   UNL     1       9.748  -0.270  22.337  0.00  0.00    +0.138 A 
ENDROOT
BRANCH   1   7
ATOM      7  N   UNL     1       9.428   1.900  21.328  0.00  0.00    -0.355 N 
ATOM      8  H   UNL     1       9.641   1.368  20.473  0.00  0.00    +0.142 HD
ATOM      9  H   UNL     1       9.945   2.776  21.344  0.00  0.00    +0.142 HD
ENDBRANCH   1   7
BRANCH   2  10
ATOM     10  C   UNL     1       9.606   3.116  24.011  0.00  0.00    +0.339 C 
ATOM     11  O   UNL     1       8.854   3.581  24.853  0.00  0.00    -0.245 OA
BRANCH  10  12
ATOM     12  O   UNL     1      10.419   3.894  23.263  0.00  0.00    -0.477 OA
ATOM     13  H   UNL     1      10.170   3.981  22.325  0.00  0.00    +0.295 HD
ENDBRANCH  10  12
ENDBRANCH   2  10
BRANCH   6  14
ATOM     14  O   UNL     1       9.682  -0.814  21.082  0.00  0.00    -0.505 OA
ATOM     15  H   UNL     1      10.054  -0.121  20.502  0.00  0.00    +0.292 HD
ENDBRANCH   6  14
TORSDOF 4
ENDMDL
MODEL 4
REMARK VINA RESULT:      -4.6      2.027      4.421
REMARK  Name = 
REMARK  4 active torsions:
REMARK  status: ('A' for Active; 'I' for Inactive)
REMARK    1  A    between atoms: N_1  and  C_2
REMARK    2  A    between atoms: C_3  and  O_4
REMARK    3  A    between atoms: C_8  and  C_9
REMARK    4  A    between atoms: C_9  and  O_10
REMARK                            x       y       z     vdW  Elec       q    Type
REMARK                         _______ _______ _______ _____ _____    ______ ____
ROOT
ATOM      1  C   UNL     1      10.069   0.377  23.926  0.00  0.00    +0.081 A 
ATOM      2  C   UNL     1       9.878   1.469  23.059  0.00  0.00    +0.083 A 
ATOM      3  C   UNL     1       9.502   1.246  21.720  0.00  0.00    +0.017 A 
ATOM      4  C   UNL     1       9.380  -0.056  21.225  0.00  0.00    +0.004 A 
ATOM      5  C   UNL     1       9.608  -1.143  22.065  0.00  0.00    +0.047 A 
ATOM      6  C   UNL     1       9.924  -0.916  23.398  0.00  0.00    +0.138 A 
ENDROOT
BRANCH   1   7
ATOM      7  N   UNL     1      10.350   0.499  25.308  0.00  0.00    -0.355 N 
ATOM      8  H   UNL     1       9.947   1.360  25.703  0.00  0.00    +0.142 HD
ATOM      9  H   UNL     1      11.344   0.439  25.516  0.00  0.00    +0.142 HD
ENDBRANCH   1   7
BRANCH   2  10
ATOM     10  C   UNL     1      10.074   2.858  23.557  0.00  0.00    +0.339 C 
ATOM     11  O   UNL     1       9.421   3.340  24.469  0.00  0.00    -0.245 OA
BRANCH  10  12
ATOM     12  O   UNL     1      11.096   3.522  22.974  0.00  0.00    -0.477 OA
ATOM     13  H   UNL     1      11.012   4.492  22.960  0.00  0.00    +0.295 HD
ENDBRANCH  10  12
ENDBRANCH   2  10
BRANCH   6  14
ATOM     14  O   UNL     1      10.035  -1.998  24.230  0.00  0.00    -0.505 OA
ATOM     15  H   UNL     1      10.849  -1.822  24.742  0.00  0.00    +0.292 HD
ENDBRANCH   6  14
TORSDOF 4
ENDMDL
MODEL 5
REMARK VINA RESULT:      -4.6      1.221      3.543
REMARK  Name = 
REMARK  4 active torsions:
REMARK  status: ('A' for Active; 'I' for Inactive)
REMARK    1  A    between atoms: N_1  and  C_2
REMARK    2  A    between atoms: C_3  and  O_4
REMARK    3  A    between atoms: C_8  and  C_9
REMARK    4  A    between atoms: C_9  and  O_10
REMARK                            x       y       z     vdW  Elec       q    Type
REMARK                         _______ _______ _______ _____ _____    ______ ____
ROOT
ATOM      1  C   UNL     1       9.587  -0.690  22.775  0.00  0.00    +0.081 A 
ATOM      2  C   UNL     1       9.126   0.617  23.023  0.00  0.00    +0.083 A 
ATOM      3  C   UNL     1       8.811   1.012  24.337  0.00  0.00    +0.017 A 
ATOM      4  C   UNL     1       8.890   0.098  25.392  0.00  0.00    +0.004 A 
ATOM      5  C   UNL     1       9.306  -1.209  25.149  0.00  0.00    +0.047 A 
ATOM      6  C   UNL     1       9.668  -1.576  23.860  0.00  0.00    +0.138 A 
ENDROOT
BRANCH   1   7
ATOM      7  N   UNL     1      10.023  -1.152  21.509  0.00  0.00    -0.355 N 
ATOM      8  H   UNL     1      10.497  -0.410  20.977  0.00  0.00    +0.142 HD
ATOM      9  H   UNL     1       9.273  -1.565  20.960  0.00  0.00    +0.142 HD
ENDBRANCH   1   7
BRANCH   2  10
ATOM     10  C   UNL     1       8.971   1.578  21.897  0.00  0.00    +0.339 C 
ATOM     11  O   UNL     1       7.887   1.899  21.436  0.00  0.00    -0.245 OA
BRANCH  10  12
ATOM     12  O   UNL     1      10.127   2.136  21.476  0.00  0.00    -0.477 OA
ATOM     13  H   UNL     1      10.939   1.754  21.853  0.00  0.00    +0.295 HD
ENDBRANCH  10  12
ENDBRANCH   2  10
BRANCH   6  14
ATOM     14  O   UNL     1      10.178  -2.832  23.665  0.00  0.00    -0.505 OA
ATOM     15  H   UNL     1       9.575  -3.415  24.166  0.00  0.00    +0.292 HD
ENDBRANCH   6  14
TORSDOF 4
ENDMDL
MODEL 6
REMARK VINA RESULT:      -4.6      5.174      6.906
REMARK  Name = 
REMARK  4 active torsions:
REMARK  status: ('A' for Active; 'I' for Inactive)
REMARK    1  A    between atoms: N_1  and  C_2
REMARK    2  A    between atoms: C_3  and  O_4
REMARK    3  A    between atoms: C_8  and  C_9
REMARK    4  A    between atoms: C_9  and  O_10
REMARK                            x       y       z     vdW  Elec       q    Type
REMARK                         _______ _______ _______ _____ _____    ______ ____
ROOT
ATOM      1  C   UNL     1       7.472  -5.554  25.906  0.00  0.00    +0.081 A 
ATOM      2  C   UNL     1       8.058  -4.972  24.766  0.00  0.00    +0.083 A 
ATOM      3  C   UNL     1       7.273  -4.719  23.625  0.00  0.00    +0.017 A 
ATOM      4  C   UNL     1       5.929  -5.102  23.589  0.00  0.00    +0.004 A 
ATOM      5  C   UNL     1       5.351  -5.717  24.696  0.00  0.00    +0.047 A 
ATOM      6  C   UNL     1       6.116  -5.912  25.839  0.00  0.00    +0.138 A 
ENDROOT
BRANCH   1   7
ATOM      7  N   UNL     1       8.149  -5.756  27.133  0.00  0.00    -0.355 N 
ATOM      8  H   UNL     1       8.675  -4.918  27.419  0.00  0.00    +0.142 HD
ATOM      9  H   UNL     1       8.756  -6.573  27.119  0.00  0.00    +0.142 HD
ENDBRANCH   1   7
BRANCH   2  10
ATOM     10  C   UNL     1       9.505  -4.625  24.768  0.00  0.00    +0.339 C 
ATOM     11  O   UNL     1       9.939  -3.560  24.356  0.00  0.00    -0.245 OA
BRANCH  10  12
ATOM     12  O   UNL     1      10.302  -5.552  25.344  0.00  0.00    -0.477 OA
ATOM     13  H   UNL     1      10.891  -6.035  24.736  0.00  0.00    +0.295 HD
ENDBRANCH  10  12
ENDBRANCH   2  10
BRANCH   6  14
ATOM     14  O   UNL     1       5.499  -6.417  26.952  0.00  0.00    -0.505 OA
ATOM     15  H   UNL     1       4.720  -6.888  26.600  0.00  0.00    +0.292 HD
ENDBRANCH   6  14
TORSDOF 4
ENDMDL
MODEL 7
REMARK VINA RESULT:      -4.5      1.909      2.308
REMARK  Name = 
REMARK  4 active torsions:
REMARK  status: ('A' for Active; 'I' for Inactive)
REMARK    1  A    between atoms: N_1  and  C_2
REMARK    2  A    between atoms: C_3  and  O_4
REMARK    3  A    between atoms: C_8  and  C_9
REMARK    4  A    between atoms: C_9  and  O_10
REMARK                            x       y       z     vdW  Elec       q    Type
REMARK                         _______ _______ _______ _____ _____    ______ ____
ROOT
ATOM      1  C   UNL     1       9.653   1.593  22.709  0.00  0.00    +0.081 A 
ATOM      2  C   UNL     1       9.494   0.239  23.056  0.00  0.00    +0.083 A 
ATOM      3  C   UNL     1       8.904  -0.105  24.288  0.00  0.00    +0.017 A 
ATOM      4  C   UNL     1       8.534   0.888  25.200  0.00  0.00    +0.004 A 
ATOM      5  C   UNL     1       8.726   2.230  24.882  0.00  0.00    +0.047 A 
ATOM      6  C   UNL     1       9.256   2.564  23.642  0.00  0.00    +0.138 A 
ENDROOT
BRANCH   1   7
ATOM      7  N   UNL     1      10.141   2.041  21.457  0.00  0.00    -0.355 N 
ATOM      8  H   UNL     1       9.374   2.238  20.799  0.00  0.00    +0.142 HD
ATOM      9  H   UNL     1      10.812   1.399  21.042  0.00  0.00    +0.142 HD
ENDBRANCH   1   7
BRANCH   2  10
ATOM     10  C   UNL     1       9.948  -0.828  22.123  0.00  0.00    +0.339 C 
ATOM     11  O   UNL     1      10.658  -1.760  22.467  0.00  0.00    -0.245 OA
BRANCH  10  12
ATOM     12  O   UNL     1       9.443  -0.730  20.874  0.00  0.00    -0.477 OA
ATOM     13  H   UNL     1       9.537  -1.525  20.320  0.00  0.00    +0.295 HD
ENDBRANCH  10  12
ENDBRANCH   2  10
BRANCH   6  14
ATOM     14  O   UNL     1       9.334   3.889  23.307  0.00  0.00    -0.505 OA
ATOM     15  H   UNL     1       9.512   3.883  22.347  0.00  0.00    +0.292 HD
ENDBRANCH   6  14
TORSDOF 4
ENDMDL
MODEL 8
REMARK VINA RESULT:      -4.5      2.188      4.290
REMARK  Name = 
REMARK  4 active torsions:
REMARK  status: ('A' for Active; 'I' for Inactive)
REMARK    1  A    between atoms: N_1  and  C_2
REMARK    2  A    between atoms: C_3  and  O_4
REMARK    3  A    between atoms: C_8  and  C_9
REMARK    4  A    between atoms: C_9  and  O_10
REMARK                            x       y       z     vdW  Elec       q    Type
REMARK                         _______ _______ _______ _____ _____    ______ ____
ROOT
ATOM      1  C   UNL     1       9.499   0.308  24.429  0.00  0.00    +0.081 A 
ATOM      2  C   UNL     1       9.948   0.570  23.122  0.00  0.00    +0.083 A 
ATOM      3  C   UNL     1      10.215  -0.498  22.243  0.00  0.00    +0.017 A 
ATOM      4  C   UNL     1      10.101  -1.821  22.680  0.00  0.00    +0.004 A 
ATOM      5  C   UNL     1       9.698  -2.090  23.985  0.00  0.00    +0.047 A 
ATOM      6  C   UNL     1       9.381  -1.033  24.828  0.00  0.00    +0.138 A 
ENDROOT
BRANCH   1   7
ATOM      7  N   UNL     1       9.109   1.308  25.352  0.00  0.00    -0.355 N 
ATOM      8  H   UNL     1       9.476   2.233  25.087  0.00  0.00    +0.142 HD
ATOM      9  H   UNL     1       9.363   1.082  26.310  0.00  0.00    +0.142 HD
ENDBRANCH   1   7
BRANCH   2  10
ATOM     10  C   UNL     1      10.140   1.975  22.668  0.00  0.00    +0.339 C 
ATOM     11  O   UNL     1      10.654   2.838  23.363  0.00  0.00    -0.245 OA
BRANCH  10  12
ATOM     12  O   UNL     1       9.776   2.204  21.388  0.00  0.00    -0.477 OA
ATOM     13  H   UNL     1      10.508   2.338  20.761  0.00  0.00    +0.295 HD
ENDBRANCH  10  12
ENDBRANCH   2  10
BRANCH   6  14
ATOM     14  O   UNL     1       8.882  -1.323  26.070  0.00  0.00    -0.505 OA
ATOM     15  H   UNL     1       9.572  -1.005  26.685  0.00  0.00    +0.292 HD
ENDBRANCH   6  14
TORSDOF 4
ENDMDL
MODEL 9
REMARK VINA RESULT:      -4.4      2.330      2.879
REMARK  Name = 
REMARK  4 active torsions:
REMARK  status: ('A' for Active; 'I' for Inactive)
REMARK    1  A    between atoms: N_1  and  C_2
REMARK    2  A    between atoms: C_3  and  O_4
REMARK    3  A    between atoms: C_8  and  C_9
REMARK    4  A    between atoms: C_9  and  O_10
REMARK                            x       y       z     vdW  Elec       q    Type
REMARK                         _______ _______ _______ _____ _____    ______ ____
ROOT
ATOM      1  C   UNL     1       9.450   0.789  24.140  0.00  0.00    +0.081 A 
ATOM      2  C   UNL     1       9.566   0.075  22.933  0.00  0.00    +0.083 A 
ATOM      3  C   UNL     1       9.161   0.671  21.723  0.00  0.00    +0.017 A 
ATOM      4  C   UNL     1       8.583   1.944  21.717  0.00  0.00    +0.004 A 
ATOM      5  C   UNL     1       8.427   2.642  22.912  0.00  0.00    +0.047 A 
ATOM      6  C   UNL     1       8.880   2.071  24.094  0.00  0.00    +0.138 A 
ENDROOT
BRANCH   1   7
ATOM      7  N   UNL     1       9.920   0.319  25.391  0.00  0.00    -0.355 N 
ATOM      8  H   UNL     1       9.718  -0.682  25.519  0.00  0.00    +0.142 HD
ATOM      9  H   UNL     1       9.563   0.860  26.175  0.00  0.00    +0.142 HD
ENDBRANCH   1   7
BRANCH   2  10
ATOM     10  C   UNL     1      10.115  -1.308  22.937  0.00  0.00    +0.339 C 
ATOM     11  O   UNL     1      10.044  -2.054  23.901  0.00  0.00    -0.245 OA
BRANCH  10  12
ATOM     12  O   UNL     1      10.628  -1.709  21.753  0.00  0.00    -0.477 OA
ATOM     13  H   UNL     1      11.164  -1.046  21.282  0.00  0.00    +0.295 HD
ENDBRANCH  10  12
ENDBRANCH   2  10
BRANCH   6  14
ATOM     14  O   UNL     1       8.816   2.819  25.240  0.00  0.00    -0.505 OA
ATOM     15  H   UNL     1       9.479   3.523  25.102  0.00  0.00    +0.292 HD
ENDBRANCH   6  14
TORSDOF 4
ENDMDL
