MODEL 1
REMARK VINA RESULT:      -7.2      0.000      0.000
REMARK  Name = 
REMARK  7 active torsions:
REMARK  status: ('A' for Active; 'I' for Inactive)
REMARK    1  A    between atoms: C_2  and  C_16
REMARK    2  A    between atoms: C_7  and  C_9
REMARK    3  A    between atoms: C_9  and  C_10
REMARK    4  A    between atoms: C_10  and  C_11
REMARK    5  A    between atoms: N_18  and  C_19
REMARK    6  A    between atoms: C_19  and  C_20
REMARK    7  A    between atoms: C_23  and  C_26
REMARK                            x       y       z     vdW  Elec       q    Type
REMARK                         _______ _______ _______ _____ _____    ______ ____
ROOT
ATOM      1  C   UNL     1       6.252  -1.611  24.455  0.00  0.00    +0.234 C 
ATOM      2  N   UNL     1       5.939  -0.394  23.875  0.00  0.00    -0.310 N 
ATOM      3  H   UNL     1       5.672  -0.341  22.905  0.00  0.00    +0.149 HD
ATOM      4  O   UNL     1       6.357  -1.740  25.674  0.00  0.00    -0.274 OA
ENDROOT
BRANCH   1   5
ATOM      5  C   UNL     1       6.622  -2.746  23.463  0.00  0.00    +0.162 C 
ATOM      6  N   UNL     1       7.675  -3.607  24.013  0.00  0.00    -0.290 N 
ATOM      7  C   UNL     1       9.038  -3.403  24.028  0.00  0.00    +0.216 C 
ATOM      8  O   UNL     1       9.802  -4.270  24.460  0.00  0.00    -0.276 OA
ATOM      9  C   UNL     1       7.127  -4.864  24.497  0.00  0.00    +0.108 C 
ATOM     10  C   UNL     1       5.624  -4.736  24.328  0.00  0.00    +0.021 C 
ATOM     11  C   UNL     1       5.489  -3.740  23.185  0.00  0.00    +0.033 C 
BRANCH   7  12
ATOM     12  C   UNL     1       9.576  -2.076  23.516  0.00  0.00    +0.096 C 
BRANCH  12  13
ATOM     13  C   UNL     1       9.667  -1.016  24.621  0.00  0.00    +0.013 C 
BRANCH  13  14
ATOM     14  C   UNL     1       9.596   0.427  24.103  0.00  0.00    -0.011 C 
ATOM     15  C   UNL     1       9.409   0.503  22.582  0.00  0.00    +0.003 C 
ATOM     16  C   UNL     1      10.108   1.790  22.132  0.00  0.00    +0.000 C 
ATOM     17  C   UNL     1      10.707   2.410  23.387  0.00  0.00    +0.000 C 
ATOM     18  C   UNL     1      10.860   1.246  24.351  0.00  0.00    +0.003 C 
ENDBRANCH  13  14
ENDBRANCH  12  13
ENDBRANCH   7  12
ENDBRANCH   1   5
BRANCH   2  19
ATOM     19  C   UNL     1       5.755   0.802  24.673  0.00  0.00    +0.139 C 
BRANCH  19  20
ATOM     20  C   UNL     1       6.423   2.016  24.070  0.00  0.00    -0.030 A 
ATOM     21  C   UNL     1       6.293   2.271  22.697  0.00  0.00    +0.006 A 
ATOM     22  C   UNL     1       6.810   3.444  22.140  0.00  0.00    +0.016 A 
ATOM     23  C   UNL     1       7.468   4.372  22.949  0.00  0.00    +0.065 A 
ATOM     24  C   UNL     1       7.670   4.094  24.303  0.00  0.00    +0.016 A 
ATOM     25  C   UNL     1       7.162   2.917  24.855  0.00  0.00    +0.006 A 
BRANCH  23  26
ATOM     26  C   UNL     1       7.936   5.660  22.373  0.00  0.00    +0.308 C 
ATOM     27  N   UNL     1       7.335   6.249  21.385  0.00  0.00    -0.099 NA
ATOM     28  H   UNL     1       6.558   5.683  21.032  0.00  0.00    +0.363 HD
ATOM     29  N   UNL     1       9.042   6.281  22.872  0.00  0.00    -0.247 N 
ATOM     30  H   UNL     1       9.112   7.232  22.519  0.00  0.00    +0.288 HD
ATOM     31  H   UNL     1       9.177   6.220  23.872  0.00  0.00    +0.288 HD
ENDBRANCH  23  26
ENDBRANCH  19  20
ENDBRANCH   2  19
TORSDOF 7
ENDMDL
MODEL 2
REMARK VINA RESULT:      -6.8      1.901      3.923
REMARK  Name = 
REMARK  7 active torsions:
REMARK  status: ('A' for Active; 'I' for Inactive)
REMARK    1  A    between atoms: C_2  and  C_16
REMARK    2  A    between atoms: C_7  and  C_9
REMARK    3  A    between atoms: C_9  and  C_10
REMARK    4  A    between atoms: C_10  and  C_11
REMARK    5  A    between atoms: N_18  and  C_19
REMARK    6  A    between atoms: C_19  and  C_20
REMARK    7  A    between atoms: C_23  and  C_26
REMARK                            x       y       z     vdW  Elec       q    Type
REMARK                         _______ _______ _______ _____ _____    ______ ____
ROOT
ATOM      1  C   UNL     1       8.507  -3.040  24.158  0.00  0.00    +0.234 C 
ATOM      2  N   UNL     1       9.783  -2.589  23.869  0.00  0.00    -0.310 N 
ATOM      3  H   UNL     1      10.570  -2.882  24.424  0.00  0.00    +0.149 HD
ATOM      4  O   UNL     1       7.571  -2.886  23.374  0.00  0.00    -0.274 OA
ENDROOT
BRANCH   1   5
ATOM      5  C   UNL     1       8.307  -3.594  25.594  0.00  0.00    +0.162 C 
ATOM      6  N   UNL     1       7.035  -3.136  26.165  0.00  0.00    -0.290 N 
ATOM      7  C   UNL     1       6.742  -1.932  26.769  0.00  0.00    +0.216 C 
ATOM      8  O   UNL     1       5.635  -1.731  27.275  0.00  0.00    -0.276 OA
ATOM      9  C   UNL     1       6.035  -4.191  26.136  0.00  0.00    +0.108 C 
ATOM     10  C   UNL     1       6.697  -5.349  25.411  0.00  0.00    +0.021 C 
ATOM     11  C   UNL     1       8.179  -5.119  25.674  0.00  0.00    +0.033 C 
BRANCH   7  12
ATOM     12  C   UNL     1       7.810  -0.850  26.778  0.00  0.00    +0.096 C 
BRANCH  12  13
ATOM     13  C   UNL     1       7.224   0.554  26.577  0.00  0.00    +0.013 C 
BRANCH  13  14
ATOM     14  C   UNL     1       7.390   1.095  25.151  0.00  0.00    -0.011 C 
ATOM     15  C   UNL     1       7.202   2.616  25.066  0.00  0.00    +0.003 C 
ATOM     16  C   UNL     1       6.625   2.895  23.675  0.00  0.00    +0.000 C 
ATOM     17  C   UNL     1       6.464   1.540  23.000  0.00  0.00    +0.000 C 
ATOM     18  C   UNL     1       6.373   0.551  24.150  0.00  0.00    +0.003 C 
ENDBRANCH  13  14
ENDBRANCH  12  13
ENDBRANCH   7  12
ENDBRANCH   1   5
BRANCH   2  19
ATOM     19  C   UNL     1      10.076  -1.877  22.640  0.00  0.00    +0.139 C 
BRANCH  19  20
ATOM     20  C   UNL     1      10.143  -0.380  22.832  0.00  0.00    -0.030 A 
ATOM     21  C   UNL     1      10.607   0.145  24.047  0.00  0.00    +0.006 A 
ATOM     22  C   UNL     1      10.780   1.522  24.207  0.00  0.00    +0.016 A 
ATOM     23  C   UNL     1      10.484   2.391  23.154  0.00  0.00    +0.065 A 
ATOM     24  C   UNL     1       9.949   1.887  21.966  0.00  0.00    +0.016 A 
ATOM     25  C   UNL     1       9.768   0.512  21.814  0.00  0.00    +0.006 A 
BRANCH  23  26
ATOM     26  C   UNL     1      10.754   3.846  23.293  0.00  0.00    +0.308 C 
ATOM     27  N   UNL     1      11.933   4.362  23.131  0.00  0.00    -0.099 NA
ATOM     28  H   UNL     1      12.636   3.637  22.963  0.00  0.00    +0.363 HD
ATOM     29  N   UNL     1       9.747   4.711  23.607  0.00  0.00    -0.247 N 
ATOM     30  H   UNL     1      10.042   5.674  23.465  0.00  0.00    +0.288 HD
ATOM     31  H   UNL     1       8.843   4.511  23.203  0.00  0.00    +0.288 HD
ENDBRANCH  23  26
ENDBRANCH  19  20
ENDBRANCH   2  19
TORSDOF 7
ENDMDL
MODEL 3
REMARK VINA RESULT:      -6.8      3.242      7.785
REMARK  Name = 
REMARK  7 active torsions:
REMARK  status: ('A' for Active; 'I' for Inactive)
REMARK    1  A    between atoms: C_2  and  C_16
REMARK    2  A    between atoms: C_7  and  C_9
REMARK    3  A    between atoms: C_9  and  C_10
REMARK    4  A    between atoms: C_10  and  C_11
REMARK    5  A    between atoms: N_18  and  C_19
REMARK    6  A    between atoms: C_19  and  C_20
REMARK    7  A    between atoms: C_23  and  C_26
REMARK                            x       y       z     vdW  Elec       q    Type
REMARK                         _______ _______ _______ _____ _____    ______ ____
ROOT
ATOM      1  C   UNL     1       8.663  -0.164  25.200  0.00  0.00    +0.234 C 
ATOM      2  N   UNL     1       8.386  -1.234  26.033  0.00  0.00    -0.310 N 
ATOM      3  H   UNL     1       9.113  -1.878  26.301  0.00  0.00    +0.149 HD
ATOM      4  O   UNL     1       7.863   0.757  25.039  0.00  0.00    -0.274 OA
ENDROOT
BRANCH   1   5
ATOM      5  C   UNL     1       9.964  -0.291  24.363  0.00  0.00    +0.162 C 
ATOM      6  N   UNL     1       9.706  -0.032  22.942  0.00  0.00    -0.290 N 
ATOM      7  C   UNL     1       9.206  -0.887  21.984  0.00  0.00    +0.216 C 
ATOM      8  O   UNL     1       9.125  -0.537  20.804  0.00  0.00    -0.276 OA
ATOM      9  C   UNL     1      10.162   1.295  22.559  0.00  0.00    +0.108 C 
ATOM     10  C   UNL     1      10.643   1.940  23.846  0.00  0.00    +0.021 C 
ATOM     11  C   UNL     1      11.040   0.746  24.702  0.00  0.00    +0.033 C 
BRANCH   7  12
ATOM     12  C   UNL     1       8.737  -2.266  22.421  0.00  0.00    +0.096 C 
BRANCH  12  13
ATOM     13  C   UNL     1       7.246  -2.292  22.778  0.00  0.00    +0.013 C 
BRANCH  13  14
ATOM     14  C   UNL     1       6.548  -3.613  22.429  0.00  0.00    -0.011 C 
ATOM     15  C   UNL     1       5.085  -3.653  22.890  0.00  0.00    +0.003 C 
ATOM     16  C   UNL     1       4.780  -5.120  23.209  0.00  0.00    +0.000 C 
ATOM     17  C   UNL     1       6.071  -5.888  22.957  0.00  0.00    +0.000 C 
ATOM     18  C   UNL     1       7.166  -4.843  23.089  0.00  0.00    +0.003 C 
ENDBRANCH  13  14
ENDBRANCH  12  13
ENDBRANCH   7  12
ENDBRANCH   1   5
BRANCH   2  19
ATOM     19  C   UNL     1       7.121  -1.343  26.732  0.00  0.00    +0.139 C 
BRANCH  19  20
ATOM     20  C   UNL     1       6.552  -2.743  26.696  0.00  0.00    -0.030 A 
ATOM     21  C   UNL     1       7.417  -3.846  26.712  0.00  0.00    +0.006 A 
ATOM     22  C   UNL     1       6.911  -5.146  26.789  0.00  0.00    +0.016 A 
ATOM     23  C   UNL     1       5.531  -5.357  26.846  0.00  0.00    +0.065 A 
ATOM     24  C   UNL     1       4.657  -4.271  26.755  0.00  0.00    +0.016 A 
ATOM     25  C   UNL     1       5.166  -2.975  26.666  0.00  0.00    +0.006 A 
BRANCH  23  26
ATOM     26  C   UNL     1       4.997  -6.733  27.020  0.00  0.00    +0.308 C 
ATOM     27  N   UNL     1       4.252  -7.317  26.133  0.00  0.00    -0.099 NA
ATOM     28  H   UNL     1       4.040  -6.688  25.354  0.00  0.00    +0.363 HD
ATOM     29  N   UNL     1       5.276  -7.448  28.148  0.00  0.00    -0.247 N 
ATOM     30  H   UNL     1       5.019  -8.424  28.029  0.00  0.00    +0.288 HD
ATOM     31  H   UNL     1       6.201  -7.327  28.536  0.00  0.00    +0.288 HD
ENDBRANCH  23  26
ENDBRANCH  19  20
ENDBRANCH   2  19
TORSDOF 7
ENDMDL
MODEL 4
REMARK VINA RESULT:      -6.3      2.276      3.667
REMARK  Name = 
REMARK  7 active torsions:
REMARK  status: ('A' for Active; 'I' for Inactive)
REMARK    1  A    between atoms: C_2  and  C_16
REMARK    2  A    between atoms: C_7  and  C_9
REMARK    3  A    between atoms: C_9  and  C_10
REMARK    4  A    between atoms: C_10  and  C_11
REMARK    5  A    between atoms: N_18  and  C_19
REMARK    6  A    between atoms: C_19  and  C_20
REMARK    7  A    between atoms: C_23  and  C_26
REMARK                            x       y       z     vdW  Elec       q    Type
REMARK                         _______ _______ _______ _____ _____    ______ ____
ROOT
ATOM      1  C   UNL     1       6.974  -3.339  26.757  0.00  0.00    +0.234 C 
ATOM      2  N   UNL     1       7.154  -1.967  26.791  0.00  0.00    -0.310 N 
ATOM      3  H   UNL     1       6.375  -1.350  26.953  0.00  0.00    +0.149 HD
ATOM      4  O   UNL     1       7.925  -4.119  26.789  0.00  0.00    -0.274 OA
ENDROOT
BRANCH   1   5
ATOM      5  C   UNL     1       5.517  -3.813  26.508  0.00  0.00    +0.162 C 
ATOM      6  N   UNL     1       5.434  -4.661  25.313  0.00  0.00    -0.290 N 
ATOM      7  C   UNL     1       5.360  -4.284  23.989  0.00  0.00    +0.216 C 
ATOM      8  O   UNL     1       5.211  -5.125  23.100  0.00  0.00    -0.276 OA
ATOM      9  C   UNL     1       5.319  -6.065  25.672  0.00  0.00    +0.108 C 
ATOM     10  C   UNL     1       5.438  -6.102  27.184  0.00  0.00    +0.021 C 
ATOM     11  C   UNL     1       4.949  -4.723  27.603  0.00  0.00    +0.033 C 
BRANCH   7  12
ATOM     12  C   UNL     1       5.487  -2.807  23.650  0.00  0.00    +0.096 C 
BRANCH  12  13
ATOM     13  C   UNL     1       6.508  -2.547  22.535  0.00  0.00    +0.013 C 
BRANCH  13  14
ATOM     14  C   UNL     1       7.867  -2.050  23.044  0.00  0.00    -0.011 C 
ATOM     15  C   UNL     1       8.683  -1.333  21.960  0.00  0.00    +0.003 C 
ATOM     16  C   UNL     1      10.154  -1.595  22.293  0.00  0.00    +0.000 C 
ATOM     17  C   UNL     1      10.160  -2.476  23.535  0.00  0.00    +0.000 C 
ATOM     18  C   UNL     1       8.802  -3.157  23.524  0.00  0.00    +0.003 C 
ENDBRANCH  13  14
ENDBRANCH  12  13
ENDBRANCH   7  12
ENDBRANCH   1   5
BRANCH   2  19
ATOM     19  C   UNL     1       8.478  -1.377  26.828  0.00  0.00    +0.139 C 
BRANCH  19  20
ATOM     20  C   UNL     1       8.623  -0.206  25.884  0.00  0.00    -0.030 A 
ATOM     21  C   UNL     1       9.902   0.256  25.540  0.00  0.00    +0.006 A 
ATOM     22  C   UNL     1      10.060   1.265  24.586  0.00  0.00    +0.016 A 
ATOM     23  C   UNL     1       8.940   1.828  23.970  0.00  0.00    +0.065 A 
ATOM     24  C   UNL     1       7.659   1.429  24.360  0.00  0.00    +0.016 A 
ATOM     25  C   UNL     1       7.504   0.429  25.320  0.00  0.00    +0.006 A 
BRANCH  23  26
ATOM     26  C   UNL     1       9.114   2.835  22.891  0.00  0.00    +0.308 C 
ATOM     27  N   UNL     1       8.620   2.684  21.701  0.00  0.00    -0.099 NA
ATOM     28  H   UNL     1       8.166   1.772  21.600  0.00  0.00    +0.363 HD
ATOM     29  N   UNL     1       9.817   3.981  23.119  0.00  0.00    -0.247 N 
ATOM     30  H   UNL     1       9.674   4.648  22.366  0.00  0.00    +0.288 HD
ATOM     31  H   UNL     1       9.717   4.392  24.037  0.00  0.00    +0.288 HD
ENDBRANCH  23  26
ENDBRANCH  19  20
ENDBRANCH   2  19
TORSDOF 7
ENDMDL
MODEL 5
REMARK VINA RESULT:      -6.3      1.735      3.767
REMARK  Name = 
REMARK  7 active torsions:
REMARK  status: ('A' for Active; 'I' for Inactive)
REMARK    1  A    between atoms: C_2  and  C_16
REMARK    2  A    between atoms: C_7  and  C_9
REMARK    3  A    between atoms: C_9  and  C_10
REMARK    4  A    between atoms: C_10  and  C_11
REMARK    5  A    between atoms: N_18  and  C_19
REMARK    6  A    between atoms: C_19  and  C_20
REMARK    7  A    between atoms: C_23  and  C_26
REMARK                            x       y       z     vdW  Elec       q    Type
REMARK                         _______ _______ _______ _____ _____    ______ ____
ROOT
ATOM      1  C   UNL     1       8.397  -2.813  23.297  0.00  0.00    +0.234 C 
ATOM      2  N   UNL     1       9.683  -2.332  23.470  0.00  0.00    -0.310 N 
ATOM      3  H   UNL     1      10.258  -2.665  24.227  0.00  0.00    +0.149 HD
ATOM      4  O   UNL     1       7.759  -2.602  22.266  0.00  0.00    -0.274 OA
ENDROOT
BRANCH   1   5
ATOM      5  C   UNL     1       7.762  -3.482  24.544  0.00  0.00    +0.162 C 
ATOM      6  N   UNL     1       6.304  -3.326  24.545  0.00  0.00    -0.290 N 
ATOM      7  C   UNL     1       5.550  -2.245  24.949  0.00  0.00    +0.216 C 
ATOM      8  O   UNL     1       4.318  -2.303  24.963  0.00  0.00    -0.276 OA
ATOM      9  C   UNL     1       5.643  -4.558  24.144  0.00  0.00    +0.108 C 
ATOM     10  C   UNL     1       6.764  -5.512  23.775  0.00  0.00    +0.021 C 
ATOM     11  C   UNL     1       7.935  -5.004  24.605  0.00  0.00    +0.033 C 
BRANCH   7  12
ATOM     12  C   UNL     1       6.274  -0.973  25.359  0.00  0.00    +0.096 C 
BRANCH  12  13
ATOM     13  C   UNL     1       6.273   0.086  24.248  0.00  0.00    +0.013 C 
BRANCH  13  14
ATOM     14  C   UNL     1       6.729   1.474  24.716  0.00  0.00    -0.011 C 
ATOM     15  C   UNL     1       7.382   1.450  26.105  0.00  0.00    +0.003 C 
ATOM     16  C   UNL     1       7.069   2.806  26.744  0.00  0.00    +0.000 C 
ATOM     17  C   UNL     1       6.224   3.569  25.733  0.00  0.00    +0.000 C 
ATOM     18  C   UNL     1       5.599   2.488  24.867  0.00  0.00    +0.003 C 
ENDBRANCH  13  14
ENDBRANCH  12  13
ENDBRANCH   7  12
ENDBRANCH   1   5
BRANCH   2  19
ATOM     19  C   UNL     1      10.333  -1.522  22.459  0.00  0.00    +0.139 C 
BRANCH  19  20
ATOM     20  C   UNL     1      10.106  -0.041  22.661  0.00  0.00    -0.030 A 
ATOM     21  C   UNL     1       9.363   0.683  21.718  0.00  0.00    +0.006 A 
ATOM     22  C   UNL     1       9.049   2.027  21.941  0.00  0.00    +0.016 A 
ATOM     23  C   UNL     1       9.482   2.662  23.107  0.00  0.00    +0.065 A 
ATOM     24  C   UNL     1      10.286   1.973  24.017  0.00  0.00    +0.016 A 
ATOM     25  C   UNL     1      10.607   0.634  23.786  0.00  0.00    +0.006 A 
BRANCH  23  26
ATOM     26  C   UNL     1       9.071   4.063  23.386  0.00  0.00    +0.308 C 
ATOM     27  N   UNL     1       9.564   4.761  24.362  0.00  0.00    -0.099 NA
ATOM     28  H   UNL     1      10.206   4.202  24.931  0.00  0.00    +0.363 HD
ATOM     29  N   UNL     1       8.136   4.679  22.607  0.00  0.00    -0.247 N 
ATOM     30  H   UNL     1       8.115   5.679  22.791  0.00  0.00    +0.288 HD
ATOM     31  H   UNL     1       8.160   4.459  21.621  0.00  0.00    +0.288 HD
ENDBRANCH  23  26
ENDBRANCH  19  20
ENDBRANCH   2  19
TORSDOF 7
ENDMDL
MODEL 6
REMARK VINA RESULT:      -6.2      2.495      6.849
REMARK  Name = 
REMARK  7 active torsions:
REMARK  status: ('A' for Active; 'I' for Inactive)
REMARK    1  A    between atoms: C_2  and  C_16
REMARK    2  A    between atoms: C_7  and  C_9
REMARK    3  A    between atoms: C_9  and  C_10
REMARK    4  A    between atoms: C_10  and  C_11
REMARK    5  A    between atoms: N_18  and  C_19
REMARK    6  A    between atoms: C_19  and  C_20
REMARK    7  A    between atoms: C_23  and  C_26
REMARK                            x       y       z     vdW  Elec       q    Type
REMARK                         _______ _______ _______ _____ _____    ______ ____
ROOT
ATOM      1  C   UNL     1       7.230   1.144  24.974  0.00  0.00    +0.234 C 
ATOM      2  N   UNL     1       6.985  -0.137  25.439  0.00  0.00    -0.310 N 
ATOM      3  H   UNL     1       7.736  -0.707  25.793  0.00  0.00    +0.149 HD
ATOM      4  O   UNL     1       6.316   1.938  24.752  0.00  0.00    -0.274 OA
ENDROOT
BRANCH   1   5
ATOM      5  C   UNL     1       8.704   1.446  24.598  0.00  0.00    +0.162 C 
ATOM      6  N   UNL     1       9.090   0.745  23.368  0.00  0.00    -0.290 N 
ATOM      7  C   UNL     1       9.493  -0.563  23.207  0.00  0.00    +0.216 C 
ATOM      8  O   UNL     1       9.865  -0.980  22.108  0.00  0.00    -0.276 OA
ATOM      9  C   UNL     1       9.118   1.654  22.232  0.00  0.00    +0.108 C 
ATOM     10  C   UNL     1       8.623   2.983  22.772  0.00  0.00    +0.021 C 
ATOM     11  C   UNL     1       8.983   2.912  24.249  0.00  0.00    +0.033 C 
BRANCH   7  12
ATOM     12  C   UNL     1       9.448  -1.486  24.415  0.00  0.00    +0.096 C 
BRANCH  12  13
ATOM     13  C   UNL     1       9.710  -2.951  24.043  0.00  0.00    +0.013 C 
BRANCH  13  14
ATOM     14  C   UNL     1       9.271  -3.951  25.120  0.00  0.00    -0.011 C 
ATOM     15  C   UNL     1       8.386  -5.074  24.564  0.00  0.00    +0.003 C 
ATOM     16  C   UNL     1       7.441  -5.473  25.702  0.00  0.00    +0.000 C 
ATOM     17  C   UNL     1       7.775  -4.560  26.873  0.00  0.00    +0.000 C 
ATOM     18  C   UNL     1       8.423  -3.343  26.234  0.00  0.00    +0.003 C 
ENDBRANCH  13  14
ENDBRANCH  12  13
ENDBRANCH   7  12
ENDBRANCH   1   5
BRANCH   2  19
ATOM     19  C   UNL     1       5.636  -0.623  25.652  0.00  0.00    +0.139 C 
BRANCH  19  20
ATOM     20  C   UNL     1       5.325  -1.861  24.844  0.00  0.00    -0.030 A 
ATOM     21  C   UNL     1       5.970  -2.070  23.616  0.00  0.00    +0.006 A 
ATOM     22  C   UNL     1       5.779  -3.259  22.907  0.00  0.00    +0.016 A 
ATOM     23  C   UNL     1       4.937  -4.250  23.415  0.00  0.00    +0.065 A 
ATOM     24  C   UNL     1       4.231  -4.022  24.599  0.00  0.00    +0.016 A 
ATOM     25  C   UNL     1       4.415  -2.829  25.300  0.00  0.00    +0.006 A 
BRANCH  23  26
ATOM     26  C   UNL     1       4.806  -5.550  22.706  0.00  0.00    +0.308 C 
ATOM     27  N   UNL     1       3.685  -6.198  22.624  0.00  0.00    -0.099 NA
ATOM     28  H   UNL     1       2.946  -5.731  23.157  0.00  0.00    +0.363 HD
ATOM     29  N   UNL     1       5.887  -6.122  22.103  0.00  0.00    -0.247 N 
ATOM     30  H   UNL     1       5.600  -6.886  21.497  0.00  0.00    +0.288 HD
ATOM     31  H   UNL     1       6.539  -5.489  21.660  0.00  0.00    +0.288 HD
ENDBRANCH  23  26
ENDBRANCH  19  20
ENDBRANCH   2  19
TORSDOF 7
ENDMDL
MODEL 7
REMARK VINA RESULT:      -6.0      1.534      3.664
REMARK  Name = 
REMARK  7 active torsions:
REMARK  status: ('A' for Active; 'I' for Inactive)
REMARK    1  A    between atoms: C_2  and  C_16
REMARK    2  A    between atoms: C_7  and  C_9
REMARK    3  A    between atoms: C_9  and  C_10
REMARK    4  A    between atoms: C_10  and  C_11
REMARK    5  A    between atoms: N_18  and  C_19
REMARK    6  A    between atoms: C_19  and  C_20
REMARK    7  A    between atoms: C_23  and  C_26
REMARK                            x       y       z     vdW  Elec       q    Type
REMARK                         _______ _______ _______ _____ _____    ______ ____
ROOT
ATOM      1  C   UNL     1       9.527  -2.185  24.153  0.00  0.00    +0.234 C 
ATOM      2  N   UNL     1       9.839  -0.909  24.590  0.00  0.00    -0.310 N 
ATOM      3  H   UNL     1       9.794  -0.676  25.569  0.00  0.00    +0.149 HD
ATOM      4  O   UNL     1       9.789  -2.561  23.011  0.00  0.00    -0.274 OA
ENDROOT
BRANCH   1   5
ATOM      5  C   UNL     1       8.682  -3.037  25.137  0.00  0.00    +0.162 C 
ATOM      6  N   UNL     1       7.279  -3.098  24.713  0.00  0.00    -0.290 N 
ATOM      7  C   UNL     1       6.274  -2.176  24.913  0.00  0.00    +0.216 C 
ATOM      8  O   UNL     1       5.116  -2.415  24.562  0.00  0.00    -0.276 OA
ATOM      9  C   UNL     1       6.971  -4.378  24.096  0.00  0.00    +0.108 C 
ATOM     10  C   UNL     1       8.292  -5.124  24.042  0.00  0.00    +0.021 C 
ATOM     11  C   UNL     1       9.077  -4.517  25.196  0.00  0.00    +0.033 C 
BRANCH   7  12
ATOM     12  C   UNL     1       6.632  -0.846  25.560  0.00  0.00    +0.096 C 
BRANCH  12  13
ATOM     13  C   UNL     1       5.774   0.311  25.033  0.00  0.00    +0.013 C 
BRANCH  13  14
ATOM     14  C   UNL     1       5.830   1.571  25.907  0.00  0.00    -0.011 C 
ATOM     15  C   UNL     1       5.318   2.822  25.181  0.00  0.00    +0.003 C 
ATOM     16  C   UNL     1       6.103   4.001  25.764  0.00  0.00    +0.000 C 
ATOM     17  C   UNL     1       7.065   3.410  26.785  0.00  0.00    +0.000 C 
ATOM     18  C   UNL     1       7.236   1.963  26.353  0.00  0.00    +0.003 C 
ENDBRANCH  13  14
ENDBRANCH  12  13
ENDBRANCH   7  12
ENDBRANCH   1   5
BRANCH   2  19
ATOM     19  C   UNL     1      10.459   0.063  23.711  0.00  0.00    +0.139 C 
BRANCH  19  20
ATOM     20  C   UNL     1       9.554   1.233  23.402  0.00  0.00    -0.030 A 
ATOM     21  C   UNL     1       9.857   2.502  23.916  0.00  0.00    +0.006 A 
ATOM     22  C   UNL     1       9.096   3.616  23.553  0.00  0.00    +0.016 A 
ATOM     23  C   UNL     1       8.018   3.472  22.676  0.00  0.00    +0.065 A 
ATOM     24  C   UNL     1       7.660   2.202  22.218  0.00  0.00    +0.016 A 
ATOM     25  C   UNL     1       8.416   1.090  22.591  0.00  0.00    +0.006 A 
BRANCH  23  26
ATOM     26  C   UNL     1       7.266   4.670  22.221  0.00  0.00    +0.308 C 
ATOM     27  N   UNL     1       7.845   5.789  21.909  0.00  0.00    -0.099 NA
ATOM     28  H   UNL     1       8.854   5.745  22.082  0.00  0.00    +0.363 HD
ATOM     29  N   UNL     1       5.907   4.637  22.112  0.00  0.00    -0.247 N 
ATOM     30  H   UNL     1       5.566   5.447  21.602  0.00  0.00    +0.288 HD
ATOM     31  H   UNL     1       5.506   3.767  21.789  0.00  0.00    +0.288 HD
ENDBRANCH  23  26
ENDBRANCH  19  20
ENDBRANCH   2  19
TORSDOF 7
ENDMDL
MODEL 8
REMARK VINA RESULT:      -6.0      3.566      8.087
REMARK  Name = 
REMARK  7 active torsions:
REMARK  status: ('A' for Active; 'I' for Inactive)
REMARK    1  A    between atoms: C_2  and  C_16
REMARK    2  A    between atoms: C_7  and  C_9
REMARK    3  A    between atoms: C_9  and  C_10
REMARK    4  A    between atoms: C_10  and  C_11
REMARK    5  A    between atoms: N_18  and  C_19
REMARK    6  A    between atoms: C_19  and  C_20
REMARK    7  A    between atoms: C_23  and  C_26
REMARK                            x       y       z     vdW  Elec       q    Type
REMARK                         _______ _______ _______ _____ _____    ______ ____
ROOT
ATOM      1  C   UNL     1       7.449  -2.257  22.717  0.00  0.00    +0.234 C 
ATOM      2  N   UNL     1       8.109  -3.271  23.389  0.00  0.00    -0.310 N 
ATOM      3  H   UNL     1       8.765  -3.058  24.123  0.00  0.00    +0.149 HD
ATOM      4  O   UNL     1       6.487  -2.484  21.984  0.00  0.00    -0.274 OA
ENDROOT
BRANCH   1   5
ATOM      5  C   UNL     1       8.106  -0.854  22.817  0.00  0.00    +0.162 C 
ATOM      6  N   UNL     1       8.950  -0.750  24.011  0.00  0.00    -0.290 N 
ATOM      7  C   UNL     1       8.579  -0.483  25.312  0.00  0.00    +0.216 C 
ATOM      8  O   UNL     1       9.428  -0.346  26.196  0.00  0.00    -0.276 OA
ATOM      9  C   UNL     1      10.360  -0.855  23.670  0.00  0.00    +0.108 C 
ATOM     10  C   UNL     1      10.389  -1.143  22.180  0.00  0.00    +0.021 C 
ATOM     11  C   UNL     1       9.087  -0.531  21.684  0.00  0.00    +0.033 C 
BRANCH   7  12
ATOM     12  C   UNL     1       7.097  -0.382  25.634  0.00  0.00    +0.096 C 
BRANCH  12  13
ATOM     13  C   UNL     1       6.622  -1.501  26.570  0.00  0.00    +0.013 C 
BRANCH  13  14
ATOM     14  C   UNL     1       5.113  -1.770  26.499  0.00  0.00    -0.011 C 
ATOM     15  C   UNL     1       4.616  -2.673  27.635  0.00  0.00    +0.003 C 
ATOM     16  C   UNL     1       3.431  -3.459  27.064  0.00  0.00    +0.000 C 
ATOM     17  C   UNL     1       3.288  -3.020  25.613  0.00  0.00    +0.000 C 
ATOM     18  C   UNL     1       4.664  -2.500  25.236  0.00  0.00    +0.003 C 
ENDBRANCH  13  14
ENDBRANCH  12  13
ENDBRANCH   7  12
ENDBRANCH   1   5
BRANCH   2  19
ATOM     19  C   UNL     1       7.723  -4.660  23.236  0.00  0.00    +0.139 C 
BRANCH  19  20
ATOM     20  C   UNL     1       6.900  -5.170  24.396  0.00  0.00    -0.030 A 
ATOM     21  C   UNL     1       5.667  -5.793  24.154  0.00  0.00    +0.006 A 
ATOM     22  C   UNL     1       4.943  -6.368  25.202  0.00  0.00    +0.016 A 
ATOM     23  C   UNL     1       5.442  -6.320  26.506  0.00  0.00    +0.065 A 
ATOM     24  C   UNL     1       6.631  -5.637  26.770  0.00  0.00    +0.016 A 
ATOM     25  C   UNL     1       7.346  -5.054  25.723  0.00  0.00    +0.006 A 
BRANCH  23  26
ATOM     26  C   UNL     1       4.717  -7.011  27.604  0.00  0.00    +0.308 C 
ATOM     27  N   UNL     1       5.318  -7.517  28.636  0.00  0.00    -0.099 NA
ATOM     28  H   UNL     1       6.335  -7.432  28.552  0.00  0.00    +0.363 HD
ATOM     29  N   UNL     1       3.360  -7.142  27.563  0.00  0.00    -0.247 N 
ATOM     30  H   UNL     1       3.000  -7.446  28.464  0.00  0.00    +0.288 HD
ATOM     31  H   UNL     1       2.847  -6.363  27.174  0.00  0.00    +0.288 HD
ENDBRANCH  23  26
ENDBRANCH  19  20
ENDBRANCH   2  19
TORSDOF 7
ENDMDL
MODEL 9
REMARK VINA RESULT:      -6.0      1.453      1.995
REMARK  Name = 
REMARK  7 active torsions:
REMARK  status: ('A' for Active; 'I' for Inactive)
REMARK    1  A    between atoms: C_2  and  C_16
REMARK    2  A    between atoms: C_7  and  C_9
REMARK    3  A    between atoms: C_9  and  C_10
REMARK    4  A    between atoms: C_10  and  C_11
REMARK    5  A    between atoms: N_18  and  C_19
REMARK    6  A    between atoms: C_19  and  C_20
REMARK    7  A    between atoms: C_23  and  C_26
REMARK                            x       y       z     vdW  Elec       q    Type
REMARK                         _______ _______ _______ _____ _____    ______ ____
ROOT
ATOM      1  C   UNL     1       5.878  -2.491  25.105  0.00  0.00    +0.234 C 
ATOM      2  N   UNL     1       6.637  -1.573  25.810  0.00  0.00    -0.310 N 
ATOM      3  H   UNL     1       7.642  -1.645  25.831  0.00  0.00    +0.149 HD
ATOM      4  O   UNL     1       4.684  -2.303  24.874  0.00  0.00    -0.274 OA
ENDROOT
BRANCH   1   5
ATOM      5  C   UNL     1       6.587  -3.832  24.780  0.00  0.00    +0.162 C 
ATOM      6  N   UNL     1       8.046  -3.686  24.834  0.00  0.00    -0.290 N 
ATOM      7  C   UNL     1       8.902  -3.194  23.872  0.00  0.00    +0.216 C 
ATOM      8  O   UNL     1      10.123  -3.214  24.043  0.00  0.00    -0.276 OA
ATOM      9  C   UNL     1       8.586  -4.252  26.060  0.00  0.00    +0.108 C 
ATOM     10  C   UNL     1       7.376  -4.689  26.866  0.00  0.00    +0.021 C 
ATOM     11  C   UNL     1       6.326  -4.951  25.796  0.00  0.00    +0.033 C 
BRANCH   7  12
ATOM     12  C   UNL     1       8.302  -2.608  22.604  0.00  0.00    +0.096 C 
BRANCH  12  13
ATOM     13  C   UNL     1       8.011  -1.107  22.732  0.00  0.00    +0.013 C 
BRANCH  13  14
ATOM     14  C   UNL     1       9.246  -0.218  22.534  0.00  0.00    -0.011 C 
ATOM     15  C   UNL     1       9.811   0.318  23.856  0.00  0.00    +0.003 C 
ATOM     16  C   UNL     1      10.429   1.682  23.532  0.00  0.00    +0.000 C 
ATOM     17  C   UNL     1      10.184   1.918  22.048  0.00  0.00    +0.000 C 
ATOM     18  C   UNL     1       8.986   1.044  21.716  0.00  0.00    +0.003 C 
ENDBRANCH  13  14
ENDBRANCH  12  13
ENDBRANCH   7  12
ENDBRANCH   1   5
BRANCH   2  19
ATOM     19  C   UNL     1       6.055  -0.358  26.345  0.00  0.00    +0.139 C 
BRANCH  19  20
ATOM     20  C   UNL     1       6.456   0.874  25.568  0.00  0.00    -0.030 A 
ATOM     21  C   UNL     1       5.879   1.125  24.315  0.00  0.00    +0.006 A 
ATOM     22  C   UNL     1       6.153   2.312  23.631  0.00  0.00    +0.016 A 
ATOM     23  C   UNL     1       7.014   3.259  24.190  0.00  0.00    +0.065 A 
ATOM     24  C   UNL     1       7.654   2.987  25.401  0.00  0.00    +0.016 A 
ATOM     25  C   UNL     1       7.386   1.796  26.077  0.00  0.00    +0.006 A 
BRANCH  23  26
ATOM     26  C   UNL     1       7.234   4.559  23.504  0.00  0.00    +0.308 C 
ATOM     27  N   UNL     1       6.928   5.700  24.042  0.00  0.00    -0.099 NA
ATOM     28  H   UNL     1       6.469   5.572  24.948  0.00  0.00    +0.363 HD
ATOM     29  N   UNL     1       7.776   4.601  22.254  0.00  0.00    -0.247 N 
ATOM     30  H   UNL     1       8.049   5.549  22.010  0.00  0.00    +0.288 HD
ATOM     31  H   UNL     1       8.495   3.919  22.055  0.00  0.00    +0.288 HD
ENDBRANCH  23  26
ENDBRANCH  19  20
ENDBRANCH   2  19
TORSDOF 7
ENDMDL
