MODEL 1
REMARK VINA RESULT:      -6.5      0.000      0.000
REMARK  Name = 
REMARK  22 active torsions:
REMARK  status: ('A' for Active; 'I' for Inactive)
REMARK    1  A    between atoms: C_2  and  N_3
REMARK    2  A    between atoms: C_4  and  O_5
REMARK    3  A    between atoms: C_9  and  O_10
REMARK    4  A    between atoms: CA_11  and  C_13
REMARK    5  A    between atoms: C_13  and  O_14
REMARK    6  A    between atoms: C_16  and  O_17
REMARK    7  A    between atoms: CA_18  and  CB_20
REMARK    8  A    between atoms: CB_20  and  O_21
REMARK    9  A    between atoms: C_23  and  O_24
REMARK   10  A    between atoms: CA_25  and  N_44
REMARK   11  A    between atoms: C_29  and  O_30
REMARK   12  A    between atoms: C_31  and  C_36
REMARK   13  A    between atoms: C_34  and  O_35
REMARK   14  A    between atoms: C_45  and  O_46
REMARK   15  A    between atoms: C_45  and  C_47
REMARK   16  A    between atoms: C_47  and  C_48
REMARK   17  A    between atoms: C_48  and  N_50
REMARK   18  A    between atoms: C_48  and  C_51
REMARK   19  A    between atoms: C_51  and  O_53
REMARK   20  A    between atoms: C_51  and  C_54
REMARK   21  A    between atoms: C_54  and  C_55
REMARK   22  A    between atoms: C_55  and  N_56
REMARK                            x       y       z     vdW  Elec       q    Type
REMARK                         _______ _______ _______ _____ _____    ______ ____
ROOT
ATOM      1  C   UNK A   3       5.271  -5.868  25.835  0.00  0.00    +0.109 C 
ATOM      2  C   UNK A   3       5.966  -4.729  25.449  0.00  0.00    +0.142 C 
ATOM      3  C   UNK A   3       6.681  -3.529  26.449  0.00  0.00    +0.236 C 
ATOM      4  N   UNK A   3       6.723  -2.286  26.764  0.00  0.00    -0.233 NA
ATOM      5  C   UNK A   3       6.159  -0.868  26.580  0.00  0.00    +0.228 C 
ATOM      6  C   UNK A   3       7.289   0.310  26.378  0.00  0.00    +0.211 C 
ATOM      7  N   UNK A   3       7.186   1.352  25.604  0.00  0.00    -0.250 NA
ATOM      8  C   UNK A   3       8.080   2.571  25.630  0.00  0.00    +0.181 C 
ATOM      9  C   UNK A   3       8.757   3.019  24.296  0.00  0.00    +0.214 C 
ATOM     10  C   UNK A   1       9.524   1.885  23.682  0.00  0.00    +0.211 C 
ATOM     11  N   SER A   2       8.871   0.867  23.317  0.00  0.00    -0.238 NA
ATOM     12  CA  SER A   2       9.286  -0.496  23.170  0.00  0.00    +0.218 C 
ATOM     13  C   SER A   2       7.961  -1.248  23.191  0.00  0.00    +0.211 C 
ATOM     14  N   UNK A   3       7.843  -2.429  22.719  0.00  0.00    -0.238 NA
ATOM     15  C   UNK A   3       6.651  -3.171  23.136  0.00  0.00    +0.219 C 
ATOM     16  C   UNK A   3       7.127  -4.549  23.435  0.00  0.00    +0.215 C 
ATOM     17  N   UNK A   3       6.889  -5.223  24.499  0.00  0.00    -0.209 NA
ENDROOT
BRANCH   5  18
ATOM     18  C   UNK A   3       5.491  -0.225  27.898  0.00  0.00    +0.172 C 
ATOM     19  N   UNK A   3       4.517  -1.083  28.534  0.00  0.00    -0.233 N 
ATOM     20  H   UNK A   3       4.785  -1.447  29.444  0.00  0.00    +0.245 HD
ATOM     21  C   UNK A   3       3.183  -0.975  28.396  0.00  0.00    +0.362 C 
ATOM     22  N   UNK A   3       2.416  -1.712  29.118  0.00  0.00    -0.133 NA
ATOM     23  H   UNK A   3       1.446  -1.516  28.877  0.00  0.00    +0.306 HD
ATOM     24  N   UNK A   3       2.717  -0.054  27.524  0.00  0.00    -0.238 N 
ATOM     25  H   UNK A   3       1.718   0.096  27.491  0.00  0.00    +0.244 HD
ATOM     26  C   UNK A   3       3.525   0.963  26.893  0.00  0.00    +0.188 C 
ATOM     27  C   UNK A   3       4.807   1.156  27.680  0.00  0.00    +0.076 C 
ENDBRANCH   5  18
BRANCH   1  28
ATOM     28  N   UNK A   3       4.602  -6.785  24.945  0.00  0.00    -0.274 N 
ATOM     29  H   UNK A   3       4.991  -6.731  24.009  0.00  0.00    +0.156 HD
ATOM     30  C   UNK A   3       3.450  -7.545  24.955  0.00  0.00    +0.276 C 
ATOM     31  N   UNK A   3       2.841  -8.059  23.949  0.00  0.00    -0.253 NA
ATOM     32  H   UNK A   3       3.270  -7.838  23.055  0.00  0.00    +0.191 HD
BRANCH  30  33
ATOM     33  O   UNK A   3       2.918  -7.860  26.142  0.00  0.00    -0.482 OA
ATOM     34  H   UNK A   3       2.032  -7.508  26.245  0.00  0.00    +0.295 HD
ENDBRANCH  30  33
ENDBRANCH   1  28
BRANCH  16  35
ATOM     35  O   UNK A   3       7.959  -5.086  22.525  0.00  0.00    -0.494 OA
ATOM     36  H   UNK A   3       7.532  -5.847  22.099  0.00  0.00    +0.293 HD
ENDBRANCH  16  35
BRANCH  13  37
ATOM     37  O   SER A   2       6.937  -0.598  23.769  0.00  0.00    -0.494 OA
ATOM     38  H   SER A   2       7.062   0.360  23.884  0.00  0.00    +0.293 HD
ENDBRANCH  13  37
BRANCH  10  39
ATOM     39  O   UNK A   1      10.857   1.954  23.685  0.00  0.00    -0.494 OA
ATOM     40  H   UNK A   1      11.203   1.960  24.593  0.00  0.00    +0.293 HD
ENDBRANCH  10  39
BRANCH   9  41
ATOM     41  N   UNK A   3       7.852   3.645  23.320  0.00  0.00    -0.240 NA
ATOM     42  C   UNK A   0       7.885   4.823  22.862  0.00  0.00    +0.185 C 
BRANCH  42  43
ATOM     43  O   UNK A   0       8.804   5.744  23.232  0.00  0.00    -0.496 OA
ATOM     44  H   UNK A   0       8.831   6.513  22.615  0.00  0.00    +0.293 HD
ENDBRANCH  42  43
BRANCH  42  45
ATOM     45  C   UNK A   0       6.918   5.388  21.875  0.00  0.00    +0.116 C 
BRANCH  45  46
ATOM     46  C   UNK A   0       5.844   6.283  22.520  0.00  0.00    +0.088 C 
BRANCH  46  47
ATOM     47  N   UNK A   0       5.123   7.108  21.526  0.00  0.00    -0.325 NA
ATOM     48  H   UNK A   0       5.731   7.266  20.721  0.00  0.00    +0.119 HD
ATOM     49  H   UNK A   0       4.329   6.565  21.182  0.00  0.00    +0.119 HD
ENDBRANCH  46  47
BRANCH  46  50
ATOM     50  C   UNK A   0       4.822   5.448  23.355  0.00  0.00    +0.133 C 
BRANCH  50  51
ATOM     51  O   UNK A   0       5.434   5.078  24.594  0.00  0.00    -0.390 OA
ATOM     52  H   UNK A   0       6.019   5.830  24.840  0.00  0.00    +0.210 HD
ENDBRANCH  50  51
BRANCH  50  53
ATOM     53  C   UNK A   0       4.293   4.197  22.620  0.00  0.00    +0.048 C 
BRANCH  53  54
ATOM     54  C   UNK A   0       4.142   2.970  23.524  0.00  0.00    +0.080 C 
BRANCH  54  55
ATOM     55  N   UNK A   0       5.268   2.047  23.373  0.00  0.00    -0.330 NA
ATOM     56  H   UNK A   0       5.467   1.618  24.278  0.00  0.00    +0.118 HD
ATOM     57  H   UNK A   0       4.981   1.273  22.767  0.00  0.00    +0.118 HD
ENDBRANCH  54  55
ENDBRANCH  53  54
ENDBRANCH  50  53
ENDBRANCH  46  50
ENDBRANCH  45  46
ENDBRANCH  42  45
ENDBRANCH   9  41
BRANCH   6  58
ATOM     58  O   UNK A   3       8.244   0.245  27.332  0.00  0.00    -0.494 OA
ATOM     59  H   UNK A   3       9.091   0.600  27.024  0.00  0.00    +0.293 HD
ENDBRANCH   6  58
BRANCH   3  60
ATOM     60  O   UNK A   3       7.706  -4.272  26.981  0.00  0.00    -0.491 OA
ATOM     61  H   UNK A   3       7.565  -5.225  26.855  0.00  0.00    +0.294 HD
ENDBRANCH   3  60
BRANCH  12  62
ATOM     62  CB  SER A   2      10.111  -0.999  24.370  0.00  0.00    +0.192 C 
BRANCH  62  63
ATOM     63  OG  SER A   2       9.363  -1.880  25.208  0.00  0.00    -0.392 OA
ATOM     64  H   SER A   2       8.508  -1.445  25.396  0.00  0.00    +0.210 HD
ENDBRANCH  62  63
ENDBRANCH  12  62
BRANCH  15  65
ATOM     65  C   UNK A   3       5.506  -3.081  22.162  0.00  0.00    +0.192 C 
BRANCH  65  66
ATOM     66  O   UNK A   3       4.787  -4.320  22.236  0.00  0.00    -0.392 OA
ATOM     67  H   UNK A   3       4.956  -4.683  23.130  0.00  0.00    +0.210 HD
ENDBRANCH  65  66
ENDBRANCH  15  65
TORSDOF 22
ENDMDL
MODEL 2
REMARK VINA RESULT:      -6.3      2.979      4.393
REMARK  Name = 
REMARK  22 active torsions:
REMARK  status: ('A' for Active; 'I' for Inactive)
REMARK    1  A    between atoms: C_2  and  N_3
REMARK    2  A    between atoms: C_4  and  O_5
REMARK    3  A    between atoms: C_9  and  O_10
REMARK    4  A    between atoms: CA_11  and  C_13
REMARK    5  A    between atoms: C_13  and  O_14
REMARK    6  A    between atoms: C_16  and  O_17
REMARK    7  A    between atoms: CA_18  and  CB_20
REMARK    8  A    between atoms: CB_20  and  O_21
REMARK    9  A    between atoms: C_23  and  O_24
REMARK   10  A    between atoms: CA_25  and  N_44
REMARK   11  A    between atoms: C_29  and  O_30
REMARK   12  A    between atoms: C_31  and  C_36
REMARK   13  A    between atoms: C_34  and  O_35
REMARK   14  A    between atoms: C_45  and  O_46
REMARK   15  A    between atoms: C_45  and  C_47
REMARK   16  A    between atoms: C_47  and  C_48
REMARK   17  A    between atoms: C_48  and  N_50
REMARK   18  A    between atoms: C_48  and  C_51
REMARK   19  A    between atoms: C_51  and  O_53
REMARK   20  A    between atoms: C_51  and  C_54
REMARK   21  A    between atoms: C_54  and  C_55
REMARK   22  A    between atoms: C_55  and  N_56
REMARK                            x       y       z     vdW  Elec       q    Type
REMARK                         _______ _______ _______ _____ _____    ______ ____
ROOT
ATOM      1  C   UNK A   3       8.308  -3.414  26.640  0.00  0.00    +0.109 C 
ATOM      2  C   UNK A   3       8.073  -2.249  25.922  0.00  0.00    +0.142 C 
ATOM      3  C   UNK A   3       7.797  -0.664  26.526  0.00  0.00    +0.236 C 
ATOM      4  N   UNK A   3       6.998   0.338  26.571  0.00  0.00    -0.233 NA
ATOM      5  C   UNK A   3       5.636   0.946  26.200  0.00  0.00    +0.228 C 
ATOM      6  C   UNK A   3       5.698   2.468  25.580  0.00  0.00    +0.211 C 
ATOM      7  N   UNK A   3       4.937   2.948  24.639  0.00  0.00    -0.250 NA
ATOM      8  C   UNK A   3       4.793   4.407  24.269  0.00  0.00    +0.181 C 
ATOM      9  C   UNK A   3       5.016   4.818  22.779  0.00  0.00    +0.214 C 
ATOM     10  C   UNK A   1       6.351   4.337  22.289  0.00  0.00    +0.211 C 
ATOM     11  N   SER A   2       6.545   3.090  22.251  0.00  0.00    -0.238 NA
ATOM     12  CA  SER A   2       7.764   2.339  22.317  0.00  0.00    +0.218 C 
ATOM     13  C   SER A   2       7.275   0.950  22.708  0.00  0.00    +0.211 C 
ATOM     14  N   UNK A   3       7.978  -0.098  22.511  0.00  0.00    -0.238 NA
ATOM     15  C   UNK A   3       7.577  -1.290  23.261  0.00  0.00    +0.219 C 
ATOM     16  C   UNK A   3       8.845  -1.896  23.750  0.00  0.00    +0.215 C 
ATOM     17  N   UNK A   3       9.103  -2.256  24.952  0.00  0.00    -0.209 NA
ENDROOT
BRANCH   5  18
ATOM     18  C   UNK A   3       4.693   1.321  27.451  0.00  0.00    +0.172 C 
ATOM     19  N   UNK A   3       4.985   0.563  28.648  0.00  0.00    -0.233 N 
ATOM     20  H   UNK A   3       5.383   1.096  29.416  0.00  0.00    +0.245 HD
ATOM     21  C   UNK A   3       4.295  -0.511  29.072  0.00  0.00    +0.362 C 
ATOM     22  N   UNK A   3       4.568  -1.019  30.220  0.00  0.00    -0.133 NA
ATOM     23  H   UNK A   3       3.969  -1.827  30.376  0.00  0.00    +0.306 HD
ATOM     24  N   UNK A   3       3.309  -0.976  28.273  0.00  0.00    -0.238 N 
ATOM     25  H   UNK A   3       2.726  -1.719  28.632  0.00  0.00    +0.244 HD
ATOM     26  C   UNK A   3       2.800  -0.288  27.110  0.00  0.00    +0.188 C 
ATOM     27  C   UNK A   3       3.165   1.183  27.188  0.00  0.00    +0.076 C 
ENDBRANCH   5  18
BRANCH   1  28
ATOM     28  N   UNK A   3       8.429  -4.736  26.076  0.00  0.00    -0.274 N 
ATOM     29  H   UNK A   3       7.651  -5.323  26.358  0.00  0.00    +0.156 HD
ATOM     30  C   UNK A   3       9.407  -5.482  25.449  0.00  0.00    +0.276 C 
ATOM     31  N   UNK A   3       9.443  -6.756  25.297  0.00  0.00    -0.253 NA
ATOM     32  H   UNK A   3       8.659  -7.242  25.723  0.00  0.00    +0.191 HD
BRANCH  30  33
ATOM     33  O   UNK A   3      10.414  -4.827  24.860  0.00  0.00    -0.482 OA
ATOM     34  H   UNK A   3      11.232  -4.905  25.353  0.00  0.00    +0.295 HD
ENDBRANCH  30  33
ENDBRANCH   1  28
BRANCH  16  35
ATOM     35  O   UNK A   3       9.834  -1.983  22.843  0.00  0.00    -0.494 OA
ATOM     36  H   UNK A   3       9.958  -2.910  22.580  0.00  0.00    +0.293 HD
ENDBRANCH  16  35
BRANCH  13  37
ATOM     37  O   SER A   2       6.070   0.908  23.303  0.00  0.00    -0.494 OA
ATOM     38  H   SER A   2       5.330   1.249  22.772  0.00  0.00    +0.293 HD
ENDBRANCH  13  37
BRANCH  10  39
ATOM     39  O   UNK A   1       7.300   5.246  22.059  0.00  0.00    -0.494 OA
ATOM     40  H   UNK A   1       7.762   5.064  21.225  0.00  0.00    +0.293 HD
ENDBRANCH  10  39
BRANCH   9  41
ATOM     41  N   UNK A   3       3.936   4.430  21.859  0.00  0.00    -0.240 NA
ATOM     42  C   UNK A   0       2.838   5.017  21.646  0.00  0.00    +0.185 C 
BRANCH  42  43
ATOM     43  O   UNK A   0       2.460   6.152  22.279  0.00  0.00    -0.496 OA
ATOM     44  H   UNK A   0       2.131   6.837  21.652  0.00  0.00    +0.293 HD
ENDBRANCH  42  43
BRANCH  42  45
ATOM     45  C   UNK A   0       1.784   4.550  20.697  0.00  0.00    +0.116 C 
BRANCH  45  46
ATOM     46  C   UNK A   0       1.629   5.460  19.464  0.00  0.00    +0.088 C 
BRANCH  46  47
ATOM     47  N   UNK A   0       2.693   6.483  19.378  0.00  0.00    -0.325 NA
ATOM     48  H   UNK A   0       2.985   6.739  20.322  0.00  0.00    +0.119 HD
ATOM     49  H   UNK A   0       3.507   6.056  18.932  0.00  0.00    +0.119 HD
ENDBRANCH  46  47
BRANCH  46  50
ATOM     50  C   UNK A   0       1.582   4.633  18.140  0.00  0.00    +0.133 C 
BRANCH  50  51
ATOM     51  O   UNK A   0       2.693   3.733  18.119  0.00  0.00    -0.390 OA
ATOM     52  H   UNK A   0       3.496   4.298  18.058  0.00  0.00    +0.210 HD
ENDBRANCH  50  51
BRANCH  50  53
ATOM     53  C   UNK A   0       1.568   5.503  16.864  0.00  0.00    +0.048 C 
BRANCH  53  54
ATOM     54  C   UNK A   0       1.616   4.691  15.565  0.00  0.00    +0.080 C 
BRANCH  54  55
ATOM     55  N   UNK A   0       2.992   4.483  15.110  0.00  0.00    -0.330 NA
ATOM     56  H   UNK A   0       3.156   3.480  15.004  0.00  0.00    +0.118 HD
ATOM     57  H   UNK A   0       3.090   4.872  14.168  0.00  0.00    +0.118 HD
ENDBRANCH  54  55
ENDBRANCH  53  54
ENDBRANCH  50  53
ENDBRANCH  46  50
ENDBRANCH  45  46
ENDBRANCH  42  45
ENDBRANCH   9  41
BRANCH   6  58
ATOM     58  O   UNK A   3       6.442   3.286  26.356  0.00  0.00    -0.494 OA
ATOM     59  H   UNK A   3       7.353   2.971  26.450  0.00  0.00    +0.293 HD
ENDBRANCH   6  58
BRANCH   3  60
ATOM     60  O   UNK A   3       9.050  -0.398  27.021  0.00  0.00    -0.491 OA
ATOM     61  H   UNK A   3       9.547   0.204  26.441  0.00  0.00    +0.294 HD
ENDBRANCH   3  60
BRANCH  12  62
ATOM     62  CB  SER A   2       8.700   2.822  23.442  0.00  0.00    +0.192 C 
BRANCH  62  63
ATOM     63  OG  SER A   2       8.753   1.903  24.532  0.00  0.00    -0.392 OA
ATOM     64  H   SER A   2       9.122   1.066  24.188  0.00  0.00    +0.210 HD
ENDBRANCH  62  63
ENDBRANCH  12  62
BRANCH  15  65
ATOM     65  C   UNK A   3       6.674  -2.218  22.491  0.00  0.00    +0.192 C 
BRANCH  65  66
ATOM     66  O   UNK A   3       7.251  -3.529  22.563  0.00  0.00    -0.392 OA
ATOM     67  H   UNK A   3       8.158  -3.412  22.913  0.00  0.00    +0.210 HD
ENDBRANCH  65  66
ENDBRANCH  15  65
TORSDOF 22
ENDMDL
MODEL 3
REMARK VINA RESULT:      -6.1      1.225      1.636
REMARK  Name = 
REMARK  22 active torsions:
REMARK  status: ('A' for Active; 'I' for Inactive)
REMARK    1  A    between atoms: C_2  and  N_3
REMARK    2  A    between atoms: C_4  and  O_5
REMARK    3  A    between atoms: C_9  and  O_10
REMARK    4  A    between atoms: CA_11  and  C_13
REMARK    5  A    between atoms: C_13  and  O_14
REMARK    6  A    between atoms: C_16  and  O_17
REMARK    7  A    between atoms: CA_18  and  CB_20
REMARK    8  A    between atoms: CB_20  and  O_21
REMARK    9  A    between atoms: C_23  and  O_24
REMARK   10  A    between atoms: CA_25  and  N_44
REMARK   11  A    between atoms: C_29  and  O_30
REMARK   12  A    between atoms: C_31  and  C_36
REMARK   13  A    between atoms: C_34  and  O_35
REMARK   14  A    between atoms: C_45  and  O_46
REMARK   15  A    between atoms: C_45  and  C_47
REMARK   16  A    between atoms: C_47  and  C_48
REMARK   17  A    between atoms: C_48  and  N_50
REMARK   18  A    between atoms: C_48  and  C_51
REMARK   19  A    between atoms: C_51  and  O_53
REMARK   20  A    between atoms: C_51  and  C_54
REMARK   21  A    between atoms: C_54  and  C_55
REMARK   22  A    between atoms: C_55  and  N_56
REMARK                            x       y       z     vdW  Elec       q    Type
REMARK                         _______ _______ _______ _____ _____    ______ ____
ROOT
ATOM      1  C   UNK A   3       5.214  -6.111  26.051  0.00  0.00    +0.109 C 
ATOM      2  C   UNK A   3       5.859  -4.941  25.673  0.00  0.00    +0.142 C 
ATOM      3  C   UNK A   3       6.521  -3.717  26.681  0.00  0.00    +0.236 C 
ATOM      4  N   UNK A   3       6.509  -2.476  27.004  0.00  0.00    -0.233 NA
ATOM      5  C   UNK A   3       5.885  -1.082  26.829  0.00  0.00    +0.228 C 
ATOM      6  C   UNK A   3       6.963   0.144  26.636  0.00  0.00    +0.211 C 
ATOM      7  N   UNK A   3       6.816   1.186  25.868  0.00  0.00    -0.250 NA
ATOM      8  C   UNK A   3       7.656   2.442  25.902  0.00  0.00    +0.181 C 
ATOM      9  C   UNK A   3       8.315   2.928  24.573  0.00  0.00    +0.214 C 
ATOM     10  C   UNK A   1       9.130   1.832  23.952  0.00  0.00    +0.211 C 
ATOM     11  N   SER A   2       8.522   0.789  23.579  0.00  0.00    -0.238 NA
ATOM     12  CA  SER A   2       8.996  -0.554  23.425  0.00  0.00    +0.218 C 
ATOM     13  C   SER A   2       7.704  -1.363  23.439  0.00  0.00    +0.211 C 
ATOM     14  N   UNK A   3       7.637  -2.545  22.960  0.00  0.00    -0.238 NA
ATOM     15  C   UNK A   3       6.479  -3.340  23.371  0.00  0.00    +0.219 C 
ATOM     16  C   UNK A   3       7.013  -4.698  23.661  0.00  0.00    +0.215 C 
ATOM     17  N   UNK A   3       6.803  -5.388  24.720  0.00  0.00    -0.209 NA
ENDROOT
BRANCH   5  18
ATOM     18  C   UNK A   3       5.189  -0.478  28.150  0.00  0.00    +0.172 C 
ATOM     19  N   UNK A   3       4.414  -1.444  28.894  0.00  0.00    -0.233 N 
ATOM     20  H   UNK A   3       4.790  -1.698  29.803  0.00  0.00    +0.245 HD
ATOM     21  C   UNK A   3       3.076  -1.573  28.838  0.00  0.00    +0.362 C 
ATOM     22  N   UNK A   3       2.488  -2.381  29.647  0.00  0.00    -0.133 NA
ATOM     23  H   UNK A   3       1.487  -2.368  29.459  0.00  0.00    +0.306 HD
ATOM     24  N   UNK A   3       2.410  -0.803  27.949  0.00  0.00    -0.238 N 
ATOM     25  H   UNK A   3       1.400  -0.826  27.972  0.00  0.00    +0.244 HD
ATOM     26  C   UNK A   3       2.995   0.293  27.211  0.00  0.00    +0.188 C 
ATOM     27  C   UNK A   3       4.265   0.751  27.902  0.00  0.00    +0.076 C 
ENDBRANCH   5  18
BRANCH   1  28
ATOM     28  N   UNK A   3       4.585  -7.050  25.154  0.00  0.00    -0.274 N 
ATOM     29  H   UNK A   3       5.092  -7.107  24.277  0.00  0.00    +0.156 HD
ATOM     30  C   UNK A   3       3.380  -7.718  25.071  0.00  0.00    +0.276 C 
ATOM     31  N   UNK A   3       2.860  -8.271  24.037  0.00  0.00    -0.253 NA
ATOM     32  H   UNK A   3       3.415  -8.163  23.192  0.00  0.00    +0.191 HD
BRANCH  30  33
ATOM     33  O   UNK A   3       2.679  -7.886  26.199  0.00  0.00    -0.482 OA
ATOM     34  H   UNK A   3       2.959  -7.283  26.890  0.00  0.00    +0.295 HD
ENDBRANCH  30  33
ENDBRANCH   1  28
BRANCH  16  35
ATOM     35  O   UNK A   3       7.867  -5.192  22.749  0.00  0.00    -0.494 OA
ATOM     36  H   UNK A   3       8.154  -6.082  23.015  0.00  0.00    +0.293 HD
ENDBRANCH  16  35
BRANCH  13  37
ATOM     37  O   SER A   2       6.653  -0.761  24.020  0.00  0.00    -0.494 OA
ATOM     38  H   SER A   2       6.185  -1.290  24.690  0.00  0.00    +0.293 HD
ENDBRANCH  13  37
BRANCH  10  39
ATOM     39  O   UNK A   1      10.459   1.957  23.957  0.00  0.00    -0.494 OA
ATOM     40  H   UNK A   1      10.744   2.671  23.363  0.00  0.00    +0.293 HD
ENDBRANCH  10  39
BRANCH   9  41
ATOM     41  N   UNK A   3       7.385   3.521  23.599  0.00  0.00    -0.240 NA
ATOM     42  C   UNK A   0       6.339   3.014  23.105  0.00  0.00    +0.185 C 
BRANCH  42  43
ATOM     43  O   UNK A   0       5.894   1.772  23.404  0.00  0.00    -0.496 OA
ATOM     44  H   UNK A   0       5.082   1.534  22.898  0.00  0.00    +0.293 HD
ENDBRANCH  42  43
BRANCH  42  45
ATOM     45  C   UNK A   0       5.450   3.682  22.108  0.00  0.00    +0.116 C 
BRANCH  45  46
ATOM     46  C   UNK A   0       4.319   4.504  22.755  0.00  0.00    +0.088 C 
BRANCH  46  47
ATOM     47  N   UNK A   0       4.228   5.873  22.203  0.00  0.00    -0.325 NA
ATOM     48  H   UNK A   0       3.303   6.004  21.791  0.00  0.00    +0.119 HD
ATOM     49  H   UNK A   0       4.291   6.532  22.981  0.00  0.00    +0.119 HD
ENDBRANCH  46  47
BRANCH  46  50
ATOM     50  C   UNK A   0       2.938   3.788  22.625  0.00  0.00    +0.133 C 
BRANCH  50  51
ATOM     51  O   UNK A   0       2.927   2.648  23.488  0.00  0.00    -0.390 OA
ATOM     52  H   UNK A   0       3.065   2.998  24.398  0.00  0.00    +0.210 HD
ENDBRANCH  50  51
BRANCH  50  53
ATOM     53  C   UNK A   0       2.586   3.373  21.179  0.00  0.00    +0.048 C 
BRANCH  53  54
ATOM     54  C   UNK A   0       1.584   4.309  20.496  0.00  0.00    +0.080 C 
BRANCH  54  55
ATOM     55  N   UNK A   0       2.257   5.421  19.823  0.00  0.00    -0.330 NA
ATOM     56  H   UNK A   0       1.716   6.275  19.974  0.00  0.00    +0.118 HD
ATOM     57  H   UNK A   0       3.156   5.589  20.282  0.00  0.00    +0.118 HD
ENDBRANCH  54  55
ENDBRANCH  53  54
ENDBRANCH  50  53
ENDBRANCH  46  50
ENDBRANCH  45  46
ENDBRANCH  42  45
ENDBRANCH   9  41
BRANCH   6  58
ATOM     58  O   UNK A   3       7.920   0.115  27.590  0.00  0.00    -0.494 OA
ATOM     59  H   UNK A   3       7.607  -0.302  28.406  0.00  0.00    +0.293 HD
ENDBRANCH   6  58
BRANCH   3  60
ATOM     60  O   UNK A   3       7.577  -4.419  27.210  0.00  0.00    -0.491 OA
ATOM     61  H   UNK A   3       7.496  -5.373  27.043  0.00  0.00    +0.294 HD
ENDBRANCH   3  60
BRANCH  12  62
ATOM     62  CB  SER A   2       9.841  -1.029  24.623  0.00  0.00    +0.192 C 
BRANCH  62  63
ATOM     63  OG  SER A   2       9.126  -1.937  25.460  0.00  0.00    -0.392 OA
ATOM     64  H   SER A   2       8.787  -2.653  24.889  0.00  0.00    +0.210 HD
ENDBRANCH  62  63
ENDBRANCH  12  62
BRANCH  15  65
ATOM     65  C   UNK A   3       5.331  -3.293  22.396  0.00  0.00    +0.192 C 
BRANCH  65  66
ATOM     66  O   UNK A   3       4.848  -4.635  22.243  0.00  0.00    -0.392 OA
ATOM     67  H   UNK A   3       4.019  -4.572  21.726  0.00  0.00    +0.210 HD
ENDBRANCH  65  66
ENDBRANCH  15  65
TORSDOF 22
ENDMDL
MODEL 4
REMARK VINA RESULT:      -5.6      2.846      8.980
REMARK  Name = 
REMARK  22 active torsions:
REMARK  status: ('A' for Active; 'I' for Inactive)
REMARK    1  A    between atoms: C_2  and  N_3
REMARK    2  A    between atoms: C_4  and  O_5
REMARK    3  A    between atoms: C_9  and  O_10
REMARK    4  A    between atoms: CA_11  and  C_13
REMARK    5  A    between atoms: C_13  and  O_14
REMARK    6  A    between atoms: C_16  and  O_17
REMARK    7  A    between atoms: CA_18  and  CB_20
REMARK    8  A    between atoms: CB_20  and  O_21
REMARK    9  A    between atoms: C_23  and  O_24
REMARK   10  A    between atoms: CA_25  and  N_44
REMARK   11  A    between atoms: C_29  and  O_30
REMARK   12  A    between atoms: C_31  and  C_36
REMARK   13  A    between atoms: C_34  and  O_35
REMARK   14  A    between atoms: C_45  and  O_46
REMARK   15  A    between atoms: C_45  and  C_47
REMARK   16  A    between atoms: C_47  and  C_48
REMARK   17  A    between atoms: C_48  and  N_50
REMARK   18  A    between atoms: C_48  and  C_51
REMARK   19  A    between atoms: C_51  and  O_53
REMARK   20  A    between atoms: C_51  and  C_54
REMARK   21  A    between atoms: C_54  and  C_55
REMARK   22  A    between atoms: C_55  and  N_56
REMARK                            x       y       z     vdW  Elec       q    Type
REMARK                         _______ _______ _______ _____ _____    ______ ____
ROOT
ATOM      1  C   UNK A   3      10.352   4.253  23.512  0.00  0.00    +0.109 C 
ATOM      2  C   UNK A   3       9.534   3.152  23.729  0.00  0.00    +0.142 C 
ATOM      3  C   UNK A   3       7.827   3.114  23.918  0.00  0.00    +0.236 C 
ATOM      4  N   UNK A   3       6.842   2.793  24.675  0.00  0.00    -0.233 NA
ATOM      5  C   UNK A   3       6.350   2.250  26.026  0.00  0.00    +0.228 C 
ATOM      6  C   UNK A   3       5.181   1.098  25.929  0.00  0.00    +0.211 C 
ATOM      7  N   UNK A   3       5.054   0.062  26.708  0.00  0.00    -0.250 NA
ATOM      8  C   UNK A   3       3.838  -0.831  26.810  0.00  0.00    +0.181 C 
ATOM      9  C   UNK A   3       4.034  -2.369  26.631  0.00  0.00    +0.214 C 
ATOM     10  C   UNK A   1       4.732  -2.670  25.338  0.00  0.00    +0.211 C 
ATOM     11  N   SER A   2       5.910  -2.236  25.195  0.00  0.00    -0.238 NA
ATOM     12  CA  SER A   2       6.642  -1.918  24.005  0.00  0.00    +0.218 C 
ATOM     13  C   SER A   2       7.753  -1.018  24.532  0.00  0.00    +0.211 C 
ATOM     14  N   UNK A   3       8.832  -0.817  23.879  0.00  0.00    -0.238 NA
ATOM     15  C   UNK A   3       9.630   0.338  24.296  0.00  0.00    +0.219 C 
ATOM     16  C   UNK A   3      10.070   0.991  23.033  0.00  0.00    +0.215 C 
ATOM     17  N   UNK A   3       9.961   2.234  22.741  0.00  0.00    -0.209 NA
ENDROOT
BRANCH   5  18
ATOM     18  C   UNK A   3       5.481   3.287  26.901  0.00  0.00    +0.172 C 
ATOM     19  N   UNK A   3       4.714   4.219  26.107  0.00  0.00    -0.233 N 
ATOM     20  H   UNK A   3       3.705   4.099  26.146  0.00  0.00    +0.245 HD
ATOM     21  C   UNK A   3       5.069   5.490  25.845  0.00  0.00    +0.362 C 
ATOM     22  N   UNK A   3       4.240   6.262  25.238  0.00  0.00    -0.133 NA
ATOM     23  H   UNK A   3       4.671   7.175  25.107  0.00  0.00    +0.306 HD
ATOM     24  N   UNK A   3       6.281   5.902  26.279  0.00  0.00    -0.238 N 
ATOM     25  H   UNK A   3       6.509   6.881  26.170  0.00  0.00    +0.244 HD
ATOM     26  C   UNK A   3       7.128   5.158  27.181  0.00  0.00    +0.188 C 
ATOM     27  C   UNK A   3       6.299   4.129  27.925  0.00  0.00    +0.076 C 
ENDBRANCH   5  18
BRANCH   1  28
ATOM     28  N   UNK A   3      11.793   4.231  23.466  0.00  0.00    -0.274 N 
ATOM     29  H   UNK A   3      12.170   3.635  24.196  0.00  0.00    +0.156 HD
ATOM     30  C   UNK A   3      12.797   4.956  22.855  0.00  0.00    +0.276 C 
ATOM     31  N   UNK A   3      14.038   5.000  23.177  0.00  0.00    -0.253 NA
ATOM     32  H   UNK A   3      14.269   4.445  23.996  0.00  0.00    +0.191 HD
BRANCH  30  33
ATOM     33  O   UNK A   3      12.486   5.652  21.755  0.00  0.00    -0.482 OA
ATOM     34  H   UNK A   3      11.611   6.041  21.810  0.00  0.00    +0.295 HD
ENDBRANCH  30  33
ENDBRANCH   1  28
BRANCH  16  35
ATOM     35  O   UNK A   3      10.545   0.163  22.087  0.00  0.00    -0.494 OA
ATOM     36  H   UNK A   3       9.911  -0.556  21.931  0.00  0.00    +0.293 HD
ENDBRANCH  16  35
BRANCH  13  37
ATOM     37  O   SER A   2       7.504  -0.424  25.712  0.00  0.00    -0.494 OA
ATOM     38  H   SER A   2       7.375   0.540  25.676  0.00  0.00    +0.293 HD
ENDBRANCH  13  37
BRANCH  10  39
ATOM     39  O   UNK A   1       4.028  -3.250  24.364  0.00  0.00    -0.494 OA
ATOM     40  H   UNK A   1       3.906  -2.644  23.614  0.00  0.00    +0.293 HD
ENDBRANCH  10  39
BRANCH   9  41
ATOM     41  N   UNK A   3       4.684  -3.049  27.762  0.00  0.00    -0.240 NA
ATOM     42  C   UNK A   0       4.179  -3.866  28.582  0.00  0.00    +0.185 C 
BRANCH  42  43
ATOM     43  O   UNK A   0       2.883  -4.254  28.551  0.00  0.00    -0.496 OA
ATOM     44  H   UNK A   0       2.782  -5.229  28.664  0.00  0.00    +0.293 HD
ENDBRANCH  42  43
BRANCH  42  45
ATOM     45  C   UNK A   0       4.909  -4.507  29.716  0.00  0.00    +0.116 C 
BRANCH  45  46
ATOM     46  C   UNK A   0       5.930  -5.567  29.261  0.00  0.00    +0.088 C 
BRANCH  46  47
ATOM     47  N   UNK A   0       6.233  -6.553  30.321  0.00  0.00    -0.325 NA
ATOM     48  H   UNK A   0       6.565  -6.057  31.150  0.00  0.00    +0.119 HD
ATOM     49  H   UNK A   0       5.358  -7.006  30.590  0.00  0.00    +0.119 HD
ENDBRANCH  46  47
BRANCH  46  50
ATOM     50  C   UNK A   0       5.456  -6.307  27.970  0.00  0.00    +0.133 C 
BRANCH  50  51
ATOM     51  O   UNK A   0       5.466  -7.716  28.218  0.00  0.00    -0.390 OA
ATOM     52  H   UNK A   0       6.177  -8.085  27.646  0.00  0.00    +0.210 HD
ENDBRANCH  50  51
BRANCH  50  53
ATOM     53  C   UNK A   0       6.297  -5.974  26.718  0.00  0.00    +0.048 C 
BRANCH  53  54
ATOM     54  C   UNK A   0       7.666  -5.366  27.040  0.00  0.00    +0.080 C 
BRANCH  54  55
ATOM     55  N   UNK A   0       7.681  -3.919  26.817  0.00  0.00    -0.330 NA
ATOM     56  H   UNK A   0       6.778  -3.636  26.430  0.00  0.00    +0.118 HD
ATOM     57  H   UNK A   0       7.743  -3.447  27.723  0.00  0.00    +0.118 HD
ENDBRANCH  54  55
ENDBRANCH  53  54
ENDBRANCH  50  53
ENDBRANCH  46  50
ENDBRANCH  45  46
ENDBRANCH  42  45
ENDBRANCH   9  41
BRANCH   6  58
ATOM     58  O   UNK A   3       4.170   1.488  25.122  0.00  0.00    -0.494 OA
ATOM     59  H   UNK A   3       3.302   1.307  25.512  0.00  0.00    +0.293 HD
ENDBRANCH   6  58
BRANCH   3  60
ATOM     60  O   UNK A   3       7.459   3.443  22.637  0.00  0.00    -0.491 OA
ATOM     61  H   UNK A   3       8.010   4.157  22.275  0.00  0.00    +0.294 HD
ENDBRANCH   3  60
BRANCH  12  62
ATOM     62  CB  SER A   2       5.818  -1.083  23.005  0.00  0.00    +0.192 C 
BRANCH  62  63
ATOM     63  OG  SER A   2       6.232   0.283  22.974  0.00  0.00    -0.392 OA
ATOM     64  H   SER A   2       5.436   0.824  22.808  0.00  0.00    +0.210 HD
ENDBRANCH  62  63
ENDBRANCH  12  62
BRANCH  15  65
ATOM     65  C   UNK A   3      10.732  -0.002  25.266  0.00  0.00    +0.192 C 
BRANCH  65  66
ATOM     66  O   UNK A   3      11.899   0.722  24.851  0.00  0.00    -0.392 OA
ATOM     67  H   UNK A   3      12.325   0.182  24.155  0.00  0.00    +0.210 HD
ENDBRANCH  65  66
ENDBRANCH  15  65
TORSDOF 22
ENDMDL
MODEL 5
REMARK VINA RESULT:      -5.2      2.259      9.056
REMARK  Name = 
REMARK  22 active torsions:
REMARK  status: ('A' for Active; 'I' for Inactive)
REMARK    1  A    between atoms: C_2  and  N_3
REMARK    2  A    between atoms: C_4  and  O_5
REMARK    3  A    between atoms: C_9  and  O_10
REMARK    4  A    between atoms: CA_11  and  C_13
REMARK    5  A    between atoms: C_13  and  O_14
REMARK    6  A    between atoms: C_16  and  O_17
REMARK    7  A    between atoms: CA_18  and  CB_20
REMARK    8  A    between atoms: CB_20  and  O_21
REMARK    9  A    between atoms: C_23  and  O_24
REMARK   10  A    between atoms: CA_25  and  N_44
REMARK   11  A    between atoms: C_29  and  O_30
REMARK   12  A    between atoms: C_31  and  C_36
REMARK   13  A    between atoms: C_34  and  O_35
REMARK   14  A    between atoms: C_45  and  O_46
REMARK   15  A    between atoms: C_45  and  C_47
REMARK   16  A    between atoms: C_47  and  C_48
REMARK   17  A    between atoms: C_48  and  N_50
REMARK   18  A    between atoms: C_48  and  C_51
REMARK   19  A    between atoms: C_51  and  O_53
REMARK   20  A    between atoms: C_51  and  C_54
REMARK   21  A    between atoms: C_54  and  C_55
REMARK   22  A    between atoms: C_55  and  N_56
REMARK                            x       y       z     vdW  Elec       q    Type
REMARK                         _______ _______ _______ _____ _____    ______ ____
ROOT
ATOM      1  C   UNK A   3       8.092   5.455  24.317  0.00  0.00    +0.109 C 
ATOM      2  C   UNK A   3       7.233   4.493  24.832  0.00  0.00    +0.142 C 
ATOM      3  C   UNK A   3       7.534   3.360  26.088  0.00  0.00    +0.236 C 
ATOM      4  N   UNK A   3       7.580   2.123  26.422  0.00  0.00    -0.233 NA
ATOM      5  C   UNK A   3       7.475   0.647  26.004  0.00  0.00    +0.228 C 
ATOM      6  C   UNK A   3       6.550  -0.291  26.988  0.00  0.00    +0.211 C 
ATOM      7  N   UNK A   3       5.773  -1.267  26.614  0.00  0.00    -0.250 NA
ATOM      8  C   UNK A   3       5.152  -2.306  27.520  0.00  0.00    +0.181 C 
ATOM      9  C   UNK A   3       3.606  -2.515  27.455  0.00  0.00    +0.214 C 
ATOM     10  C   UNK A   1       2.884  -1.217  27.664  0.00  0.00    +0.211 C 
ATOM     11  N   SER A   2       3.063  -0.304  26.810  0.00  0.00    -0.238 NA
ATOM     12  CA  SER A   2       2.952   1.119  26.937  0.00  0.00    +0.218 C 
ATOM     13  C   SER A   2       3.751   1.620  25.740  0.00  0.00    +0.211 C 
ATOM     14  N   UNK A   3       3.600   2.797  25.266  0.00  0.00    -0.238 NA
ATOM     15  C   UNK A   3       4.668   3.279  24.389  0.00  0.00    +0.219 C 
ATOM     16  C   UNK A   3       4.909   4.690  24.796  0.00  0.00    +0.215 C 
ATOM     17  N   UNK A   3       6.043   5.220  25.070  0.00  0.00    -0.209 NA
ENDROOT
BRANCH   5  18
ATOM     18  C   UNK A   3       8.826  -0.210  26.188  0.00  0.00    +0.172 C 
ATOM     19  N   UNK A   3      10.005   0.441  25.665  0.00  0.00    -0.233 N 
ATOM     20  H   UNK A   3      10.683   0.741  26.360  0.00  0.00    +0.245 HD
ATOM     21  C   UNK A   3      10.574   0.174  24.475  0.00  0.00    +0.362 C 
ATOM     22  N   UNK A   3      11.697   0.725  24.179  0.00  0.00    -0.133 NA
ATOM     23  H   UNK A   3      11.975   0.429  23.245  0.00  0.00    +0.306 HD
ATOM     24  N   UNK A   3       9.945  -0.705  23.665  0.00  0.00    -0.238 N 
ATOM     25  H   UNK A   3      10.419  -0.982  22.816  0.00  0.00    +0.244 HD
ATOM     26  C   UNK A   3       8.832  -1.536  24.060  0.00  0.00    +0.188 C 
ATOM     27  C   UNK A   3       8.786  -1.640  25.572  0.00  0.00    +0.076 C 
ENDBRANCH   5  18
BRANCH   1  28
ATOM     28  N   UNK A   3       7.814   6.309  23.188  0.00  0.00    -0.274 N 
ATOM     29  H   UNK A   3       7.907   7.287  23.442  0.00  0.00    +0.156 HD
ATOM     30  C   UNK A   3       7.252   6.177  21.934  0.00  0.00    +0.276 C 
ATOM     31  N   UNK A   3       6.792   7.108  21.180  0.00  0.00    -0.253 NA
ATOM     32  H   UNK A   3       6.841   8.034  21.596  0.00  0.00    +0.191 HD
BRANCH  30  33
ATOM     33  O   UNK A   3       7.229   4.958  21.384  0.00  0.00    -0.482 OA
ATOM     34  H   UNK A   3       6.853   4.968  20.501  0.00  0.00    +0.295 HD
ENDBRANCH  30  33
ENDBRANCH   1  28
BRANCH  16  35
ATOM     35  O   UNK A   3       3.807   5.438  24.973  0.00  0.00    -0.494 OA
ATOM     36  H   UNK A   3       3.371   5.190  25.805  0.00  0.00    +0.293 HD
ENDBRANCH  16  35
BRANCH  13  37
ATOM     37  O   SER A   2       4.648   0.753  25.241  0.00  0.00    -0.494 OA
ATOM     38  H   SER A   2       5.436   0.602  25.792  0.00  0.00    +0.293 HD
ENDBRANCH  13  37
BRANCH  10  39
ATOM     39  O   UNK A   1       2.213  -1.048  28.805  0.00  0.00    -0.494 OA
ATOM     40  H   UNK A   1       2.291  -1.831  29.375  0.00  0.00    +0.293 HD
ENDBRANCH  10  39
BRANCH   9  41
ATOM     41  N   UNK A   3       3.123  -3.209  26.251  0.00  0.00    -0.240 NA
ATOM     42  C   UNK A   0       3.047  -4.452  26.038  0.00  0.00    +0.185 C 
BRANCH  42  43
ATOM     43  O   UNK A   0       3.434  -5.390  26.934  0.00  0.00    -0.496 OA
ATOM     44  H   UNK A   0       2.669  -5.894  27.299  0.00  0.00    +0.293 HD
ENDBRANCH  42  43
BRANCH  42  45
ATOM     45  C   UNK A   0       2.552  -5.079  24.778  0.00  0.00    +0.116 C 
BRANCH  45  46
ATOM     46  C   UNK A   0       3.587  -6.006  24.111  0.00  0.00    +0.088 C 
BRANCH  46  47
ATOM     47  N   UNK A   0       2.981  -7.253  23.597  0.00  0.00    -0.325 NA
ATOM     48  H   UNK A   0       3.633  -7.697  22.949  0.00  0.00    +0.119 HD
ATOM     49  H   UNK A   0       2.874  -7.898  24.382  0.00  0.00    +0.119 HD
ENDBRANCH  46  47
BRANCH  46  50
ATOM     50  C   UNK A   0       4.356  -5.279  22.962  0.00  0.00    +0.133 C 
BRANCH  50  51
ATOM     51  O   UNK A   0       4.686  -6.236  21.952  0.00  0.00    -0.390 OA
ATOM     52  H   UNK A   0       4.820  -5.719  21.125  0.00  0.00    +0.210 HD
ENDBRANCH  50  51
BRANCH  50  53
ATOM     53  C   UNK A   0       5.624  -4.536  23.437  0.00  0.00    +0.048 C 
BRANCH  53  54
ATOM     54  C   UNK A   0       5.685  -3.073  22.985  0.00  0.00    +0.080 C 
BRANCH  54  55
ATOM     55  N   UNK A   0       5.053  -2.181  23.959  0.00  0.00    -0.330 NA
ATOM     56  H   UNK A   0       5.683  -2.060  24.753  0.00  0.00    +0.118 HD
ATOM     57  H   UNK A   0       4.963  -1.250  23.543  0.00  0.00    +0.118 HD
ENDBRANCH  54  55
ENDBRANCH  53  54
ENDBRANCH  50  53
ENDBRANCH  46  50
ENDBRANCH  45  46
ENDBRANCH  42  45
ENDBRANCH   9  41
BRANCH   6  58
ATOM     58  O   UNK A   3       6.897  -0.138  28.285  0.00  0.00    -0.494 OA
ATOM     59  H   UNK A   3       7.857  -0.139  28.407  0.00  0.00    +0.293 HD
ENDBRANCH   6  58
BRANCH   3  60
ATOM     60  O   UNK A   3       7.597   4.226  27.152  0.00  0.00    -0.491 OA
ATOM     61  H   UNK A   3       8.500   4.557  27.294  0.00  0.00    +0.294 HD
ENDBRANCH   3  60
BRANCH  12  62
ATOM     62  CB  SER A   2       3.646   1.659  28.203  0.00  0.00    +0.192 C 
BRANCH  62  63
ATOM     63  OG  SER A   2       4.878   2.313  27.904  0.00  0.00    -0.392 OA
ATOM     64  H   SER A   2       5.479   1.642  27.526  0.00  0.00    +0.210 HD
ENDBRANCH  62  63
ENDBRANCH  12  62
BRANCH  15  65
ATOM     65  C   UNK A   3       4.394   3.068  22.923  0.00  0.00    +0.192 C 
BRANCH  65  66
ATOM     66  O   UNK A   3       5.382   2.150  22.434  0.00  0.00    -0.392 OA
ATOM     67  H   UNK A   3       5.534   1.502  23.151  0.00  0.00    +0.210 HD
ENDBRANCH  65  66
ENDBRANCH  15  65
TORSDOF 22
ENDMDL
MODEL 6
REMARK VINA RESULT:      -5.2      2.912      4.502
REMARK  Name = 
REMARK  22 active torsions:
REMARK  status: ('A' for Active; 'I' for Inactive)
REMARK    1  A    between atoms: C_2  and  N_3
REMARK    2  A    between atoms: C_4  and  O_5
REMARK    3  A    between atoms: C_9  and  O_10
REMARK    4  A    between atoms: CA_11  and  C_13
REMARK    5  A    between atoms: C_13  and  O_14
REMARK    6  A    between atoms: C_16  and  O_17
REMARK    7  A    between atoms: CA_18  and  CB_20
REMARK    8  A    between atoms: CB_20  and  O_21
REMARK    9  A    between atoms: C_23  and  O_24
REMARK   10  A    between atoms: CA_25  and  N_44
REMARK   11  A    between atoms: C_29  and  O_30
REMARK   12  A    between atoms: C_31  and  C_36
REMARK   13  A    between atoms: C_34  and  O_35
REMARK   14  A    between atoms: C_45  and  O_46
REMARK   15  A    between atoms: C_45  and  C_47
REMARK   16  A    between atoms: C_47  and  C_48
REMARK   17  A    between atoms: C_48  and  N_50
REMARK   18  A    between atoms: C_48  and  C_51
REMARK   19  A    between atoms: C_51  and  O_53
REMARK   20  A    between atoms: C_51  and  C_54
REMARK   21  A    between atoms: C_54  and  C_55
REMARK   22  A    between atoms: C_55  and  N_56
REMARK                            x       y       z     vdW  Elec       q    Type
REMARK                         _______ _______ _______ _____ _____    ______ ____
ROOT
ATOM      1  C   UNK A   3       8.602  -3.333  26.738  0.00  0.00    +0.109 C 
ATOM      2  C   UNK A   3       8.417  -2.127  26.075  0.00  0.00    +0.142 C 
ATOM      3  C   UNK A   3       8.287  -0.551  26.748  0.00  0.00    +0.236 C 
ATOM      4  N   UNK A   3       7.566   0.502  26.869  0.00  0.00    -0.233 NA
ATOM      5  C   UNK A   3       6.235   1.219  26.591  0.00  0.00    +0.228 C 
ATOM      6  C   UNK A   3       6.376   2.755  26.022  0.00  0.00    +0.211 C 
ATOM      7  N   UNK A   3       5.607   3.324  25.139  0.00  0.00    -0.250 NA
ATOM      8  C   UNK A   3       5.552   4.803  24.829  0.00  0.00    +0.181 C 
ATOM      9  C   UNK A   3       5.731   5.255  23.345  0.00  0.00    +0.214 C 
ATOM     10  C   UNK A   1       7.001   4.700  22.770  0.00  0.00    +0.211 C 
ATOM     11  N   SER A   2       7.102   3.444  22.678  0.00  0.00    -0.238 NA
ATOM     12  CA  SER A   2       8.265   2.608  22.654  0.00  0.00    +0.218 C 
ATOM     13  C   SER A   2       7.696   1.242  23.021  0.00  0.00    +0.211 C 
ATOM     14  N   UNK A   3       8.311   0.155  22.751  0.00  0.00    -0.238 NA
ATOM     15  C   UNK A   3       7.862  -1.034  23.478  0.00  0.00    +0.219 C 
ATOM     16  C   UNK A   3       9.105  -1.746  23.879  0.00  0.00    +0.215 C 
ATOM     17  N   UNK A   3       9.395  -2.170  25.054  0.00  0.00    -0.209 NA
ENDROOT
BRANCH   5  18
ATOM     18  C   UNK A   3       5.385   1.611  27.902  0.00  0.00    +0.172 C 
ATOM     19  N   UNK A   3       5.397   3.024  28.203  0.00  0.00    -0.233 N 
ATOM     20  H   UNK A   3       4.508   3.504  28.083  0.00  0.00    +0.245 HD
ATOM     21  C   UNK A   3       6.177   3.613  29.127  0.00  0.00    +0.362 C 
ATOM     22  N   UNK A   3       6.002   4.858  29.397  0.00  0.00    -0.133 NA
ATOM     23  H   UNK A   3       6.680   5.143  30.100  0.00  0.00    +0.306 HD
ATOM     24  N   UNK A   3       7.087   2.840  29.761  0.00  0.00    -0.238 N 
ATOM     25  H   UNK A   3       7.605   3.256  30.522  0.00  0.00    +0.244 HD
ATOM     26  C   UNK A   3       7.141   1.400  29.679  0.00  0.00    +0.188 C 
ATOM     27  C   UNK A   3       5.803   0.865  29.203  0.00  0.00    +0.076 C 
ENDBRANCH   5  18
BRANCH   1  28
ATOM     28  N   UNK A   3       8.599  -4.638  26.123  0.00  0.00    -0.274 N 
ATOM     29  H   UNK A   3       7.775  -5.164  26.393  0.00  0.00    +0.156 HD
ATOM     30  C   UNK A   3       9.499  -5.442  25.454  0.00  0.00    +0.276 C 
ATOM     31  N   UNK A   3       9.421  -6.707  25.253  0.00  0.00    -0.253 NA
ATOM     32  H   UNK A   3       8.601  -7.138  25.671  0.00  0.00    +0.191 HD
BRANCH  30  33
ATOM     33  O   UNK A   3      10.554  -4.855  24.876  0.00  0.00    -0.482 OA
ATOM     34  H   UNK A   3      10.325  -4.013  24.479  0.00  0.00    +0.295 HD
ENDBRANCH  30  33
ENDBRANCH   1  28
BRANCH  16  35
ATOM     35  O   UNK A   3      10.039  -1.867  22.920  0.00  0.00    -0.494 OA
ATOM     36  H   UNK A   3       9.611  -2.009  22.060  0.00  0.00    +0.293 HD
ENDBRANCH  16  35
BRANCH  13  37
ATOM     37  O   SER A   2       6.523   1.262  23.675  0.00  0.00    -0.494 OA
ATOM     38  H   SER A   2       5.789   0.803  23.232  0.00  0.00    +0.293 HD
ENDBRANCH  13  37
BRANCH  10  39
ATOM     39  O   UNK A   1       8.002   5.548  22.523  0.00  0.00    -0.494 OA
ATOM     40  H   UNK A   1       7.664   6.409  22.227  0.00  0.00    +0.293 HD
ENDBRANCH  10  39
BRANCH   9  41
ATOM     41  N   UNK A   3       4.582   4.980  22.468  0.00  0.00    -0.240 NA
ATOM     42  C   UNK A   0       3.446   5.534  22.467  0.00  0.00    +0.185 C 
BRANCH  42  43
ATOM     43  O   UNK A   0       3.090   6.513  23.330  0.00  0.00    -0.496 OA
ATOM     44  H   UNK A   0       3.353   7.408  23.009  0.00  0.00    +0.293 HD
ENDBRANCH  42  43
BRANCH  42  45
ATOM     45  C   UNK A   0       2.324   5.188  21.546  0.00  0.00    +0.116 C 
BRANCH  45  46
ATOM     46  C   UNK A   0       2.331   3.713  21.104  0.00  0.00    +0.088 C 
BRANCH  46  47
ATOM     47  N   UNK A   0       2.115   2.782  22.233  0.00  0.00    -0.325 NA
ATOM     48  H   UNK A   0       2.485   1.864  21.983  0.00  0.00    +0.119 HD
ATOM     49  H   UNK A   0       2.673   3.111  23.023  0.00  0.00    +0.119 HD
ENDBRANCH  46  47
BRANCH  46  50
ATOM     50  C   UNK A   0       1.276   3.441  19.985  0.00  0.00    +0.133 C 
BRANCH  50  51
ATOM     51  O   UNK A   0       0.825   2.088  20.096  0.00  0.00    -0.390 OA
ATOM     52  H   UNK A   0       0.017   2.119  20.658  0.00  0.00    +0.210 HD
ENDBRANCH  50  51
BRANCH  50  53
ATOM     53  C   UNK A   0       1.798   3.719  18.557  0.00  0.00    +0.048 C 
BRANCH  53  54
ATOM     54  C   UNK A   0       1.355   5.073  17.994  0.00  0.00    +0.080 C 
BRANCH  54  55
ATOM     55  N   UNK A   0       2.446   6.049  18.014  0.00  0.00    -0.330 NA
ATOM     56  H   UNK A   0       2.074   6.955  18.305  0.00  0.00    +0.118 HD
ATOM     57  H   UNK A   0       3.111   5.784  18.746  0.00  0.00    +0.118 HD
ENDBRANCH  54  55
ENDBRANCH  53  54
ENDBRANCH  50  53
ENDBRANCH  46  50
ENDBRANCH  45  46
ENDBRANCH  42  45
ENDBRANCH   9  41
BRANCH   6  58
ATOM     58  O   UNK A   3       7.216   3.488  26.787  0.00  0.00    -0.494 OA
ATOM     59  H   UNK A   3       8.110   3.522  26.418  0.00  0.00    +0.293 HD
ENDBRANCH   6  58
BRANCH   3  60
ATOM     60  O   UNK A   3       9.578  -0.394  27.187  0.00  0.00    -0.491 OA
ATOM     61  H   UNK A   3       9.925  -1.209  27.589  0.00  0.00    +0.294 HD
ENDBRANCH   3  60
BRANCH  12  62
ATOM     62  CB  SER A   2       9.288   2.979  23.746  0.00  0.00    +0.192 C 
BRANCH  62  63
ATOM     63  OG  SER A   2       9.285   2.048  24.827  0.00  0.00    -0.392 OA
ATOM     64  H   SER A   2       8.430   1.577  24.802  0.00  0.00    +0.210 HD
ENDBRANCH  62  63
ENDBRANCH  12  62
BRANCH  15  65
ATOM     65  C   UNK A   3       6.857  -1.865  22.724  0.00  0.00    +0.192 C 
BRANCH  65  66
ATOM     66  O   UNK A   3       7.288  -3.230  22.806  0.00  0.00    -0.392 OA
ATOM     67  H   UNK A   3       7.602  -3.474  21.912  0.00  0.00    +0.210 HD
ENDBRANCH  65  66
ENDBRANCH  15  65
TORSDOF 22
ENDMDL
MODEL 7
REMARK VINA RESULT:      -5.2      3.711      7.532
REMARK  Name = 
REMARK  22 active torsions:
REMARK  status: ('A' for Active; 'I' for Inactive)
REMARK    1  A    between atoms: C_2  and  N_3
REMARK    2  A    between atoms: C_4  and  O_5
REMARK    3  A    between atoms: C_9  and  O_10
REMARK    4  A    between atoms: CA_11  and  C_13
REMARK    5  A    between atoms: C_13  and  O_14
REMARK    6  A    between atoms: C_16  and  O_17
REMARK    7  A    between atoms: CA_18  and  CB_20
REMARK    8  A    between atoms: CB_20  and  O_21
REMARK    9  A    between atoms: C_23  and  O_24
REMARK   10  A    between atoms: CA_25  and  N_44
REMARK   11  A    between atoms: C_29  and  O_30
REMARK   12  A    between atoms: C_31  and  C_36
REMARK   13  A    between atoms: C_34  and  O_35
REMARK   14  A    between atoms: C_45  and  O_46
REMARK   15  A    between atoms: C_45  and  C_47
REMARK   16  A    between atoms: C_47  and  C_48
REMARK   17  A    between atoms: C_48  and  N_50
REMARK   18  A    between atoms: C_48  and  C_51
REMARK   19  A    between atoms: C_51  and  O_53
REMARK   20  A    between atoms: C_51  and  C_54
REMARK   21  A    between atoms: C_54  and  C_55
REMARK   22  A    between atoms: C_55  and  N_56
REMARK                            x       y       z     vdW  Elec       q    Type
REMARK                         _______ _______ _______ _____ _____    ______ ____
ROOT
ATOM      1  C   UNK A   3       9.806  -0.031  22.161  0.00  0.00    +0.109 C 
ATOM      2  C   UNK A   3       8.720   0.721  22.591  0.00  0.00    +0.142 C 
ATOM      3  C   UNK A   3       8.213   2.268  22.042  0.00  0.00    +0.236 C 
ATOM      4  N   UNK A   3       7.962   3.486  22.358  0.00  0.00    -0.233 NA
ATOM      5  C   UNK A   3       7.957   4.586  23.431  0.00  0.00    +0.228 C 
ATOM      6  C   UNK A   3       6.572   5.468  23.518  0.00  0.00    +0.211 C 
ATOM      7  N   UNK A   3       6.020   5.932  24.602  0.00  0.00    -0.250 NA
ATOM      8  C   UNK A   3       4.924   6.972  24.667  0.00  0.00    +0.181 C 
ATOM      9  C   UNK A   3       3.630   6.633  25.472  0.00  0.00    +0.214 C 
ATOM     10  C   UNK A   1       3.029   5.344  24.994  0.00  0.00    +0.211 C 
ATOM     11  N   SER A   2       3.712   4.291  25.138  0.00  0.00    -0.238 NA
ATOM     12  CA  SER A   2       3.683   3.060  24.404  0.00  0.00    +0.218 C 
ATOM     13  C   SER A   2       5.033   2.441  24.745  0.00  0.00    +0.211 C 
ATOM     14  N   UNK A   3       5.260   1.192  24.609  0.00  0.00    -0.238 NA
ATOM     15  C   UNK A   3       6.669   0.793  24.600  0.00  0.00    +0.219 C 
ATOM     16  C   UNK A   3       6.789  -0.211  23.508  0.00  0.00    +0.215 C 
ATOM     17  N   UNK A   3       7.655  -0.208  22.563  0.00  0.00    -0.209 NA
ENDROOT
BRANCH   5  18
ATOM     18  C   UNK A   3       8.925   5.837  23.129  0.00  0.00    +0.172 C 
ATOM     19  N   UNK A   3      10.317   5.475  22.985  0.00  0.00    -0.233 N 
ATOM     20  H   UNK A   3      10.701   5.580  22.050  0.00  0.00    +0.245 HD
ATOM     21  C   UNK A   3      11.255   5.603  23.941  0.00  0.00    +0.362 C 
ATOM     22  N   UNK A   3      12.485   5.371  23.650  0.00  0.00    -0.133 NA
ATOM     23  H   UNK A   3      13.053   5.499  24.486  0.00  0.00    +0.306 HD
ATOM     24  N   UNK A   3      10.849   6.016  25.162  0.00  0.00    -0.238 N 
ATOM     25  H   UNK A   3      11.561   6.208  25.853  0.00  0.00    +0.244 HD
ATOM     26  C   UNK A   3       9.534   6.533  25.460  0.00  0.00    +0.188 C 
ATOM     27  C   UNK A   3       8.862   6.986  24.178  0.00  0.00    +0.076 C 
ENDBRANCH   5  18
BRANCH   1  28
ATOM     28  N   UNK A   3      10.241  -1.280  22.737  0.00  0.00    -0.274 N 
ATOM     29  H   UNK A   3      10.715  -1.852  22.046  0.00  0.00    +0.156 HD
ATOM     30  C   UNK A   3      10.004  -1.998  23.892  0.00  0.00    +0.276 C 
ATOM     31  N   UNK A   3      10.230  -3.244  24.099  0.00  0.00    -0.253 NA
ATOM     32  H   UNK A   3      10.602  -3.733  23.290  0.00  0.00    +0.191 HD
BRANCH  30  33
ATOM     33  O   UNK A   3       9.549  -1.333  24.960  0.00  0.00    -0.482 OA
ATOM     34  H   UNK A   3       8.708  -0.906  24.788  0.00  0.00    +0.295 HD
ENDBRANCH  30  33
ENDBRANCH   1  28
BRANCH  16  35
ATOM     35  O   UNK A   3       5.833  -1.155  23.480  0.00  0.00    -0.494 OA
ATOM     36  H   UNK A   3       5.787  -1.602  24.341  0.00  0.00    +0.293 HD
ENDBRANCH  16  35
BRANCH  13  37
ATOM     37  O   SER A   2       5.974   3.303  25.165  0.00  0.00    -0.494 OA
ATOM     38  H   SER A   2       5.676   4.222  25.284  0.00  0.00    +0.293 HD
ENDBRANCH  13  37
BRANCH  10  39
ATOM     39  O   UNK A   1       1.878   5.399  24.321  0.00  0.00    -0.494 OA
ATOM     40  H   UNK A   1       2.020   5.712  23.413  0.00  0.00    +0.293 HD
ENDBRANCH  10  39
BRANCH   9  41
ATOM     41  N   UNK A   3       3.788   6.640  26.935  0.00  0.00    -0.240 NA
ATOM     42  C   UNK A   0       2.898   6.785  27.819  0.00  0.00    +0.185 C 
BRANCH  42  43
ATOM     43  O   UNK A   0       1.589   6.979  27.539  0.00  0.00    -0.496 OA
ATOM     44  H   UNK A   0       1.215   6.256  26.982  0.00  0.00    +0.293 HD
ENDBRANCH  42  43
BRANCH  42  45
ATOM     45  C   UNK A   0       3.144   6.791  29.292  0.00  0.00    +0.116 C 
BRANCH  45  46
ATOM     46  C   UNK A   0       3.218   5.379  29.903  0.00  0.00    +0.088 C 
BRANCH  46  47
ATOM     47  N   UNK A   0       2.837   4.324  28.938  0.00  0.00    -0.325 NA
ATOM     48  H   UNK A   0       3.602   3.652  28.862  0.00  0.00    +0.119 HD
ATOM     49  H   UNK A   0       2.044   3.812  29.328  0.00  0.00    +0.119 HD
ENDBRANCH  46  47
BRANCH  46  50
ATOM     50  C   UNK A   0       4.635   5.077  30.485  0.00  0.00    +0.133 C 
BRANCH  50  51
ATOM     51  O   UNK A   0       5.444   6.250  30.362  0.00  0.00    -0.390 OA
ATOM     52  H   UNK A   0       6.277   6.054  30.847  0.00  0.00    +0.210 HD
ENDBRANCH  50  51
BRANCH  50  53
ATOM     53  C   UNK A   0       5.334   3.868  29.824  0.00  0.00    +0.048 C 
BRANCH  53  54
ATOM     54  C   UNK A   0       6.448   4.260  28.847  0.00  0.00    +0.080 C 
BRANCH  54  55
ATOM     55  N   UNK A   0       5.905   4.732  27.572  0.00  0.00    -0.330 NA
ATOM     56  H   UNK A   0       4.900   4.882  27.677  0.00  0.00    +0.118 HD
ATOM     57  H   UNK A   0       6.295   5.657  27.370  0.00  0.00    +0.118 HD
ENDBRANCH  54  55
ENDBRANCH  53  54
ENDBRANCH  50  53
ENDBRANCH  46  50
ENDBRANCH  45  46
ENDBRANCH  42  45
ENDBRANCH   9  41
BRANCH   6  58
ATOM     58  O   UNK A   3       6.200   5.922  22.300  0.00  0.00    -0.494 OA
ATOM     59  H   UNK A   3       6.649   6.748  22.067  0.00  0.00    +0.293 HD
ENDBRANCH   6  58
BRANCH   3  60
ATOM     60  O   UNK A   3       7.789   1.924  20.782  0.00  0.00    -0.491 OA
ATOM     61  H   UNK A   3       6.819   1.861  20.732  0.00  0.00    +0.294 HD
ENDBRANCH   3  60
BRANCH  12  62
ATOM     62  CB  SER A   2       3.656   3.277  22.879  0.00  0.00    +0.192 C 
BRANCH  62  63
ATOM     63  OG  SER A   2       4.773   2.672  22.229  0.00  0.00    -0.392 OA
ATOM     64  H   SER A   2       4.997   3.229  21.458  0.00  0.00    +0.210 HD
ENDBRANCH  62  63
ENDBRANCH  12  62
BRANCH  15  65
ATOM     65  C   UNK A   3       7.186   0.350  25.944  0.00  0.00    +0.192 C 
BRANCH  65  66
ATOM     66  O   UNK A   3       8.470   0.962  26.127  0.00  0.00    -0.392 OA
ATOM     67  H   UNK A   3       8.311   1.926  26.183  0.00  0.00    +0.210 HD
ENDBRANCH  65  66
ENDBRANCH  15  65
TORSDOF 22
ENDMDL
MODEL 8
REMARK VINA RESULT:      -5.1      2.442      8.610
REMARK  Name = 
REMARK  22 active torsions:
REMARK  status: ('A' for Active; 'I' for Inactive)
REMARK    1  A    between atoms: C_2  and  N_3
REMARK    2  A    between atoms: C_4  and  O_5
REMARK    3  A    between atoms: C_9  and  O_10
REMARK    4  A    between atoms: CA_11  and  C_13
REMARK    5  A    between atoms: C_13  and  O_14
REMARK    6  A    between atoms: C_16  and  O_17
REMARK    7  A    between atoms: CA_18  and  CB_20
REMARK    8  A    between atoms: CB_20  and  O_21
REMARK    9  A    between atoms: C_23  and  O_24
REMARK   10  A    between atoms: CA_25  and  N_44
REMARK   11  A    between atoms: C_29  and  O_30
REMARK   12  A    between atoms: C_31  and  C_36
REMARK   13  A    between atoms: C_34  and  O_35
REMARK   14  A    between atoms: C_45  and  O_46
REMARK   15  A    between atoms: C_45  and  C_47
REMARK   16  A    between atoms: C_47  and  C_48
REMARK   17  A    between atoms: C_48  and  N_50
REMARK   18  A    between atoms: C_48  and  C_51
REMARK   19  A    between atoms: C_51  and  O_53
REMARK   20  A    between atoms: C_51  and  C_54
REMARK   21  A    between atoms: C_54  and  C_55
REMARK   22  A    between atoms: C_55  and  N_56
REMARK                            x       y       z     vdW  Elec       q    Type
REMARK                         _______ _______ _______ _____ _____    ______ ____
ROOT
ATOM      1  C   UNK A   3       5.003   4.473  27.314  0.00  0.00    +0.109 C 
ATOM      2  C   UNK A   3       5.451   3.186  27.048  0.00  0.00    +0.142 C 
ATOM      3  C   UNK A   3       6.748   2.700  26.031  0.00  0.00    +0.236 C 
ATOM      4  N   UNK A   3       7.105   2.007  25.012  0.00  0.00    -0.233 NA
ATOM      5  C   UNK A   3       6.704   1.106  23.834  0.00  0.00    +0.228 C 
ATOM      6  C   UNK A   3       7.612  -0.253  23.655  0.00  0.00    +0.211 C 
ATOM      7  N   UNK A   3       7.183  -1.421  23.271  0.00  0.00    -0.250 NA
ATOM      8  C   UNK A   3       8.044  -2.584  22.832  0.00  0.00    +0.181 C 
ATOM      9  C   UNK A   3       7.839  -3.963  23.534  0.00  0.00    +0.214 C 
ATOM     10  C   UNK A   1       7.958  -3.825  25.023  0.00  0.00    +0.211 C 
ATOM     11  N   SER A   2       7.109  -3.099  25.614  0.00  0.00    -0.238 NA
ATOM     12  CA  SER A   2       7.202  -2.385  26.852  0.00  0.00    +0.218 C 
ATOM     13  C   SER A   2       6.077  -1.364  26.729  0.00  0.00    +0.211 C 
ATOM     14  N   UNK A   3       5.572  -0.784  27.749  0.00  0.00    -0.238 NA
ATOM     15  C   UNK A   3       4.791   0.425  27.479  0.00  0.00    +0.219 C 
ATOM     16  C   UNK A   3       5.196   1.401  28.526  0.00  0.00    +0.215 C 
ATOM     17  N   UNK A   3       5.565   2.613  28.335  0.00  0.00    -0.209 NA
ENDROOT
BRANCH   5  18
ATOM     18  C   UNK A   3       7.027   1.708  22.375  0.00  0.00    +0.172 C 
ATOM     19  N   UNK A   3       8.415   1.587  21.990  0.00  0.00    -0.233 N 
ATOM     20  H   UNK A   3       8.602   0.943  21.227  0.00  0.00    +0.245 HD
ATOM     21  C   UNK A   3       9.328   2.573  22.064  0.00  0.00    +0.362 C 
ATOM     22  N   UNK A   3      10.498   2.383  21.567  0.00  0.00    -0.133 NA
ATOM     23  H   UNK A   3      11.063   3.216  21.723  0.00  0.00    +0.306 HD
ATOM     24  N   UNK A   3       8.944   3.739  22.629  0.00  0.00    -0.238 N 
ATOM     25  H   UNK A   3       9.596   4.511  22.598  0.00  0.00    +0.244 HD
ATOM     26  C   UNK A   3       7.582   4.082  22.960  0.00  0.00    +0.188 C 
ATOM     27  C   UNK A   3       6.629   3.200  22.176  0.00  0.00    +0.076 C 
ENDBRANCH   5  18
BRANCH   1  28
ATOM     28  N   UNK A   3       3.839   4.811  28.097  0.00  0.00    -0.274 N 
ATOM     29  H   UNK A   3       4.095   5.368  28.905  0.00  0.00    +0.156 HD
ATOM     30  C   UNK A   3       2.521   4.409  28.173  0.00  0.00    +0.276 C 
ATOM     31  N   UNK A   3       1.702   4.589  29.145  0.00  0.00    -0.253 NA
ATOM     32  H   UNK A   3       2.113   5.063  29.944  0.00  0.00    +0.191 HD
BRANCH  30  33
ATOM     33  O   UNK A   3       1.982   3.819  27.099  0.00  0.00    -0.482 OA
ATOM     34  H   UNK A   3       1.730   4.456  26.427  0.00  0.00    +0.295 HD
ENDBRANCH  30  33
ENDBRANCH   1  28
BRANCH  16  35
ATOM     35  O   UNK A   3       5.256   0.916  29.778  0.00  0.00    -0.494 OA
ATOM     36  H   UNK A   3       6.117   1.133  30.173  0.00  0.00    +0.293 HD
ENDBRANCH  16  35
BRANCH  13  37
ATOM     37  O   SER A   2       5.678  -1.093  25.475  0.00  0.00    -0.494 OA
ATOM     38  H   SER A   2       4.899  -0.515  25.400  0.00  0.00    +0.293 HD
ENDBRANCH  13  37
BRANCH  10  39
ATOM     39  O   UNK A   1       9.028  -4.354  25.620  0.00  0.00    -0.494 OA
ATOM     40  H   UNK A   1       9.665  -4.683  24.964  0.00  0.00    +0.293 HD
ENDBRANCH  10  39
BRANCH   9  41
ATOM     41  N   UNK A   3       6.606  -4.674  23.160  0.00  0.00    -0.240 NA
ATOM     42  C   UNK A   0       6.438  -5.522  22.238  0.00  0.00    +0.185 C 
BRANCH  42  43
ATOM     43  O   UNK A   0       7.422  -5.920  21.398  0.00  0.00    -0.496 OA
ATOM     44  H   UNK A   0       7.190  -6.749  20.918  0.00  0.00    +0.293 HD
ENDBRANCH  42  43
BRANCH  42  45
ATOM     45  C   UNK A   0       5.145  -6.193  21.914  0.00  0.00    +0.116 C 
BRANCH  45  46
ATOM     46  C   UNK A   0       4.080  -6.027  23.014  0.00  0.00    +0.088 C 
BRANCH  46  47
ATOM     47  N   UNK A   0       2.748  -6.512  22.591  0.00  0.00    -0.325 NA
ATOM     48  H   UNK A   0       2.753  -6.656  21.581  0.00  0.00    +0.119 HD
ATOM     49  H   UNK A   0       2.600  -7.432  23.011  0.00  0.00    +0.119 HD
ENDBRANCH  46  47
BRANCH  46  50
ATOM     50  C   UNK A   0       4.504  -6.734  24.340  0.00  0.00    +0.133 C 
BRANCH  50  51
ATOM     51  O   UNK A   0       3.768  -7.953  24.468  0.00  0.00    -0.390 OA
ATOM     52  H   UNK A   0       3.520  -8.215  23.552  0.00  0.00    +0.210 HD
ENDBRANCH  50  51
BRANCH  50  53
ATOM     53  C   UNK A   0       4.320  -5.858  25.599  0.00  0.00    +0.048 C 
BRANCH  53  54
ATOM     54  C   UNK A   0       5.382  -6.098  26.677  0.00  0.00    +0.080 C 
BRANCH  54  55
ATOM     55  N   UNK A   0       5.106  -7.313  27.445  0.00  0.00    -0.330 NA
ATOM     56  H   UNK A   0       5.494  -7.205  28.384  0.00  0.00    +0.118 HD
ATOM     57  H   UNK A   0       4.095  -7.395  27.580  0.00  0.00    +0.118 HD
ENDBRANCH  54  55
ENDBRANCH  53  54
ENDBRANCH  50  53
ENDBRANCH  46  50
ENDBRANCH  45  46
ENDBRANCH  42  45
ENDBRANCH   9  41
BRANCH   6  58
ATOM     58  O   UNK A   3       8.933   0.031  23.670  0.00  0.00    -0.494 OA
ATOM     59  H   UNK A   3       9.391  -0.403  24.404  0.00  0.00    +0.293 HD
ENDBRANCH   6  58
BRANCH   3  60
ATOM     60  O   UNK A   3       7.799   3.175  26.776  0.00  0.00    -0.491 OA
ATOM     61  H   UNK A   3       8.458   3.627  26.222  0.00  0.00    +0.294 HD
ENDBRANCH   3  60
BRANCH  12  62
ATOM     62  CB  SER A   2       8.518  -1.594  26.986  0.00  0.00    +0.192 C 
BRANCH  62  63
ATOM     63  OG  SER A   2       8.315  -0.186  26.870  0.00  0.00    -0.392 OA
ATOM     64  H   SER A   2       7.406  -0.051  26.539  0.00  0.00    +0.210 HD
ENDBRANCH  62  63
ENDBRANCH  12  62
BRANCH  15  65
ATOM     65  C   UNK A   3       3.309   0.178  27.364  0.00  0.00    +0.192 C 
BRANCH  65  66
ATOM     66  O   UNK A   3       2.658   1.079  28.271  0.00  0.00    -0.392 OA
ATOM     67  H   UNK A   3       3.094   1.948  28.156  0.00  0.00    +0.210 HD
ENDBRANCH  65  66
ENDBRANCH  15  65
TORSDOF 22
ENDMDL
MODEL 9
REMARK VINA RESULT:      -5.1      2.388      9.123
REMARK  Name = 
REMARK  22 active torsions:
REMARK  status: ('A' for Active; 'I' for Inactive)
REMARK    1  A    between atoms: C_2  and  N_3
REMARK    2  A    between atoms: C_4  and  O_5
REMARK    3  A    between atoms: C_9  and  O_10
REMARK    4  A    between atoms: CA_11  and  C_13
REMARK    5  A    between atoms: C_13  and  O_14
REMARK    6  A    between atoms: C_16  and  O_17
REMARK    7  A    between atoms: CA_18  and  CB_20
REMARK    8  A    between atoms: CB_20  and  O_21
REMARK    9  A    between atoms: C_23  and  O_24
REMARK   10  A    between atoms: CA_25  and  N_44
REMARK   11  A    between atoms: C_29  and  O_30
REMARK   12  A    between atoms: C_31  and  C_36
REMARK   13  A    between atoms: C_34  and  O_35
REMARK   14  A    between atoms: C_45  and  O_46
REMARK   15  A    between atoms: C_45  and  C_47
REMARK   16  A    between atoms: C_47  and  C_48
REMARK   17  A    between atoms: C_48  and  N_50
REMARK   18  A    between atoms: C_48  and  C_51
REMARK   19  A    between atoms: C_51  and  O_53
REMARK   20  A    between atoms: C_51  and  C_54
REMARK   21  A    between atoms: C_54  and  C_55
REMARK   22  A    between atoms: C_55  and  N_56
REMARK                            x       y       z     vdW  Elec       q    Type
REMARK                         _______ _______ _______ _____ _____    ______ ____
ROOT
ATOM      1  C   UNK A   3       6.872   5.052  24.419  0.00  0.00    +0.109 C 
ATOM      2  C   UNK A   3       6.404   3.901  25.039  0.00  0.00    +0.142 C 
ATOM      3  C   UNK A   3       7.314   2.588  25.671  0.00  0.00    +0.236 C 
ATOM      4  N   UNK A   3       7.537   1.326  25.631  0.00  0.00    -0.233 NA
ATOM      5  C   UNK A   3       7.252  -0.036  24.977  0.00  0.00    +0.228 C 
ATOM      6  C   UNK A   3       6.965  -1.267  26.029  0.00  0.00    +0.211 C 
ATOM      7  N   UNK A   3       6.117  -2.241  25.861  0.00  0.00    -0.250 NA
ATOM      8  C   UNK A   3       6.054  -3.514  26.674  0.00  0.00    +0.181 C 
ATOM      9  C   UNK A   3       4.691  -3.908  27.327  0.00  0.00    +0.214 C 
ATOM     10  C   UNK A   1       4.160  -2.785  28.168  0.00  0.00    +0.211 C 
ATOM     11  N   SER A   2       3.870  -1.703  27.584  0.00  0.00    -0.238 NA
ATOM     12  CA  SER A   2       3.822  -0.363  28.088  0.00  0.00    +0.218 C 
ATOM     13  C   SER A   2       3.898   0.471  26.814  0.00  0.00    +0.211 C 
ATOM     14  N   UNK A   3       3.513   1.688  26.775  0.00  0.00    -0.238 NA
ATOM     15  C   UNK A   3       3.984   2.473  25.632  0.00  0.00    +0.219 C 
ATOM     16  C   UNK A   3       4.381   3.793  26.195  0.00  0.00    +0.215 C 
ATOM     17  N   UNK A   3       5.491   4.401  25.997  0.00  0.00    -0.209 NA
ENDROOT
BRANCH   5  18
ATOM     18  C   UNK A   3       8.520  -0.727  24.263  0.00  0.00    +0.172 C 
ATOM     19  N   UNK A   3       9.794  -0.238  24.739  0.00  0.00    -0.233 N 
ATOM     20  H   UNK A   3      10.348  -0.906  25.268  0.00  0.00    +0.245 HD
ATOM     21  C   UNK A   3      10.555   0.677  24.112  0.00  0.00    +0.362 C 
ATOM     22  N   UNK A   3      11.731   0.933  24.565  0.00  0.00    -0.133 NA
ATOM     23  H   UNK A   3      12.159   1.654  23.988  0.00  0.00    +0.306 HD
ATOM     24  N   UNK A   3      10.050   1.255  23.000  0.00  0.00    -0.238 N 
ATOM     25  H   UNK A   3      10.656   1.868  22.473  0.00  0.00    +0.244 HD
ATOM     26  C   UNK A   3       8.858   0.814  22.314  0.00  0.00    +0.188 C 
ATOM     27  C   UNK A   3       8.541  -0.615  22.710  0.00  0.00    +0.076 C 
ENDBRANCH   5  18
BRANCH   1  28
ATOM     28  N   UNK A   3       6.050   6.072  23.814  0.00  0.00    -0.274 N 
ATOM     29  H   UNK A   3       6.217   6.975  24.246  0.00  0.00    +0.156 HD
ATOM     30  C   UNK A   3       4.956   6.123  22.974  0.00  0.00    +0.276 C 
ATOM     31  N   UNK A   3       4.154   7.107  22.791  0.00  0.00    -0.253 NA
ATOM     32  H   UNK A   3       4.362   7.918  23.366  0.00  0.00    +0.191 HD
BRANCH  30  33
ATOM     33  O   UNK A   3       4.716   5.062  22.194  0.00  0.00    -0.482 OA
ATOM     34  H   UNK A   3       3.920   5.173  21.670  0.00  0.00    +0.295 HD
ENDBRANCH  30  33
ENDBRANCH   1  28
BRANCH  16  35
ATOM     35  O   UNK A   3       3.512   4.338  27.064  0.00  0.00    -0.494 OA
ATOM     36  H   UNK A   3       3.981   4.943  27.661  0.00  0.00    +0.293 HD
ENDBRANCH  16  35
BRANCH  13  37
ATOM     37  O   SER A   2       4.428  -0.152  25.748  0.00  0.00    -0.494 OA
ATOM     38  H   SER A   2       4.203   0.234  24.883  0.00  0.00    +0.293 HD
ENDBRANCH  13  37
BRANCH  10  39
ATOM     39  O   UNK A   1       4.158  -2.940  29.494  0.00  0.00    -0.494 OA
ATOM     40  H   UNK A   1       3.342  -3.374  29.793  0.00  0.00    +0.293 HD
ENDBRANCH  10  39
BRANCH   9  41
ATOM     41  N   UNK A   3       3.672  -4.402  26.388  0.00  0.00    -0.240 NA
ATOM     42  C   UNK A   0       3.265  -3.867  25.318  0.00  0.00    +0.185 C 
BRANCH  42  43
ATOM     43  O   UNK A   0       3.724  -2.682  24.852  0.00  0.00    -0.496 OA
ATOM     44  H   UNK A   0       3.631  -1.959  25.516  0.00  0.00    +0.293 HD
ENDBRANCH  42  43
BRANCH  42  45
ATOM     45  C   UNK A   0       2.214  -4.430  24.421  0.00  0.00    +0.116 C 
BRANCH  45  46
ATOM     46  C   UNK A   0       2.749  -5.504  23.455  0.00  0.00    +0.088 C 
BRANCH  46  47
ATOM     47  N   UNK A   0       4.091  -5.174  22.928  0.00  0.00    -0.325 NA
ATOM     48  H   UNK A   0       4.768  -5.225  23.690  0.00  0.00    +0.119 HD
ATOM     49  H   UNK A   0       4.355  -5.900  22.261  0.00  0.00    +0.119 HD
ENDBRANCH  46  47
BRANCH  46  50
ATOM     50  C   UNK A   0       2.774  -6.917  24.119  0.00  0.00    +0.133 C 
BRANCH  50  51
ATOM     51  O   UNK A   0       4.105  -7.435  24.050  0.00  0.00    -0.390 OA
ATOM     52  H   UNK A   0       4.517  -7.238  24.922  0.00  0.00    +0.210 HD
ENDBRANCH  50  51
BRANCH  50  53
ATOM     53  C   UNK A   0       1.774  -7.915  23.496  0.00  0.00    +0.048 C 
BRANCH  53  54
ATOM     54  C   UNK A   0       1.249  -7.485  22.123  0.00  0.00    +0.080 C 
BRANCH  54  55
ATOM     55  N   UNK A   0       1.235  -8.602  21.176  0.00  0.00    -0.330 NA
ATOM     56  H   UNK A   0       0.271  -8.778  20.887  0.00  0.00    +0.118 HD
ATOM     57  H   UNK A   0       1.723  -8.316  20.322  0.00  0.00    +0.118 HD
ENDBRANCH  54  55
ENDBRANCH  53  54
ENDBRANCH  50  53
ENDBRANCH  46  50
ENDBRANCH  45  46
ENDBRANCH  42  45
ENDBRANCH   9  41
BRANCH   6  58
ATOM     58  O   UNK A   3       7.920  -1.334  26.982  0.00  0.00    -0.494 OA
ATOM     59  H   UNK A   3       7.785  -0.677  27.680  0.00  0.00    +0.293 HD
ENDBRANCH   6  58
BRANCH   3  60
ATOM     60  O   UNK A   3       7.898   3.222  26.740  0.00  0.00    -0.491 OA
ATOM     61  H   UNK A   3       7.279   3.828  27.183  0.00  0.00    +0.294 HD
ENDBRANCH   3  60
BRANCH  12  62
ATOM     62  CB  SER A   2       5.056  -0.002  28.939  0.00  0.00    +0.192 C 
BRANCH  62  63
ATOM     63  OG  SER A   2       5.958   0.857  28.243  0.00  0.00    -0.392 OA
ATOM     64  H   SER A   2       6.854   0.483  28.348  0.00  0.00    +0.210 HD
ENDBRANCH  62  63
ENDBRANCH  12  62
BRANCH  15  65
ATOM     65  C   UNK A   3       3.006   2.529  24.487  0.00  0.00    +0.192 C 
BRANCH  65  66
ATOM     66  O   UNK A   3       3.773   2.606  23.278  0.00  0.00    -0.392 OA
ATOM     67  H   UNK A   3       4.382   1.840  23.289  0.00  0.00    +0.210 HD
ENDBRANCH  65  66
ENDBRANCH  15  65
TORSDOF 22
ENDMDL
